data_str_m3_o10_o17_pcu_sym.147
_audit_creation_date              2020-01-03
_audit_creation_method            'Materials Studio'
_symmetry_space_group_name_H-M    'P1'
_symmetry_Int_Tables_number       1
_symmetry_cell_setting            triclinic
loop_
_symmetry_equiv_pos_as_xyz
  x,y,z
_cell_length_a                    23.4718
_cell_length_b                    25.9582
_cell_length_c                    29.9005
_cell_angle_alpha                 92.0111
_cell_angle_beta                  85.2107
_cell_angle_gamma                 93.4751
loop_
_atom_site_label
_atom_site_type_symbol
_atom_site_fract_x
_atom_site_fract_y
_atom_site_fract_z
_atom_site_U_iso_or_equiv
_atom_site_adp_type
_atom_site_occupancy
C1     C     0.18156   0.26456   0.24860   0.00000  Uiso   1.00
C2     C     0.18261   0.21260   0.40670   0.00000  Uiso   1.00
C3     C     0.16609   0.16708   0.11630   0.00000  Uiso   1.00
C4     C     0.16742   0.16684   0.38379   0.00000  Uiso   1.00
C5     C     0.18250   0.21311   0.09448   0.00000  Uiso   1.00
C6     C     0.15068   0.12096   0.40572   0.00000  Uiso   1.00
C7     C     0.18476   0.21358   0.04733   0.00000  Uiso   1.00
C8     C     0.14911   0.12032   0.45281   0.00000  Uiso   1.00
C9     C     0.16719   0.16732   0.02359   0.00000  Uiso   1.00
C10    C     0.16696   0.16653   0.47649   0.00000  Uiso   1.00
C11    C     0.15002   0.12160   0.04687   0.00000  Uiso   1.00
C12    C     0.15179   0.06871   0.25058   0.00000  Uiso   1.00
C13    C     0.18419   0.21222   0.45319   0.00000  Uiso   1.00
C14    C     0.20400   0.25812   0.02271   0.00000  Uiso   1.00
C15    C     0.13023   0.07568   0.47742   0.00000  Uiso   1.00
C16    C     0.13965   0.07376   0.11786   0.00000  Uiso   1.00
C17    C     0.19427   0.26007   0.38216   0.00000  Uiso   1.00
C18    C     0.00833   0.11569   0.20937   0.00000  Uiso   1.00
C19    C     0.32516   0.21808   0.29024   0.00000  Uiso   1.00
C20    C     0.20306   0.25674   0.47662   0.00000  Uiso   1.00
C21    C     0.13136   0.07703   0.02345   0.00000  Uiso   1.00
C22    C     0.18879   0.31791   0.24222   0.00000  Uiso   1.00
C23    C     0.14466   0.01493   0.25561   0.00000  Uiso   1.00
C24    C     0.16703   0.16697   0.33615   0.00000  Uiso   1.00
C25    C     0.16638   0.16678   0.16388   0.00000  Uiso   1.00
C26    C     0.15143   0.12124   0.09335   0.00000  Uiso   1.00
H27    H     0.21822   0.29144   0.45916   0.00000  Uiso   1.00
H28    H     0.14054   0.01184   0.43656   0.00000  Uiso   1.00
H29    H     0.23302   0.02303   0.18978   0.00000  Uiso   1.00
H30    H     0.26866   0.02202   0.23839   0.00000  Uiso   1.00
H31    H     0.08626   0.01360   0.31009   0.00000  Uiso   1.00
H32    H     0.05772   0.00410   0.25998   0.00000  Uiso   1.00
H33    H     0.11642   0.04226   0.04088   0.00000  Uiso   1.00
H34    H     0.23103   0.25290   0.13892   0.00000  Uiso   1.00
H35    H     0.16079   0.26670   0.14321   0.00000  Uiso   1.00
H36    H     0.09971   0.08272   0.36246   0.00000  Uiso   1.00
H37    H     0.16951   0.06720   0.35638   0.00000  Uiso   1.00
H38    H     0.19414   0.32233   0.06315   0.00000  Uiso   1.00
H39    H     0.26144   0.29828   0.06016   0.00000  Uiso   1.00
H40    H     0.07261   0.03480   0.44057   0.00000  Uiso   1.00
N41    N     0.31678   0.15265   0.23783   0.00000  Uiso   1.00
N42    N     0.09158   0.32865   0.27849   0.00000  Uiso   1.00
N43    N     0.02819   0.08450   0.18537   0.00000  Uiso   1.00
N44    N     0.30546   0.24966   0.31390   0.00000  Uiso   1.00
N45    N     0.01656   0.18068   0.26217   0.00000  Uiso   1.00
N46    N     0.13053   0.03600   0.13732   0.00000  Uiso   1.00
N47    N     0.20323   0.29782   0.36266   0.00000  Uiso   1.00
N48    N     0.19602   0.25900   0.12073   0.00000  Uiso   1.00
N49    N     0.13526   0.07550   0.37964   0.00000  Uiso   1.00
N50    N     0.22633   0.30544   0.04247   0.00000  Uiso   1.00
N51    N     0.10838   0.02815   0.45770   0.00000  Uiso   1.00
N52    N     0.24142   0.00162   0.21724   0.00000  Uiso   1.00
O53    O     0.12975   0.24619   0.25298   0.00000  Uiso   1.00
O54    O     0.20358   0.08714   0.24701   0.00000  Uiso   1.00
O55    O     0.22613   0.23721   0.24518   0.00000  Uiso   1.00
O56    O     0.10720   0.09613   0.25481   0.00000  Uiso   1.00
O57    O     0.11847   0.17117   0.31997   0.00000  Uiso   1.00
O58    O     0.21486   0.16216   0.18002   0.00000  Uiso   1.00
O59    O     0.21485   0.16219   0.31217   0.00000  Uiso   1.00
O60    O     0.11848   0.17115   0.18782   0.00000  Uiso   1.00
Zn61   Zn    0.10231   0.17266   0.25521   0.00000  Uiso   1.00
Zn62   Zn    0.23102   0.16067   0.24479   0.00000  Uiso   1.00
C63    C     0.51489   0.26456   0.24860   0.00000  Uiso   1.00
C64    C     0.51594   0.21260   0.40670   0.00000  Uiso   1.00
C65    C     0.49943   0.16708   0.11630   0.00000  Uiso   1.00
C66    C     0.50075   0.16684   0.38379   0.00000  Uiso   1.00
C67    C     0.51583   0.21311   0.09448   0.00000  Uiso   1.00
C68    C     0.48401   0.12096   0.40572   0.00000  Uiso   1.00
C69    C     0.51810   0.21358   0.04733   0.00000  Uiso   1.00
C70    C     0.48244   0.12032   0.45281   0.00000  Uiso   1.00
C71    C     0.50052   0.16732   0.02359   0.00000  Uiso   1.00
C72    C     0.50029   0.16653   0.47649   0.00000  Uiso   1.00
C73    C     0.48335   0.12160   0.04687   0.00000  Uiso   1.00
C74    C     0.48512   0.06871   0.25058   0.00000  Uiso   1.00
C75    C     0.51752   0.21222   0.45319   0.00000  Uiso   1.00
C76    C     0.53733   0.25812   0.02271   0.00000  Uiso   1.00
C77    C     0.46357   0.07568   0.47742   0.00000  Uiso   1.00
C78    C     0.47299   0.07376   0.11786   0.00000  Uiso   1.00
C79    C     0.52760   0.26007   0.38216   0.00000  Uiso   1.00
C80    C     0.34167   0.11569   0.20937   0.00000  Uiso   1.00
C81    C     0.65849   0.21808   0.29024   0.00000  Uiso   1.00
C82    C     0.53639   0.25674   0.47662   0.00000  Uiso   1.00
C83    C     0.46469   0.07703   0.02345   0.00000  Uiso   1.00
C84    C     0.52212   0.31791   0.24222   0.00000  Uiso   1.00
C85    C     0.47799   0.01493   0.25561   0.00000  Uiso   1.00
C86    C     0.50037   0.16697   0.33615   0.00000  Uiso   1.00
C87    C     0.49971   0.16678   0.16388   0.00000  Uiso   1.00
C88    C     0.48477   0.12124   0.09335   0.00000  Uiso   1.00
H89    H     0.55155   0.29144   0.45916   0.00000  Uiso   1.00
H90    H     0.47387   0.01184   0.43656   0.00000  Uiso   1.00
H91    H     0.56635   0.02303   0.18978   0.00000  Uiso   1.00
H92    H     0.60199   0.02202   0.23839   0.00000  Uiso   1.00
H93    H     0.41959   0.01360   0.31009   0.00000  Uiso   1.00
H94    H     0.39105   0.00410   0.25998   0.00000  Uiso   1.00
H95    H     0.44975   0.04226   0.04088   0.00000  Uiso   1.00
H96    H     0.56437   0.25290   0.13892   0.00000  Uiso   1.00
H97    H     0.49413   0.26670   0.14321   0.00000  Uiso   1.00
H98    H     0.43304   0.08272   0.36246   0.00000  Uiso   1.00
H99    H     0.50284   0.06720   0.35638   0.00000  Uiso   1.00
H100   H     0.52747   0.32233   0.06315   0.00000  Uiso   1.00
H101   H     0.59477   0.29828   0.06016   0.00000  Uiso   1.00
H102   H     0.40595   0.03480   0.44057   0.00000  Uiso   1.00
N103   N     0.65011   0.15265   0.23783   0.00000  Uiso   1.00
N104   N     0.42492   0.32865   0.27849   0.00000  Uiso   1.00
N105   N     0.36152   0.08450   0.18537   0.00000  Uiso   1.00
N106   N     0.63879   0.24966   0.31390   0.00000  Uiso   1.00
N107   N     0.34989   0.18068   0.26217   0.00000  Uiso   1.00
N108   N     0.46386   0.03600   0.13732   0.00000  Uiso   1.00
N109   N     0.53656   0.29782   0.36266   0.00000  Uiso   1.00
N110   N     0.52935   0.25900   0.12073   0.00000  Uiso   1.00
N111   N     0.46859   0.07550   0.37964   0.00000  Uiso   1.00
N112   N     0.55966   0.30544   0.04247   0.00000  Uiso   1.00
N113   N     0.44171   0.02815   0.45770   0.00000  Uiso   1.00
N114   N     0.57475   0.00162   0.21724   0.00000  Uiso   1.00
O115   O     0.46308   0.24619   0.25298   0.00000  Uiso   1.00
O116   O     0.53692   0.08714   0.24701   0.00000  Uiso   1.00
O117   O     0.55946   0.23721   0.24518   0.00000  Uiso   1.00
O118   O     0.44054   0.09613   0.25481   0.00000  Uiso   1.00
O119   O     0.45181   0.17117   0.31997   0.00000  Uiso   1.00
O120   O     0.54819   0.16216   0.18002   0.00000  Uiso   1.00
O121   O     0.54819   0.16219   0.31217   0.00000  Uiso   1.00
O122   O     0.45181   0.17115   0.18782   0.00000  Uiso   1.00
Zn123  Zn    0.43565   0.17266   0.25521   0.00000  Uiso   1.00
Zn124  Zn    0.56435   0.16067   0.24479   0.00000  Uiso   1.00
C125   C     0.84822   0.26456   0.24860   0.00000  Uiso   1.00
C126   C     0.84927   0.21260   0.40670   0.00000  Uiso   1.00
C127   C     0.83276   0.16708   0.11630   0.00000  Uiso   1.00
C128   C     0.83409   0.16684   0.38379   0.00000  Uiso   1.00
C129   C     0.84916   0.21311   0.09448   0.00000  Uiso   1.00
C130   C     0.81735   0.12096   0.40572   0.00000  Uiso   1.00
C131   C     0.85143   0.21358   0.04733   0.00000  Uiso   1.00
C132   C     0.81577   0.12032   0.45281   0.00000  Uiso   1.00
C133   C     0.83385   0.16732   0.02359   0.00000  Uiso   1.00
C134   C     0.83362   0.16653   0.47649   0.00000  Uiso   1.00
C135   C     0.81668   0.12160   0.04687   0.00000  Uiso   1.00
C136   C     0.81845   0.06871   0.25058   0.00000  Uiso   1.00
C137   C     0.85086   0.21222   0.45319   0.00000  Uiso   1.00
C138   C     0.87066   0.25812   0.02271   0.00000  Uiso   1.00
C139   C     0.79690   0.07568   0.47742   0.00000  Uiso   1.00
C140   C     0.80632   0.07376   0.11786   0.00000  Uiso   1.00
C141   C     0.86094   0.26007   0.38216   0.00000  Uiso   1.00
C142   C     0.67500   0.11569   0.20937   0.00000  Uiso   1.00
C143   C     0.99183   0.21808   0.29024   0.00000  Uiso   1.00
C144   C     0.86973   0.25674   0.47662   0.00000  Uiso   1.00
C145   C     0.79802   0.07703   0.02345   0.00000  Uiso   1.00
C146   C     0.85545   0.31791   0.24222   0.00000  Uiso   1.00
C147   C     0.81132   0.01493   0.25561   0.00000  Uiso   1.00
C148   C     0.83370   0.16697   0.33615   0.00000  Uiso   1.00
C149   C     0.83305   0.16678   0.16388   0.00000  Uiso   1.00
C150   C     0.81810   0.12124   0.09335   0.00000  Uiso   1.00
H151   H     0.88489   0.29144   0.45916   0.00000  Uiso   1.00
H152   H     0.80721   0.01184   0.43656   0.00000  Uiso   1.00
H153   H     0.89968   0.02303   0.18978   0.00000  Uiso   1.00
H154   H     0.93533   0.02202   0.23839   0.00000  Uiso   1.00
H155   H     0.75292   0.01360   0.31009   0.00000  Uiso   1.00
H156   H     0.72439   0.00410   0.25998   0.00000  Uiso   1.00
H157   H     0.78308   0.04226   0.04088   0.00000  Uiso   1.00
H158   H     0.89770   0.25290   0.13892   0.00000  Uiso   1.00
H159   H     0.82746   0.26670   0.14321   0.00000  Uiso   1.00
H160   H     0.76638   0.08272   0.36246   0.00000  Uiso   1.00
H161   H     0.83618   0.06720   0.35638   0.00000  Uiso   1.00
H162   H     0.86081   0.32233   0.06315   0.00000  Uiso   1.00
H163   H     0.92811   0.29828   0.06016   0.00000  Uiso   1.00
H164   H     0.73928   0.03480   0.44057   0.00000  Uiso   1.00
N165   N     0.98344   0.15265   0.23783   0.00000  Uiso   1.00
N166   N     0.75825   0.32865   0.27849   0.00000  Uiso   1.00
N167   N     0.69485   0.08450   0.18537   0.00000  Uiso   1.00
N168   N     0.97213   0.24966   0.31390   0.00000  Uiso   1.00
N169   N     0.68322   0.18068   0.26217   0.00000  Uiso   1.00
N170   N     0.79720   0.03600   0.13732   0.00000  Uiso   1.00
N171   N     0.86989   0.29782   0.36266   0.00000  Uiso   1.00
N172   N     0.86268   0.25900   0.12073   0.00000  Uiso   1.00
N173   N     0.80193   0.07550   0.37964   0.00000  Uiso   1.00
N174   N     0.89299   0.30544   0.04247   0.00000  Uiso   1.00
N175   N     0.77504   0.02815   0.45770   0.00000  Uiso   1.00
N176   N     0.90809   0.00162   0.21724   0.00000  Uiso   1.00
O177   O     0.79642   0.24619   0.25298   0.00000  Uiso   1.00
O178   O     0.87025   0.08714   0.24701   0.00000  Uiso   1.00
O179   O     0.89280   0.23721   0.24518   0.00000  Uiso   1.00
O180   O     0.77387   0.09613   0.25481   0.00000  Uiso   1.00
O181   O     0.78514   0.17117   0.31997   0.00000  Uiso   1.00
O182   O     0.88153   0.16216   0.18002   0.00000  Uiso   1.00
O183   O     0.88152   0.16219   0.31217   0.00000  Uiso   1.00
O184   O     0.78515   0.17115   0.18782   0.00000  Uiso   1.00
Zn185  Zn    0.76898   0.17266   0.25521   0.00000  Uiso   1.00
Zn186  Zn    0.89769   0.16067   0.24479   0.00000  Uiso   1.00
C187   C     0.18156   0.59789   0.24860   0.00000  Uiso   1.00
C188   C     0.18261   0.54593   0.40670   0.00000  Uiso   1.00
C189   C     0.16609   0.50041   0.11630   0.00000  Uiso   1.00
C190   C     0.16742   0.50017   0.38379   0.00000  Uiso   1.00
C191   C     0.18250   0.54644   0.09448   0.00000  Uiso   1.00
C192   C     0.15068   0.45429   0.40572   0.00000  Uiso   1.00
C193   C     0.18476   0.54692   0.04733   0.00000  Uiso   1.00
C194   C     0.14911   0.45366   0.45281   0.00000  Uiso   1.00
C195   C     0.16719   0.50065   0.02359   0.00000  Uiso   1.00
C196   C     0.16696   0.49986   0.47649   0.00000  Uiso   1.00
C197   C     0.15002   0.45494   0.04687   0.00000  Uiso   1.00
C198   C     0.15179   0.40205   0.25058   0.00000  Uiso   1.00
C199   C     0.18419   0.54556   0.45319   0.00000  Uiso   1.00
C200   C     0.20400   0.59145   0.02271   0.00000  Uiso   1.00
C201   C     0.13023   0.40901   0.47742   0.00000  Uiso   1.00
C202   C     0.13965   0.40709   0.11786   0.00000  Uiso   1.00
C203   C     0.19427   0.59340   0.38216   0.00000  Uiso   1.00
C204   C     0.00833   0.44903   0.20937   0.00000  Uiso   1.00
C205   C     0.32516   0.55142   0.29024   0.00000  Uiso   1.00
C206   C     0.20306   0.59008   0.47662   0.00000  Uiso   1.00
C207   C     0.13136   0.41036   0.02345   0.00000  Uiso   1.00
C208   C     0.18879   0.65124   0.24222   0.00000  Uiso   1.00
C209   C     0.14466   0.34826   0.25561   0.00000  Uiso   1.00
C210   C     0.16703   0.50031   0.33615   0.00000  Uiso   1.00
C211   C     0.16638   0.50011   0.16388   0.00000  Uiso   1.00
C212   C     0.15143   0.45457   0.09335   0.00000  Uiso   1.00
H213   H     0.21822   0.62477   0.45916   0.00000  Uiso   1.00
H214   H     0.14054   0.34517   0.43656   0.00000  Uiso   1.00
H215   H     0.23302   0.35636   0.18978   0.00000  Uiso   1.00
H216   H     0.26866   0.35536   0.23839   0.00000  Uiso   1.00
H217   H     0.08626   0.34694   0.31009   0.00000  Uiso   1.00
H218   H     0.05772   0.33743   0.25998   0.00000  Uiso   1.00
H219   H     0.11642   0.37559   0.04088   0.00000  Uiso   1.00
H220   H     0.23103   0.58623   0.13892   0.00000  Uiso   1.00
H221   H     0.16079   0.60003   0.14321   0.00000  Uiso   1.00
H222   H     0.09971   0.41605   0.36246   0.00000  Uiso   1.00
H223   H     0.16951   0.40053   0.35638   0.00000  Uiso   1.00
H224   H     0.19414   0.65566   0.06315   0.00000  Uiso   1.00
H225   H     0.26144   0.63161   0.06016   0.00000  Uiso   1.00
H226   H     0.07261   0.36814   0.44057   0.00000  Uiso   1.00
N227   N     0.31678   0.48598   0.23783   0.00000  Uiso   1.00
N228   N     0.09158   0.66198   0.27849   0.00000  Uiso   1.00
N229   N     0.02819   0.41783   0.18537   0.00000  Uiso   1.00
N230   N     0.30546   0.58300   0.31390   0.00000  Uiso   1.00
N231   N     0.01656   0.51402   0.26217   0.00000  Uiso   1.00
N232   N     0.13053   0.36933   0.13732   0.00000  Uiso   1.00
N233   N     0.20323   0.63115   0.36266   0.00000  Uiso   1.00
N234   N     0.19602   0.59233   0.12073   0.00000  Uiso   1.00
N235   N     0.13526   0.40884   0.37964   0.00000  Uiso   1.00
N236   N     0.22633   0.63877   0.04247   0.00000  Uiso   1.00
N237   N     0.10838   0.36148   0.45770   0.00000  Uiso   1.00
N238   N     0.24142   0.33495   0.21724   0.00000  Uiso   1.00
O239   O     0.12975   0.57952   0.25298   0.00000  Uiso   1.00
O240   O     0.20358   0.42048   0.24701   0.00000  Uiso   1.00
O241   O     0.22613   0.57054   0.24518   0.00000  Uiso   1.00
O242   O     0.10720   0.42946   0.25481   0.00000  Uiso   1.00
O243   O     0.11847   0.50450   0.31997   0.00000  Uiso   1.00
O244   O     0.21486   0.49550   0.18002   0.00000  Uiso   1.00
O245   O     0.21485   0.49552   0.31217   0.00000  Uiso   1.00
O246   O     0.11848   0.50448   0.18782   0.00000  Uiso   1.00
Zn247  Zn    0.10231   0.50600   0.25521   0.00000  Uiso   1.00
Zn248  Zn    0.23102   0.49400   0.24479   0.00000  Uiso   1.00
C249   C     0.51489   0.59789   0.24860   0.00000  Uiso   1.00
C250   C     0.51594   0.54593   0.40670   0.00000  Uiso   1.00
C251   C     0.49943   0.50041   0.11630   0.00000  Uiso   1.00
C252   C     0.50075   0.50017   0.38379   0.00000  Uiso   1.00
C253   C     0.51583   0.54644   0.09448   0.00000  Uiso   1.00
C254   C     0.48401   0.45429   0.40572   0.00000  Uiso   1.00
C255   C     0.51810   0.54692   0.04733   0.00000  Uiso   1.00
C256   C     0.48244   0.45366   0.45281   0.00000  Uiso   1.00
C257   C     0.50052   0.50065   0.02359   0.00000  Uiso   1.00
C258   C     0.50029   0.49986   0.47649   0.00000  Uiso   1.00
C259   C     0.48335   0.45494   0.04687   0.00000  Uiso   1.00
C260   C     0.48512   0.40205   0.25058   0.00000  Uiso   1.00
C261   C     0.51752   0.54556   0.45319   0.00000  Uiso   1.00
C262   C     0.53733   0.59145   0.02271   0.00000  Uiso   1.00
C263   C     0.46357   0.40901   0.47742   0.00000  Uiso   1.00
C264   C     0.47299   0.40709   0.11786   0.00000  Uiso   1.00
C265   C     0.52760   0.59340   0.38216   0.00000  Uiso   1.00
C266   C     0.34167   0.44903   0.20937   0.00000  Uiso   1.00
C267   C     0.65849   0.55142   0.29024   0.00000  Uiso   1.00
C268   C     0.53639   0.59008   0.47662   0.00000  Uiso   1.00
C269   C     0.46469   0.41036   0.02345   0.00000  Uiso   1.00
C270   C     0.52212   0.65124   0.24222   0.00000  Uiso   1.00
C271   C     0.47799   0.34826   0.25561   0.00000  Uiso   1.00
C272   C     0.50037   0.50031   0.33615   0.00000  Uiso   1.00
C273   C     0.49971   0.50011   0.16388   0.00000  Uiso   1.00
C274   C     0.48477   0.45457   0.09335   0.00000  Uiso   1.00
H275   H     0.55155   0.62477   0.45916   0.00000  Uiso   1.00
H276   H     0.47387   0.34517   0.43656   0.00000  Uiso   1.00
H277   H     0.56635   0.35636   0.18978   0.00000  Uiso   1.00
H278   H     0.60199   0.35536   0.23839   0.00000  Uiso   1.00
H279   H     0.41959   0.34694   0.31009   0.00000  Uiso   1.00
H280   H     0.39105   0.33743   0.25998   0.00000  Uiso   1.00
H281   H     0.44975   0.37559   0.04088   0.00000  Uiso   1.00
H282   H     0.56437   0.58623   0.13892   0.00000  Uiso   1.00
H283   H     0.49413   0.60003   0.14321   0.00000  Uiso   1.00
H284   H     0.43304   0.41605   0.36246   0.00000  Uiso   1.00
H285   H     0.50284   0.40053   0.35638   0.00000  Uiso   1.00
H286   H     0.52747   0.65566   0.06315   0.00000  Uiso   1.00
H287   H     0.59477   0.63161   0.06016   0.00000  Uiso   1.00
H288   H     0.40595   0.36814   0.44057   0.00000  Uiso   1.00
N289   N     0.65011   0.48598   0.23783   0.00000  Uiso   1.00
N290   N     0.42492   0.66198   0.27849   0.00000  Uiso   1.00
N291   N     0.36152   0.41783   0.18537   0.00000  Uiso   1.00
N292   N     0.63879   0.58300   0.31390   0.00000  Uiso   1.00
N293   N     0.34989   0.51402   0.26217   0.00000  Uiso   1.00
N294   N     0.46386   0.36933   0.13732   0.00000  Uiso   1.00
N295   N     0.53656   0.63115   0.36266   0.00000  Uiso   1.00
N296   N     0.52935   0.59233   0.12073   0.00000  Uiso   1.00
N297   N     0.46859   0.40884   0.37964   0.00000  Uiso   1.00
N298   N     0.55966   0.63877   0.04247   0.00000  Uiso   1.00
N299   N     0.44171   0.36148   0.45770   0.00000  Uiso   1.00
N300   N     0.57475   0.33495   0.21724   0.00000  Uiso   1.00
O301   O     0.46308   0.57952   0.25298   0.00000  Uiso   1.00
O302   O     0.53692   0.42048   0.24701   0.00000  Uiso   1.00
O303   O     0.55946   0.57054   0.24518   0.00000  Uiso   1.00
O304   O     0.44054   0.42946   0.25481   0.00000  Uiso   1.00
O305   O     0.45181   0.50450   0.31997   0.00000  Uiso   1.00
O306   O     0.54819   0.49550   0.18002   0.00000  Uiso   1.00
O307   O     0.54819   0.49552   0.31217   0.00000  Uiso   1.00
O308   O     0.45181   0.50448   0.18782   0.00000  Uiso   1.00
Zn309  Zn    0.43565   0.50600   0.25521   0.00000  Uiso   1.00
Zn310  Zn    0.56435   0.49400   0.24479   0.00000  Uiso   1.00
C311   C     0.84822   0.59789   0.24860   0.00000  Uiso   1.00
C312   C     0.84927   0.54593   0.40670   0.00000  Uiso   1.00
C313   C     0.83276   0.50041   0.11630   0.00000  Uiso   1.00
C314   C     0.83409   0.50017   0.38379   0.00000  Uiso   1.00
C315   C     0.84916   0.54644   0.09448   0.00000  Uiso   1.00
C316   C     0.81735   0.45429   0.40572   0.00000  Uiso   1.00
C317   C     0.85143   0.54692   0.04733   0.00000  Uiso   1.00
C318   C     0.81577   0.45366   0.45281   0.00000  Uiso   1.00
C319   C     0.83385   0.50065   0.02359   0.00000  Uiso   1.00
C320   C     0.83362   0.49986   0.47649   0.00000  Uiso   1.00
C321   C     0.81668   0.45494   0.04687   0.00000  Uiso   1.00
C322   C     0.81845   0.40205   0.25058   0.00000  Uiso   1.00
C323   C     0.85086   0.54556   0.45319   0.00000  Uiso   1.00
C324   C     0.87066   0.59145   0.02271   0.00000  Uiso   1.00
C325   C     0.79690   0.40901   0.47742   0.00000  Uiso   1.00
C326   C     0.80632   0.40709   0.11786   0.00000  Uiso   1.00
C327   C     0.86094   0.59340   0.38216   0.00000  Uiso   1.00
C328   C     0.67500   0.44903   0.20937   0.00000  Uiso   1.00
C329   C     0.99183   0.55142   0.29024   0.00000  Uiso   1.00
C330   C     0.86973   0.59008   0.47662   0.00000  Uiso   1.00
C331   C     0.79802   0.41036   0.02345   0.00000  Uiso   1.00
C332   C     0.85545   0.65124   0.24222   0.00000  Uiso   1.00
C333   C     0.81132   0.34826   0.25561   0.00000  Uiso   1.00
C334   C     0.83370   0.50031   0.33615   0.00000  Uiso   1.00
C335   C     0.83305   0.50011   0.16388   0.00000  Uiso   1.00
C336   C     0.81810   0.45457   0.09335   0.00000  Uiso   1.00
H337   H     0.88489   0.62477   0.45916   0.00000  Uiso   1.00
H338   H     0.80721   0.34517   0.43656   0.00000  Uiso   1.00
H339   H     0.89968   0.35636   0.18978   0.00000  Uiso   1.00
H340   H     0.93533   0.35536   0.23839   0.00000  Uiso   1.00
H341   H     0.75292   0.34694   0.31009   0.00000  Uiso   1.00
H342   H     0.72439   0.33743   0.25998   0.00000  Uiso   1.00
H343   H     0.78308   0.37559   0.04088   0.00000  Uiso   1.00
H344   H     0.89770   0.58623   0.13892   0.00000  Uiso   1.00
H345   H     0.82746   0.60003   0.14321   0.00000  Uiso   1.00
H346   H     0.76638   0.41605   0.36246   0.00000  Uiso   1.00
H347   H     0.83618   0.40053   0.35638   0.00000  Uiso   1.00
H348   H     0.86081   0.65566   0.06315   0.00000  Uiso   1.00
H349   H     0.92811   0.63161   0.06016   0.00000  Uiso   1.00
H350   H     0.73928   0.36814   0.44057   0.00000  Uiso   1.00
N351   N     0.98344   0.48598   0.23783   0.00000  Uiso   1.00
N352   N     0.75825   0.66198   0.27849   0.00000  Uiso   1.00
N353   N     0.69485   0.41783   0.18537   0.00000  Uiso   1.00
N354   N     0.97213   0.58300   0.31390   0.00000  Uiso   1.00
N355   N     0.68322   0.51402   0.26217   0.00000  Uiso   1.00
N356   N     0.79720   0.36933   0.13732   0.00000  Uiso   1.00
N357   N     0.86989   0.63115   0.36266   0.00000  Uiso   1.00
N358   N     0.86268   0.59233   0.12073   0.00000  Uiso   1.00
N359   N     0.80193   0.40884   0.37964   0.00000  Uiso   1.00
N360   N     0.89299   0.63877   0.04247   0.00000  Uiso   1.00
N361   N     0.77504   0.36148   0.45770   0.00000  Uiso   1.00
N362   N     0.90809   0.33495   0.21724   0.00000  Uiso   1.00
O363   O     0.79642   0.57952   0.25298   0.00000  Uiso   1.00
O364   O     0.87025   0.42048   0.24701   0.00000  Uiso   1.00
O365   O     0.89280   0.57054   0.24518   0.00000  Uiso   1.00
O366   O     0.77387   0.42946   0.25481   0.00000  Uiso   1.00
O367   O     0.78514   0.50450   0.31997   0.00000  Uiso   1.00
O368   O     0.88153   0.49550   0.18002   0.00000  Uiso   1.00
O369   O     0.88152   0.49552   0.31217   0.00000  Uiso   1.00
O370   O     0.78515   0.50448   0.18782   0.00000  Uiso   1.00
Zn371  Zn    0.76898   0.50600   0.25521   0.00000  Uiso   1.00
Zn372  Zn    0.89769   0.49400   0.24479   0.00000  Uiso   1.00
C373   C     0.18156   0.93122   0.24860   0.00000  Uiso   1.00
C374   C     0.18261   0.87926   0.40670   0.00000  Uiso   1.00
C375   C     0.16609   0.83374   0.11630   0.00000  Uiso   1.00
C376   C     0.16742   0.83351   0.38379   0.00000  Uiso   1.00
C377   C     0.18250   0.87977   0.09448   0.00000  Uiso   1.00
C378   C     0.15068   0.78762   0.40572   0.00000  Uiso   1.00
C379   C     0.18476   0.88025   0.04733   0.00000  Uiso   1.00
C380   C     0.14911   0.78699   0.45281   0.00000  Uiso   1.00
C381   C     0.16719   0.83399   0.02359   0.00000  Uiso   1.00
C382   C     0.16696   0.83320   0.47649   0.00000  Uiso   1.00
C383   C     0.15002   0.78827   0.04687   0.00000  Uiso   1.00
C384   C     0.15179   0.73538   0.25058   0.00000  Uiso   1.00
C385   C     0.18419   0.87889   0.45319   0.00000  Uiso   1.00
C386   C     0.20400   0.92479   0.02271   0.00000  Uiso   1.00
C387   C     0.13023   0.74234   0.47742   0.00000  Uiso   1.00
C388   C     0.13965   0.74042   0.11786   0.00000  Uiso   1.00
C389   C     0.19427   0.92673   0.38216   0.00000  Uiso   1.00
C390   C     0.00833   0.78236   0.20937   0.00000  Uiso   1.00
C391   C     0.32516   0.88475   0.29024   0.00000  Uiso   1.00
C392   C     0.20306   0.92341   0.47662   0.00000  Uiso   1.00
C393   C     0.13136   0.74369   0.02345   0.00000  Uiso   1.00
C394   C     0.18879   0.98457   0.24222   0.00000  Uiso   1.00
C395   C     0.14466   0.68160   0.25561   0.00000  Uiso   1.00
C396   C     0.16703   0.83364   0.33615   0.00000  Uiso   1.00
C397   C     0.16638   0.83344   0.16388   0.00000  Uiso   1.00
C398   C     0.15143   0.78790   0.09335   0.00000  Uiso   1.00
H399   H     0.21822   0.95811   0.45916   0.00000  Uiso   1.00
H400   H     0.14054   0.67850   0.43656   0.00000  Uiso   1.00
H401   H     0.23302   0.68969   0.18978   0.00000  Uiso   1.00
H402   H     0.26866   0.68869   0.23839   0.00000  Uiso   1.00
H403   H     0.08626   0.68027   0.31009   0.00000  Uiso   1.00
H404   H     0.05772   0.67077   0.25998   0.00000  Uiso   1.00
H405   H     0.11642   0.70892   0.04088   0.00000  Uiso   1.00
H406   H     0.23103   0.91956   0.13892   0.00000  Uiso   1.00
H407   H     0.16079   0.93336   0.14321   0.00000  Uiso   1.00
H408   H     0.09971   0.74939   0.36246   0.00000  Uiso   1.00
H409   H     0.16951   0.73386   0.35638   0.00000  Uiso   1.00
H410   H     0.19414   0.98899   0.06315   0.00000  Uiso   1.00
H411   H     0.26144   0.96494   0.06016   0.00000  Uiso   1.00
H412   H     0.07261   0.70147   0.44057   0.00000  Uiso   1.00
N413   N     0.31678   0.81932   0.23783   0.00000  Uiso   1.00
N414   N     0.09158   0.99531   0.27849   0.00000  Uiso   1.00
N415   N     0.02819   0.75117   0.18537   0.00000  Uiso   1.00
N416   N     0.30546   0.91633   0.31390   0.00000  Uiso   1.00
N417   N     0.01656   0.84735   0.26217   0.00000  Uiso   1.00
N418   N     0.13053   0.70266   0.13732   0.00000  Uiso   1.00
N419   N     0.20323   0.96449   0.36266   0.00000  Uiso   1.00
N420   N     0.19602   0.92567   0.12073   0.00000  Uiso   1.00
N421   N     0.13526   0.74217   0.37964   0.00000  Uiso   1.00
N422   N     0.22633   0.97210   0.04247   0.00000  Uiso   1.00
N423   N     0.10838   0.69482   0.45770   0.00000  Uiso   1.00
N424   N     0.24142   0.66829   0.21724   0.00000  Uiso   1.00
O425   O     0.12975   0.91286   0.25298   0.00000  Uiso   1.00
O426   O     0.20358   0.75381   0.24701   0.00000  Uiso   1.00
O427   O     0.22613   0.90387   0.24518   0.00000  Uiso   1.00
O428   O     0.10720   0.76279   0.25481   0.00000  Uiso   1.00
O429   O     0.11847   0.83784   0.31997   0.00000  Uiso   1.00
O430   O     0.21486   0.82883   0.18002   0.00000  Uiso   1.00
O431   O     0.21485   0.82885   0.31217   0.00000  Uiso   1.00
O432   O     0.11848   0.83781   0.18782   0.00000  Uiso   1.00
Zn433  Zn    0.10231   0.83933   0.25521   0.00000  Uiso   1.00
Zn434  Zn    0.23102   0.82734   0.24479   0.00000  Uiso   1.00
C435   C     0.51489   0.93122   0.24860   0.00000  Uiso   1.00
C436   C     0.51594   0.87926   0.40670   0.00000  Uiso   1.00
C437   C     0.49943   0.83374   0.11630   0.00000  Uiso   1.00
C438   C     0.50075   0.83351   0.38379   0.00000  Uiso   1.00
C439   C     0.51583   0.87977   0.09448   0.00000  Uiso   1.00
C440   C     0.48401   0.78762   0.40572   0.00000  Uiso   1.00
C441   C     0.51810   0.88025   0.04733   0.00000  Uiso   1.00
C442   C     0.48244   0.78699   0.45281   0.00000  Uiso   1.00
C443   C     0.50052   0.83399   0.02359   0.00000  Uiso   1.00
C444   C     0.50029   0.83320   0.47649   0.00000  Uiso   1.00
C445   C     0.48335   0.78827   0.04687   0.00000  Uiso   1.00
C446   C     0.48512   0.73538   0.25058   0.00000  Uiso   1.00
C447   C     0.51752   0.87889   0.45319   0.00000  Uiso   1.00
C448   C     0.53733   0.92479   0.02271   0.00000  Uiso   1.00
C449   C     0.46357   0.74234   0.47742   0.00000  Uiso   1.00
C450   C     0.47299   0.74042   0.11786   0.00000  Uiso   1.00
C451   C     0.52760   0.92673   0.38216   0.00000  Uiso   1.00
C452   C     0.34167   0.78236   0.20937   0.00000  Uiso   1.00
C453   C     0.65849   0.88475   0.29024   0.00000  Uiso   1.00
C454   C     0.53639   0.92341   0.47662   0.00000  Uiso   1.00
C455   C     0.46469   0.74369   0.02345   0.00000  Uiso   1.00
C456   C     0.52212   0.98457   0.24222   0.00000  Uiso   1.00
C457   C     0.47799   0.68160   0.25561   0.00000  Uiso   1.00
C458   C     0.50037   0.83364   0.33615   0.00000  Uiso   1.00
C459   C     0.49971   0.83344   0.16388   0.00000  Uiso   1.00
C460   C     0.48477   0.78790   0.09335   0.00000  Uiso   1.00
H461   H     0.55155   0.95811   0.45916   0.00000  Uiso   1.00
H462   H     0.47387   0.67850   0.43656   0.00000  Uiso   1.00
H463   H     0.56635   0.68969   0.18978   0.00000  Uiso   1.00
H464   H     0.60199   0.68869   0.23839   0.00000  Uiso   1.00
H465   H     0.41959   0.68027   0.31009   0.00000  Uiso   1.00
H466   H     0.39105   0.67077   0.25998   0.00000  Uiso   1.00
H467   H     0.44975   0.70892   0.04088   0.00000  Uiso   1.00
H468   H     0.56437   0.91956   0.13892   0.00000  Uiso   1.00
H469   H     0.49413   0.93336   0.14321   0.00000  Uiso   1.00
H470   H     0.43304   0.74939   0.36246   0.00000  Uiso   1.00
H471   H     0.50284   0.73386   0.35638   0.00000  Uiso   1.00
H472   H     0.52747   0.98899   0.06315   0.00000  Uiso   1.00
H473   H     0.59477   0.96494   0.06016   0.00000  Uiso   1.00
H474   H     0.40595   0.70147   0.44057   0.00000  Uiso   1.00
N475   N     0.65011   0.81932   0.23783   0.00000  Uiso   1.00
N476   N     0.42492   0.99531   0.27849   0.00000  Uiso   1.00
N477   N     0.36152   0.75117   0.18537   0.00000  Uiso   1.00
N478   N     0.63879   0.91633   0.31390   0.00000  Uiso   1.00
N479   N     0.34989   0.84735   0.26217   0.00000  Uiso   1.00
N480   N     0.46386   0.70266   0.13732   0.00000  Uiso   1.00
N481   N     0.53656   0.96449   0.36266   0.00000  Uiso   1.00
N482   N     0.52935   0.92567   0.12073   0.00000  Uiso   1.00
N483   N     0.46859   0.74217   0.37964   0.00000  Uiso   1.00
N484   N     0.55966   0.97210   0.04247   0.00000  Uiso   1.00
N485   N     0.44171   0.69482   0.45770   0.00000  Uiso   1.00
N486   N     0.57475   0.66829   0.21724   0.00000  Uiso   1.00
O487   O     0.46308   0.91286   0.25298   0.00000  Uiso   1.00
O488   O     0.53692   0.75381   0.24701   0.00000  Uiso   1.00
O489   O     0.55946   0.90387   0.24518   0.00000  Uiso   1.00
O490   O     0.44054   0.76279   0.25481   0.00000  Uiso   1.00
O491   O     0.45181   0.83784   0.31997   0.00000  Uiso   1.00
O492   O     0.54819   0.82883   0.18002   0.00000  Uiso   1.00
O493   O     0.54819   0.82885   0.31217   0.00000  Uiso   1.00
O494   O     0.45181   0.83781   0.18782   0.00000  Uiso   1.00
Zn495  Zn    0.43565   0.83933   0.25521   0.00000  Uiso   1.00
Zn496  Zn    0.56435   0.82734   0.24479   0.00000  Uiso   1.00
C497   C     0.84822   0.93122   0.24860   0.00000  Uiso   1.00
C498   C     0.84927   0.87926   0.40670   0.00000  Uiso   1.00
C499   C     0.83276   0.83374   0.11630   0.00000  Uiso   1.00
C500   C     0.83409   0.83351   0.38379   0.00000  Uiso   1.00
C501   C     0.84916   0.87977   0.09448   0.00000  Uiso   1.00
C502   C     0.81735   0.78762   0.40572   0.00000  Uiso   1.00
C503   C     0.85143   0.88025   0.04733   0.00000  Uiso   1.00
C504   C     0.81577   0.78699   0.45281   0.00000  Uiso   1.00
C505   C     0.83385   0.83399   0.02359   0.00000  Uiso   1.00
C506   C     0.83362   0.83320   0.47649   0.00000  Uiso   1.00
C507   C     0.81668   0.78827   0.04687   0.00000  Uiso   1.00
C508   C     0.81845   0.73538   0.25058   0.00000  Uiso   1.00
C509   C     0.85086   0.87889   0.45319   0.00000  Uiso   1.00
C510   C     0.87066   0.92479   0.02271   0.00000  Uiso   1.00
C511   C     0.79690   0.74234   0.47742   0.00000  Uiso   1.00
C512   C     0.80632   0.74042   0.11786   0.00000  Uiso   1.00
C513   C     0.86094   0.92673   0.38216   0.00000  Uiso   1.00
C514   C     0.67500   0.78236   0.20937   0.00000  Uiso   1.00
C515   C     0.99183   0.88475   0.29024   0.00000  Uiso   1.00
C516   C     0.86973   0.92341   0.47662   0.00000  Uiso   1.00
C517   C     0.79802   0.74369   0.02345   0.00000  Uiso   1.00
C518   C     0.85545   0.98457   0.24222   0.00000  Uiso   1.00
C519   C     0.81132   0.68160   0.25561   0.00000  Uiso   1.00
C520   C     0.83370   0.83364   0.33615   0.00000  Uiso   1.00
C521   C     0.83305   0.83344   0.16388   0.00000  Uiso   1.00
C522   C     0.81810   0.78790   0.09335   0.00000  Uiso   1.00
H523   H     0.88489   0.95811   0.45916   0.00000  Uiso   1.00
H524   H     0.80721   0.67850   0.43656   0.00000  Uiso   1.00
H525   H     0.89968   0.68969   0.18978   0.00000  Uiso   1.00
H526   H     0.93533   0.68869   0.23839   0.00000  Uiso   1.00
H527   H     0.75292   0.68027   0.31009   0.00000  Uiso   1.00
H528   H     0.72439   0.67077   0.25998   0.00000  Uiso   1.00
H529   H     0.78308   0.70892   0.04088   0.00000  Uiso   1.00
H530   H     0.89770   0.91956   0.13892   0.00000  Uiso   1.00
H531   H     0.82746   0.93336   0.14321   0.00000  Uiso   1.00
H532   H     0.76638   0.74939   0.36246   0.00000  Uiso   1.00
H533   H     0.83618   0.73386   0.35638   0.00000  Uiso   1.00
H534   H     0.86081   0.98899   0.06315   0.00000  Uiso   1.00
H535   H     0.92811   0.96494   0.06016   0.00000  Uiso   1.00
H536   H     0.73928   0.70147   0.44057   0.00000  Uiso   1.00
N537   N     0.98344   0.81932   0.23783   0.00000  Uiso   1.00
N538   N     0.75825   0.99531   0.27849   0.00000  Uiso   1.00
N539   N     0.69485   0.75117   0.18537   0.00000  Uiso   1.00
N540   N     0.97213   0.91633   0.31390   0.00000  Uiso   1.00
N541   N     0.68322   0.84735   0.26217   0.00000  Uiso   1.00
N542   N     0.79720   0.70266   0.13732   0.00000  Uiso   1.00
N543   N     0.86989   0.96449   0.36266   0.00000  Uiso   1.00
N544   N     0.86268   0.92567   0.12073   0.00000  Uiso   1.00
N545   N     0.80193   0.74217   0.37964   0.00000  Uiso   1.00
N546   N     0.89299   0.97210   0.04247   0.00000  Uiso   1.00
N547   N     0.77504   0.69482   0.45770   0.00000  Uiso   1.00
N548   N     0.90809   0.66829   0.21724   0.00000  Uiso   1.00
O549   O     0.79642   0.91286   0.25298   0.00000  Uiso   1.00
O550   O     0.87025   0.75381   0.24701   0.00000  Uiso   1.00
O551   O     0.89280   0.90387   0.24518   0.00000  Uiso   1.00
O552   O     0.77387   0.76279   0.25481   0.00000  Uiso   1.00
O553   O     0.78514   0.83784   0.31997   0.00000  Uiso   1.00
O554   O     0.88153   0.82883   0.18002   0.00000  Uiso   1.00
O555   O     0.88152   0.82885   0.31217   0.00000  Uiso   1.00
O556   O     0.78515   0.83781   0.18782   0.00000  Uiso   1.00
Zn557  Zn    0.76898   0.83933   0.25521   0.00000  Uiso   1.00
Zn558  Zn    0.89769   0.82734   0.24479   0.00000  Uiso   1.00
C559   C     0.18156   0.26456   0.74860   0.00000  Uiso   1.00
C560   C     0.18261   0.21260   0.90670   0.00000  Uiso   1.00
C561   C     0.16609   0.16708   0.61630   0.00000  Uiso   1.00
C562   C     0.16742   0.16684   0.88379   0.00000  Uiso   1.00
C563   C     0.18250   0.21311   0.59448   0.00000  Uiso   1.00
C564   C     0.15068   0.12096   0.90572   0.00000  Uiso   1.00
C565   C     0.18476   0.21358   0.54733   0.00000  Uiso   1.00
C566   C     0.14911   0.12032   0.95281   0.00000  Uiso   1.00
C567   C     0.16719   0.16732   0.52359   0.00000  Uiso   1.00
C568   C     0.16696   0.16653   0.97649   0.00000  Uiso   1.00
C569   C     0.15002   0.12160   0.54687   0.00000  Uiso   1.00
C570   C     0.15179   0.06871   0.75058   0.00000  Uiso   1.00
C571   C     0.18419   0.21222   0.95319   0.00000  Uiso   1.00
C572   C     0.20400   0.25812   0.52271   0.00000  Uiso   1.00
C573   C     0.13023   0.07568   0.97742   0.00000  Uiso   1.00
C574   C     0.13965   0.07376   0.61786   0.00000  Uiso   1.00
C575   C     0.19427   0.26007   0.88216   0.00000  Uiso   1.00
C576   C     0.00833   0.11569   0.70937   0.00000  Uiso   1.00
C577   C     0.32516   0.21808   0.79024   0.00000  Uiso   1.00
C578   C     0.20306   0.25674   0.97662   0.00000  Uiso   1.00
C579   C     0.13136   0.07703   0.52345   0.00000  Uiso   1.00
C580   C     0.18879   0.31791   0.74222   0.00000  Uiso   1.00
C581   C     0.14466   0.01493   0.75561   0.00000  Uiso   1.00
C582   C     0.16703   0.16697   0.83615   0.00000  Uiso   1.00
C583   C     0.16638   0.16678   0.66388   0.00000  Uiso   1.00
C584   C     0.15143   0.12124   0.59335   0.00000  Uiso   1.00
H585   H     0.21822   0.29144   0.95916   0.00000  Uiso   1.00
H586   H     0.14054   0.01184   0.93656   0.00000  Uiso   1.00
H587   H     0.23302   0.02303   0.68978   0.00000  Uiso   1.00
H588   H     0.26866   0.02202   0.73839   0.00000  Uiso   1.00
H589   H     0.08626   0.01360   0.81009   0.00000  Uiso   1.00
H590   H     0.05772   0.00410   0.75998   0.00000  Uiso   1.00
H591   H     0.11642   0.04226   0.54088   0.00000  Uiso   1.00
H592   H     0.23103   0.25290   0.63892   0.00000  Uiso   1.00
H593   H     0.16079   0.26670   0.64321   0.00000  Uiso   1.00
H594   H     0.09971   0.08272   0.86246   0.00000  Uiso   1.00
H595   H     0.16951   0.06720   0.85638   0.00000  Uiso   1.00
H596   H     0.19414   0.32233   0.56315   0.00000  Uiso   1.00
H597   H     0.26144   0.29828   0.56016   0.00000  Uiso   1.00
H598   H     0.07261   0.03480   0.94057   0.00000  Uiso   1.00
N599   N     0.31678   0.15265   0.73783   0.00000  Uiso   1.00
N600   N     0.09158   0.32865   0.77849   0.00000  Uiso   1.00
N601   N     0.02819   0.08450   0.68537   0.00000  Uiso   1.00
N602   N     0.30546   0.24966   0.81390   0.00000  Uiso   1.00
N603   N     0.01656   0.18068   0.76217   0.00000  Uiso   1.00
N604   N     0.13053   0.03600   0.63732   0.00000  Uiso   1.00
N605   N     0.20323   0.29782   0.86266   0.00000  Uiso   1.00
N606   N     0.19602   0.25900   0.62073   0.00000  Uiso   1.00
N607   N     0.13526   0.07550   0.87964   0.00000  Uiso   1.00
N608   N     0.22633   0.30544   0.54247   0.00000  Uiso   1.00
N609   N     0.10838   0.02815   0.95770   0.00000  Uiso   1.00
N610   N     0.24142   0.00162   0.71724   0.00000  Uiso   1.00
O611   O     0.12975   0.24619   0.75298   0.00000  Uiso   1.00
O612   O     0.20358   0.08714   0.74701   0.00000  Uiso   1.00
O613   O     0.22613   0.23721   0.74518   0.00000  Uiso   1.00
O614   O     0.10720   0.09613   0.75481   0.00000  Uiso   1.00
O615   O     0.11847   0.17117   0.81997   0.00000  Uiso   1.00
O616   O     0.21486   0.16216   0.68002   0.00000  Uiso   1.00
O617   O     0.21485   0.16219   0.81217   0.00000  Uiso   1.00
O618   O     0.11848   0.17115   0.68782   0.00000  Uiso   1.00
Zn619  Zn    0.10231   0.17266   0.75521   0.00000  Uiso   1.00
Zn620  Zn    0.23102   0.16067   0.74479   0.00000  Uiso   1.00
C621   C     0.51489   0.26456   0.74860   0.00000  Uiso   1.00
C622   C     0.51594   0.21260   0.90670   0.00000  Uiso   1.00
C623   C     0.49943   0.16708   0.61630   0.00000  Uiso   1.00
C624   C     0.50075   0.16684   0.88379   0.00000  Uiso   1.00
C625   C     0.51583   0.21311   0.59448   0.00000  Uiso   1.00
C626   C     0.48401   0.12096   0.90572   0.00000  Uiso   1.00
C627   C     0.51810   0.21358   0.54733   0.00000  Uiso   1.00
C628   C     0.48244   0.12032   0.95281   0.00000  Uiso   1.00
C629   C     0.50052   0.16732   0.52359   0.00000  Uiso   1.00
C630   C     0.50029   0.16653   0.97649   0.00000  Uiso   1.00
C631   C     0.48335   0.12160   0.54687   0.00000  Uiso   1.00
C632   C     0.48512   0.06871   0.75058   0.00000  Uiso   1.00
C633   C     0.51752   0.21222   0.95319   0.00000  Uiso   1.00
C634   C     0.53733   0.25812   0.52271   0.00000  Uiso   1.00
C635   C     0.46357   0.07568   0.97742   0.00000  Uiso   1.00
C636   C     0.47299   0.07376   0.61786   0.00000  Uiso   1.00
C637   C     0.52760   0.26007   0.88216   0.00000  Uiso   1.00
C638   C     0.34167   0.11569   0.70937   0.00000  Uiso   1.00
C639   C     0.65849   0.21808   0.79024   0.00000  Uiso   1.00
C640   C     0.53639   0.25674   0.97662   0.00000  Uiso   1.00
C641   C     0.46469   0.07703   0.52345   0.00000  Uiso   1.00
C642   C     0.52212   0.31791   0.74222   0.00000  Uiso   1.00
C643   C     0.47799   0.01493   0.75561   0.00000  Uiso   1.00
C644   C     0.50037   0.16697   0.83615   0.00000  Uiso   1.00
C645   C     0.49971   0.16678   0.66388   0.00000  Uiso   1.00
C646   C     0.48477   0.12124   0.59335   0.00000  Uiso   1.00
H647   H     0.55155   0.29144   0.95916   0.00000  Uiso   1.00
H648   H     0.47387   0.01184   0.93656   0.00000  Uiso   1.00
H649   H     0.56635   0.02303   0.68978   0.00000  Uiso   1.00
H650   H     0.60199   0.02202   0.73839   0.00000  Uiso   1.00
H651   H     0.41959   0.01360   0.81009   0.00000  Uiso   1.00
H652   H     0.39105   0.00410   0.75998   0.00000  Uiso   1.00
H653   H     0.44975   0.04226   0.54088   0.00000  Uiso   1.00
H654   H     0.56437   0.25290   0.63892   0.00000  Uiso   1.00
H655   H     0.49413   0.26670   0.64321   0.00000  Uiso   1.00
H656   H     0.43304   0.08272   0.86246   0.00000  Uiso   1.00
H657   H     0.50284   0.06720   0.85638   0.00000  Uiso   1.00
H658   H     0.52747   0.32233   0.56315   0.00000  Uiso   1.00
H659   H     0.59477   0.29828   0.56016   0.00000  Uiso   1.00
H660   H     0.40595   0.03480   0.94057   0.00000  Uiso   1.00
N661   N     0.65011   0.15265   0.73783   0.00000  Uiso   1.00
N662   N     0.42492   0.32865   0.77849   0.00000  Uiso   1.00
N663   N     0.36152   0.08450   0.68537   0.00000  Uiso   1.00
N664   N     0.63879   0.24966   0.81390   0.00000  Uiso   1.00
N665   N     0.34989   0.18068   0.76217   0.00000  Uiso   1.00
N666   N     0.46386   0.03600   0.63732   0.00000  Uiso   1.00
N667   N     0.53656   0.29782   0.86266   0.00000  Uiso   1.00
N668   N     0.52935   0.25900   0.62073   0.00000  Uiso   1.00
N669   N     0.46859   0.07550   0.87964   0.00000  Uiso   1.00
N670   N     0.55966   0.30544   0.54247   0.00000  Uiso   1.00
N671   N     0.44171   0.02815   0.95770   0.00000  Uiso   1.00
N672   N     0.57475   0.00162   0.71724   0.00000  Uiso   1.00
O673   O     0.46308   0.24619   0.75298   0.00000  Uiso   1.00
O674   O     0.53692   0.08714   0.74701   0.00000  Uiso   1.00
O675   O     0.55946   0.23721   0.74518   0.00000  Uiso   1.00
O676   O     0.44054   0.09613   0.75481   0.00000  Uiso   1.00
O677   O     0.45181   0.17117   0.81997   0.00000  Uiso   1.00
O678   O     0.54819   0.16216   0.68002   0.00000  Uiso   1.00
O679   O     0.54819   0.16219   0.81217   0.00000  Uiso   1.00
O680   O     0.45181   0.17115   0.68782   0.00000  Uiso   1.00
Zn681  Zn    0.43565   0.17266   0.75521   0.00000  Uiso   1.00
Zn682  Zn    0.56435   0.16067   0.74479   0.00000  Uiso   1.00
C683   C     0.84822   0.26456   0.74860   0.00000  Uiso   1.00
C684   C     0.84927   0.21260   0.90670   0.00000  Uiso   1.00
C685   C     0.83276   0.16708   0.61630   0.00000  Uiso   1.00
C686   C     0.83409   0.16684   0.88379   0.00000  Uiso   1.00
C687   C     0.84916   0.21311   0.59448   0.00000  Uiso   1.00
C688   C     0.81735   0.12096   0.90572   0.00000  Uiso   1.00
C689   C     0.85143   0.21358   0.54733   0.00000  Uiso   1.00
C690   C     0.81577   0.12032   0.95281   0.00000  Uiso   1.00
C691   C     0.83385   0.16732   0.52359   0.00000  Uiso   1.00
C692   C     0.83362   0.16653   0.97649   0.00000  Uiso   1.00
C693   C     0.81668   0.12160   0.54687   0.00000  Uiso   1.00
C694   C     0.81845   0.06871   0.75058   0.00000  Uiso   1.00
C695   C     0.85086   0.21222   0.95319   0.00000  Uiso   1.00
C696   C     0.87066   0.25812   0.52271   0.00000  Uiso   1.00
C697   C     0.79690   0.07568   0.97742   0.00000  Uiso   1.00
C698   C     0.80632   0.07376   0.61786   0.00000  Uiso   1.00
C699   C     0.86094   0.26007   0.88216   0.00000  Uiso   1.00
C700   C     0.67500   0.11569   0.70937   0.00000  Uiso   1.00
C701   C     0.99183   0.21808   0.79024   0.00000  Uiso   1.00
C702   C     0.86973   0.25674   0.97662   0.00000  Uiso   1.00
C703   C     0.79802   0.07703   0.52345   0.00000  Uiso   1.00
C704   C     0.85545   0.31791   0.74222   0.00000  Uiso   1.00
C705   C     0.81132   0.01493   0.75561   0.00000  Uiso   1.00
C706   C     0.83370   0.16697   0.83615   0.00000  Uiso   1.00
C707   C     0.83305   0.16678   0.66388   0.00000  Uiso   1.00
C708   C     0.81810   0.12124   0.59335   0.00000  Uiso   1.00
H709   H     0.88489   0.29144   0.95916   0.00000  Uiso   1.00
H710   H     0.80721   0.01184   0.93656   0.00000  Uiso   1.00
H711   H     0.89968   0.02303   0.68978   0.00000  Uiso   1.00
H712   H     0.93533   0.02202   0.73839   0.00000  Uiso   1.00
H713   H     0.75292   0.01360   0.81009   0.00000  Uiso   1.00
H714   H     0.72439   0.00410   0.75998   0.00000  Uiso   1.00
H715   H     0.78308   0.04226   0.54088   0.00000  Uiso   1.00
H716   H     0.89770   0.25290   0.63892   0.00000  Uiso   1.00
H717   H     0.82746   0.26670   0.64321   0.00000  Uiso   1.00
H718   H     0.76638   0.08272   0.86246   0.00000  Uiso   1.00
H719   H     0.83618   0.06720   0.85638   0.00000  Uiso   1.00
H720   H     0.86081   0.32233   0.56315   0.00000  Uiso   1.00
H721   H     0.92811   0.29828   0.56016   0.00000  Uiso   1.00
H722   H     0.73928   0.03480   0.94057   0.00000  Uiso   1.00
N723   N     0.98344   0.15265   0.73783   0.00000  Uiso   1.00
N724   N     0.75825   0.32865   0.77849   0.00000  Uiso   1.00
N725   N     0.69485   0.08450   0.68537   0.00000  Uiso   1.00
N726   N     0.97213   0.24966   0.81390   0.00000  Uiso   1.00
N727   N     0.68322   0.18068   0.76217   0.00000  Uiso   1.00
N728   N     0.79720   0.03600   0.63732   0.00000  Uiso   1.00
N729   N     0.86989   0.29782   0.86266   0.00000  Uiso   1.00
N730   N     0.86268   0.25900   0.62073   0.00000  Uiso   1.00
N731   N     0.80193   0.07550   0.87964   0.00000  Uiso   1.00
N732   N     0.89299   0.30544   0.54247   0.00000  Uiso   1.00
N733   N     0.77504   0.02815   0.95770   0.00000  Uiso   1.00
N734   N     0.90809   0.00162   0.71724   0.00000  Uiso   1.00
O735   O     0.79642   0.24619   0.75298   0.00000  Uiso   1.00
O736   O     0.87025   0.08714   0.74701   0.00000  Uiso   1.00
O737   O     0.89280   0.23721   0.74518   0.00000  Uiso   1.00
O738   O     0.77387   0.09613   0.75481   0.00000  Uiso   1.00
O739   O     0.78514   0.17117   0.81997   0.00000  Uiso   1.00
O740   O     0.88153   0.16216   0.68002   0.00000  Uiso   1.00
O741   O     0.88152   0.16219   0.81217   0.00000  Uiso   1.00
O742   O     0.78515   0.17115   0.68782   0.00000  Uiso   1.00
Zn743  Zn    0.76898   0.17266   0.75521   0.00000  Uiso   1.00
Zn744  Zn    0.89769   0.16067   0.74479   0.00000  Uiso   1.00
C745   C     0.18156   0.59789   0.74860   0.00000  Uiso   1.00
C746   C     0.18261   0.54593   0.90670   0.00000  Uiso   1.00
C747   C     0.16609   0.50041   0.61630   0.00000  Uiso   1.00
C748   C     0.16742   0.50017   0.88379   0.00000  Uiso   1.00
C749   C     0.18250   0.54644   0.59448   0.00000  Uiso   1.00
C750   C     0.15068   0.45429   0.90572   0.00000  Uiso   1.00
C751   C     0.18476   0.54692   0.54733   0.00000  Uiso   1.00
C752   C     0.14911   0.45366   0.95281   0.00000  Uiso   1.00
C753   C     0.16719   0.50065   0.52359   0.00000  Uiso   1.00
C754   C     0.16696   0.49986   0.97649   0.00000  Uiso   1.00
C755   C     0.15002   0.45494   0.54687   0.00000  Uiso   1.00
C756   C     0.15179   0.40205   0.75058   0.00000  Uiso   1.00
C757   C     0.18419   0.54556   0.95319   0.00000  Uiso   1.00
C758   C     0.20400   0.59145   0.52271   0.00000  Uiso   1.00
C759   C     0.13023   0.40901   0.97742   0.00000  Uiso   1.00
C760   C     0.13965   0.40709   0.61786   0.00000  Uiso   1.00
C761   C     0.19427   0.59340   0.88216   0.00000  Uiso   1.00
C762   C     0.00833   0.44903   0.70937   0.00000  Uiso   1.00
C763   C     0.32516   0.55142   0.79024   0.00000  Uiso   1.00
C764   C     0.20306   0.59008   0.97662   0.00000  Uiso   1.00
C765   C     0.13136   0.41036   0.52345   0.00000  Uiso   1.00
C766   C     0.18879   0.65124   0.74222   0.00000  Uiso   1.00
C767   C     0.14466   0.34826   0.75561   0.00000  Uiso   1.00
C768   C     0.16703   0.50031   0.83615   0.00000  Uiso   1.00
C769   C     0.16638   0.50011   0.66388   0.00000  Uiso   1.00
C770   C     0.15143   0.45457   0.59335   0.00000  Uiso   1.00
H771   H     0.21822   0.62477   0.95916   0.00000  Uiso   1.00
H772   H     0.14054   0.34517   0.93656   0.00000  Uiso   1.00
H773   H     0.23302   0.35636   0.68978   0.00000  Uiso   1.00
H774   H     0.26866   0.35536   0.73839   0.00000  Uiso   1.00
H775   H     0.08626   0.34694   0.81009   0.00000  Uiso   1.00
H776   H     0.05772   0.33743   0.75998   0.00000  Uiso   1.00
H777   H     0.11642   0.37559   0.54088   0.00000  Uiso   1.00
H778   H     0.23103   0.58623   0.63892   0.00000  Uiso   1.00
H779   H     0.16079   0.60003   0.64321   0.00000  Uiso   1.00
H780   H     0.09971   0.41605   0.86246   0.00000  Uiso   1.00
H781   H     0.16951   0.40053   0.85638   0.00000  Uiso   1.00
H782   H     0.19414   0.65566   0.56315   0.00000  Uiso   1.00
H783   H     0.26144   0.63161   0.56016   0.00000  Uiso   1.00
H784   H     0.07261   0.36814   0.94057   0.00000  Uiso   1.00
N785   N     0.31678   0.48598   0.73783   0.00000  Uiso   1.00
N786   N     0.09158   0.66198   0.77849   0.00000  Uiso   1.00
N787   N     0.02819   0.41783   0.68537   0.00000  Uiso   1.00
N788   N     0.30546   0.58300   0.81390   0.00000  Uiso   1.00
N789   N     0.01656   0.51402   0.76217   0.00000  Uiso   1.00
N790   N     0.13053   0.36933   0.63732   0.00000  Uiso   1.00
N791   N     0.20323   0.63115   0.86266   0.00000  Uiso   1.00
N792   N     0.19602   0.59233   0.62073   0.00000  Uiso   1.00
N793   N     0.13526   0.40884   0.87964   0.00000  Uiso   1.00
N794   N     0.22633   0.63877   0.54247   0.00000  Uiso   1.00
N795   N     0.10838   0.36148   0.95770   0.00000  Uiso   1.00
N796   N     0.24142   0.33495   0.71724   0.00000  Uiso   1.00
O797   O     0.12975   0.57952   0.75298   0.00000  Uiso   1.00
O798   O     0.20358   0.42048   0.74701   0.00000  Uiso   1.00
O799   O     0.22613   0.57054   0.74518   0.00000  Uiso   1.00
O800   O     0.10720   0.42946   0.75481   0.00000  Uiso   1.00
O801   O     0.11847   0.50450   0.81997   0.00000  Uiso   1.00
O802   O     0.21486   0.49550   0.68002   0.00000  Uiso   1.00
O803   O     0.21485   0.49552   0.81217   0.00000  Uiso   1.00
O804   O     0.11848   0.50448   0.68782   0.00000  Uiso   1.00
Zn805  Zn    0.10231   0.50600   0.75521   0.00000  Uiso   1.00
Zn806  Zn    0.23102   0.49400   0.74479   0.00000  Uiso   1.00
C807   C     0.51489   0.59789   0.74860   0.00000  Uiso   1.00
C808   C     0.51594   0.54593   0.90670   0.00000  Uiso   1.00
C809   C     0.49943   0.50041   0.61630   0.00000  Uiso   1.00
C810   C     0.50075   0.50017   0.88379   0.00000  Uiso   1.00
C811   C     0.51583   0.54644   0.59448   0.00000  Uiso   1.00
C812   C     0.48401   0.45429   0.90572   0.00000  Uiso   1.00
C813   C     0.51810   0.54692   0.54733   0.00000  Uiso   1.00
C814   C     0.48244   0.45366   0.95281   0.00000  Uiso   1.00
C815   C     0.50052   0.50065   0.52359   0.00000  Uiso   1.00
C816   C     0.50029   0.49986   0.97649   0.00000  Uiso   1.00
C817   C     0.48335   0.45494   0.54687   0.00000  Uiso   1.00
C818   C     0.48512   0.40205   0.75058   0.00000  Uiso   1.00
C819   C     0.51752   0.54556   0.95319   0.00000  Uiso   1.00
C820   C     0.53733   0.59145   0.52271   0.00000  Uiso   1.00
C821   C     0.46357   0.40901   0.97742   0.00000  Uiso   1.00
C822   C     0.47299   0.40709   0.61786   0.00000  Uiso   1.00
C823   C     0.52760   0.59340   0.88216   0.00000  Uiso   1.00
C824   C     0.34167   0.44903   0.70937   0.00000  Uiso   1.00
C825   C     0.65849   0.55142   0.79024   0.00000  Uiso   1.00
C826   C     0.53639   0.59008   0.97662   0.00000  Uiso   1.00
C827   C     0.46469   0.41036   0.52345   0.00000  Uiso   1.00
C828   C     0.52212   0.65124   0.74222   0.00000  Uiso   1.00
C829   C     0.47799   0.34826   0.75561   0.00000  Uiso   1.00
C830   C     0.50037   0.50031   0.83615   0.00000  Uiso   1.00
C831   C     0.49971   0.50011   0.66388   0.00000  Uiso   1.00
C832   C     0.48477   0.45457   0.59335   0.00000  Uiso   1.00
H833   H     0.55155   0.62477   0.95916   0.00000  Uiso   1.00
H834   H     0.47387   0.34517   0.93656   0.00000  Uiso   1.00
H835   H     0.56635   0.35636   0.68978   0.00000  Uiso   1.00
H836   H     0.60199   0.35536   0.73839   0.00000  Uiso   1.00
H837   H     0.41959   0.34694   0.81009   0.00000  Uiso   1.00
H838   H     0.39105   0.33743   0.75998   0.00000  Uiso   1.00
H839   H     0.44975   0.37559   0.54088   0.00000  Uiso   1.00
H840   H     0.56437   0.58623   0.63892   0.00000  Uiso   1.00
H841   H     0.49413   0.60003   0.64321   0.00000  Uiso   1.00
H842   H     0.43304   0.41605   0.86246   0.00000  Uiso   1.00
H843   H     0.50284   0.40053   0.85638   0.00000  Uiso   1.00
H844   H     0.52747   0.65566   0.56315   0.00000  Uiso   1.00
H845   H     0.59477   0.63161   0.56016   0.00000  Uiso   1.00
H846   H     0.40595   0.36814   0.94057   0.00000  Uiso   1.00
N847   N     0.65011   0.48598   0.73783   0.00000  Uiso   1.00
N848   N     0.42492   0.66198   0.77849   0.00000  Uiso   1.00
N849   N     0.36152   0.41783   0.68537   0.00000  Uiso   1.00
N850   N     0.63879   0.58300   0.81390   0.00000  Uiso   1.00
N851   N     0.34989   0.51402   0.76217   0.00000  Uiso   1.00
N852   N     0.46386   0.36933   0.63732   0.00000  Uiso   1.00
N853   N     0.53656   0.63115   0.86266   0.00000  Uiso   1.00
N854   N     0.52935   0.59233   0.62073   0.00000  Uiso   1.00
N855   N     0.46859   0.40884   0.87964   0.00000  Uiso   1.00
N856   N     0.55966   0.63877   0.54247   0.00000  Uiso   1.00
N857   N     0.44171   0.36148   0.95770   0.00000  Uiso   1.00
N858   N     0.57475   0.33495   0.71724   0.00000  Uiso   1.00
O859   O     0.46308   0.57952   0.75298   0.00000  Uiso   1.00
O860   O     0.53692   0.42048   0.74701   0.00000  Uiso   1.00
O861   O     0.55946   0.57054   0.74518   0.00000  Uiso   1.00
O862   O     0.44054   0.42946   0.75481   0.00000  Uiso   1.00
O863   O     0.45181   0.50450   0.81997   0.00000  Uiso   1.00
O864   O     0.54819   0.49550   0.68002   0.00000  Uiso   1.00
O865   O     0.54819   0.49552   0.81217   0.00000  Uiso   1.00
O866   O     0.45181   0.50448   0.68782   0.00000  Uiso   1.00
Zn867  Zn    0.43565   0.50600   0.75521   0.00000  Uiso   1.00
Zn868  Zn    0.56435   0.49400   0.74479   0.00000  Uiso   1.00
C869   C     0.84822   0.59789   0.74860   0.00000  Uiso   1.00
C870   C     0.84927   0.54593   0.90670   0.00000  Uiso   1.00
C871   C     0.83276   0.50041   0.61630   0.00000  Uiso   1.00
C872   C     0.83409   0.50017   0.88379   0.00000  Uiso   1.00
C873   C     0.84916   0.54644   0.59448   0.00000  Uiso   1.00
C874   C     0.81735   0.45429   0.90572   0.00000  Uiso   1.00
C875   C     0.85143   0.54692   0.54733   0.00000  Uiso   1.00
C876   C     0.81577   0.45366   0.95281   0.00000  Uiso   1.00
C877   C     0.83385   0.50065   0.52359   0.00000  Uiso   1.00
C878   C     0.83362   0.49986   0.97649   0.00000  Uiso   1.00
C879   C     0.81668   0.45494   0.54687   0.00000  Uiso   1.00
C880   C     0.81845   0.40205   0.75058   0.00000  Uiso   1.00
C881   C     0.85086   0.54556   0.95319   0.00000  Uiso   1.00
C882   C     0.87066   0.59145   0.52271   0.00000  Uiso   1.00
C883   C     0.79690   0.40901   0.97742   0.00000  Uiso   1.00
C884   C     0.80632   0.40709   0.61786   0.00000  Uiso   1.00
C885   C     0.86094   0.59340   0.88216   0.00000  Uiso   1.00
C886   C     0.67500   0.44903   0.70937   0.00000  Uiso   1.00
C887   C     0.99183   0.55142   0.79024   0.00000  Uiso   1.00
C888   C     0.86973   0.59008   0.97662   0.00000  Uiso   1.00
C889   C     0.79802   0.41036   0.52345   0.00000  Uiso   1.00
C890   C     0.85545   0.65124   0.74222   0.00000  Uiso   1.00
C891   C     0.81132   0.34826   0.75561   0.00000  Uiso   1.00
C892   C     0.83370   0.50031   0.83615   0.00000  Uiso   1.00
C893   C     0.83305   0.50011   0.66388   0.00000  Uiso   1.00
C894   C     0.81810   0.45457   0.59335   0.00000  Uiso   1.00
H895   H     0.88489   0.62477   0.95916   0.00000  Uiso   1.00
H896   H     0.80721   0.34517   0.93656   0.00000  Uiso   1.00
H897   H     0.89968   0.35636   0.68978   0.00000  Uiso   1.00
H898   H     0.93533   0.35536   0.73839   0.00000  Uiso   1.00
H899   H     0.75292   0.34694   0.81009   0.00000  Uiso   1.00
H900   H     0.72439   0.33743   0.75998   0.00000  Uiso   1.00
H901   H     0.78308   0.37559   0.54088   0.00000  Uiso   1.00
H902   H     0.89770   0.58623   0.63892   0.00000  Uiso   1.00
H903   H     0.82746   0.60003   0.64321   0.00000  Uiso   1.00
H904   H     0.76638   0.41605   0.86246   0.00000  Uiso   1.00
H905   H     0.83618   0.40053   0.85638   0.00000  Uiso   1.00
H906   H     0.86081   0.65566   0.56315   0.00000  Uiso   1.00
H907   H     0.92811   0.63161   0.56016   0.00000  Uiso   1.00
H908   H     0.73928   0.36814   0.94057   0.00000  Uiso   1.00
N909   N     0.98344   0.48598   0.73783   0.00000  Uiso   1.00
N910   N     0.75825   0.66198   0.77849   0.00000  Uiso   1.00
N911   N     0.69485   0.41783   0.68537   0.00000  Uiso   1.00
N912   N     0.97213   0.58300   0.81390   0.00000  Uiso   1.00
N913   N     0.68322   0.51402   0.76217   0.00000  Uiso   1.00
N914   N     0.79720   0.36933   0.63732   0.00000  Uiso   1.00
N915   N     0.86989   0.63115   0.86266   0.00000  Uiso   1.00
N916   N     0.86268   0.59233   0.62073   0.00000  Uiso   1.00
N917   N     0.80193   0.40884   0.87964   0.00000  Uiso   1.00
N918   N     0.89299   0.63877   0.54247   0.00000  Uiso   1.00
N919   N     0.77504   0.36148   0.95770   0.00000  Uiso   1.00
N920   N     0.90809   0.33495   0.71724   0.00000  Uiso   1.00
O921   O     0.79642   0.57952   0.75298   0.00000  Uiso   1.00
O922   O     0.87025   0.42048   0.74701   0.00000  Uiso   1.00
O923   O     0.89280   0.57054   0.74518   0.00000  Uiso   1.00
O924   O     0.77387   0.42946   0.75481   0.00000  Uiso   1.00
O925   O     0.78514   0.50450   0.81997   0.00000  Uiso   1.00
O926   O     0.88153   0.49550   0.68002   0.00000  Uiso   1.00
O927   O     0.88152   0.49552   0.81217   0.00000  Uiso   1.00
O928   O     0.78515   0.50448   0.68782   0.00000  Uiso   1.00
Zn929  Zn    0.76898   0.50600   0.75521   0.00000  Uiso   1.00
Zn930  Zn    0.89769   0.49400   0.74479   0.00000  Uiso   1.00
C931   C     0.18156   0.93122   0.74860   0.00000  Uiso   1.00
C932   C     0.18261   0.87926   0.90670   0.00000  Uiso   1.00
C933   C     0.16609   0.83374   0.61630   0.00000  Uiso   1.00
C934   C     0.16742   0.83351   0.88379   0.00000  Uiso   1.00
C935   C     0.18250   0.87977   0.59448   0.00000  Uiso   1.00
C936   C     0.15068   0.78762   0.90572   0.00000  Uiso   1.00
C937   C     0.18476   0.88025   0.54733   0.00000  Uiso   1.00
C938   C     0.14911   0.78699   0.95281   0.00000  Uiso   1.00
C939   C     0.16719   0.83399   0.52359   0.00000  Uiso   1.00
C940   C     0.16696   0.83320   0.97649   0.00000  Uiso   1.00
C941   C     0.15002   0.78827   0.54687   0.00000  Uiso   1.00
C942   C     0.15179   0.73538   0.75058   0.00000  Uiso   1.00
C943   C     0.18419   0.87889   0.95319   0.00000  Uiso   1.00
C944   C     0.20400   0.92479   0.52271   0.00000  Uiso   1.00
C945   C     0.13023   0.74234   0.97742   0.00000  Uiso   1.00
C946   C     0.13965   0.74042   0.61786   0.00000  Uiso   1.00
C947   C     0.19427   0.92673   0.88216   0.00000  Uiso   1.00
C948   C     0.00833   0.78236   0.70937   0.00000  Uiso   1.00
C949   C     0.32516   0.88475   0.79024   0.00000  Uiso   1.00
C950   C     0.20306   0.92341   0.97662   0.00000  Uiso   1.00
C951   C     0.13136   0.74369   0.52345   0.00000  Uiso   1.00
C952   C     0.18879   0.98457   0.74222   0.00000  Uiso   1.00
C953   C     0.14466   0.68160   0.75561   0.00000  Uiso   1.00
C954   C     0.16703   0.83364   0.83615   0.00000  Uiso   1.00
C955   C     0.16638   0.83344   0.66388   0.00000  Uiso   1.00
C956   C     0.15143   0.78790   0.59335   0.00000  Uiso   1.00
H957   H     0.21822   0.95811   0.95916   0.00000  Uiso   1.00
H958   H     0.14054   0.67850   0.93656   0.00000  Uiso   1.00
H959   H     0.23302   0.68969   0.68978   0.00000  Uiso   1.00
H960   H     0.26866   0.68869   0.73839   0.00000  Uiso   1.00
H961   H     0.08626   0.68027   0.81009   0.00000  Uiso   1.00
H962   H     0.05772   0.67077   0.75998   0.00000  Uiso   1.00
H963   H     0.11642   0.70892   0.54088   0.00000  Uiso   1.00
H964   H     0.23103   0.91956   0.63892   0.00000  Uiso   1.00
H965   H     0.16079   0.93336   0.64321   0.00000  Uiso   1.00
H966   H     0.09971   0.74939   0.86246   0.00000  Uiso   1.00
H967   H     0.16951   0.73386   0.85638   0.00000  Uiso   1.00
H968   H     0.19414   0.98899   0.56315   0.00000  Uiso   1.00
H969   H     0.26144   0.96494   0.56016   0.00000  Uiso   1.00
H970   H     0.07261   0.70147   0.94057   0.00000  Uiso   1.00
N971   N     0.31678   0.81932   0.73783   0.00000  Uiso   1.00
N972   N     0.09158   0.99531   0.77849   0.00000  Uiso   1.00
N973   N     0.02819   0.75117   0.68537   0.00000  Uiso   1.00
N974   N     0.30546   0.91633   0.81390   0.00000  Uiso   1.00
N975   N     0.01656   0.84735   0.76217   0.00000  Uiso   1.00
N976   N     0.13053   0.70266   0.63732   0.00000  Uiso   1.00
N977   N     0.20323   0.96449   0.86266   0.00000  Uiso   1.00
N978   N     0.19602   0.92567   0.62073   0.00000  Uiso   1.00
N979   N     0.13526   0.74217   0.87964   0.00000  Uiso   1.00
N980   N     0.22633   0.97210   0.54247   0.00000  Uiso   1.00
N981   N     0.10838   0.69482   0.95770   0.00000  Uiso   1.00
N982   N     0.24142   0.66829   0.71724   0.00000  Uiso   1.00
O983   O     0.12975   0.91286   0.75298   0.00000  Uiso   1.00
O984   O     0.20358   0.75381   0.74701   0.00000  Uiso   1.00
O985   O     0.22613   0.90387   0.74518   0.00000  Uiso   1.00
O986   O     0.10720   0.76279   0.75481   0.00000  Uiso   1.00
O987   O     0.11847   0.83784   0.81997   0.00000  Uiso   1.00
O988   O     0.21486   0.82883   0.68002   0.00000  Uiso   1.00
O989   O     0.21485   0.82885   0.81217   0.00000  Uiso   1.00
O990   O     0.11848   0.83781   0.68782   0.00000  Uiso   1.00
Zn991  Zn    0.10231   0.83933   0.75521   0.00000  Uiso   1.00
Zn992  Zn    0.23102   0.82734   0.74479   0.00000  Uiso   1.00
C993   C     0.51489   0.93122   0.74860   0.00000  Uiso   1.00
C994   C     0.51594   0.87926   0.90670   0.00000  Uiso   1.00
C995   C     0.49943   0.83374   0.61630   0.00000  Uiso   1.00
C996   C     0.50075   0.83351   0.88379   0.00000  Uiso   1.00
C997   C     0.51583   0.87977   0.59448   0.00000  Uiso   1.00
C998   C     0.48401   0.78762   0.90572   0.00000  Uiso   1.00
C999   C     0.51810   0.88025   0.54733   0.00000  Uiso   1.00
C1000  C     0.48244   0.78699   0.95281   0.00000  Uiso   1.00
C1001  C     0.50052   0.83399   0.52359   0.00000  Uiso   1.00
C1002  C     0.50029   0.83320   0.97649   0.00000  Uiso   1.00
C1003  C     0.48335   0.78827   0.54687   0.00000  Uiso   1.00
C1004  C     0.48512   0.73538   0.75058   0.00000  Uiso   1.00
C1005  C     0.51752   0.87889   0.95319   0.00000  Uiso   1.00
C1006  C     0.53733   0.92479   0.52271   0.00000  Uiso   1.00
C1007  C     0.46357   0.74234   0.97742   0.00000  Uiso   1.00
C1008  C     0.47299   0.74042   0.61786   0.00000  Uiso   1.00
C1009  C     0.52760   0.92673   0.88216   0.00000  Uiso   1.00
C1010  C     0.34167   0.78236   0.70937   0.00000  Uiso   1.00
C1011  C     0.65849   0.88475   0.79024   0.00000  Uiso   1.00
C1012  C     0.53639   0.92341   0.97662   0.00000  Uiso   1.00
C1013  C     0.46469   0.74369   0.52345   0.00000  Uiso   1.00
C1014  C     0.52212   0.98457   0.74222   0.00000  Uiso   1.00
C1015  C     0.47799   0.68160   0.75561   0.00000  Uiso   1.00
C1016  C     0.50037   0.83364   0.83615   0.00000  Uiso   1.00
C1017  C     0.49971   0.83344   0.66388   0.00000  Uiso   1.00
C1018  C     0.48477   0.78790   0.59335   0.00000  Uiso   1.00
H1019  H     0.55155   0.95811   0.95916   0.00000  Uiso   1.00
H1020  H     0.47387   0.67850   0.93656   0.00000  Uiso   1.00
H1021  H     0.56635   0.68969   0.68978   0.00000  Uiso   1.00
H1022  H     0.60199   0.68869   0.73839   0.00000  Uiso   1.00
H1023  H     0.41959   0.68027   0.81009   0.00000  Uiso   1.00
H1024  H     0.39105   0.67077   0.75998   0.00000  Uiso   1.00
H1025  H     0.44975   0.70892   0.54088   0.00000  Uiso   1.00
H1026  H     0.56437   0.91956   0.63892   0.00000  Uiso   1.00
H1027  H     0.49413   0.93336   0.64321   0.00000  Uiso   1.00
H1028  H     0.43304   0.74939   0.86246   0.00000  Uiso   1.00
H1029  H     0.50284   0.73386   0.85638   0.00000  Uiso   1.00
H1030  H     0.52747   0.98899   0.56315   0.00000  Uiso   1.00
H1031  H     0.59477   0.96494   0.56016   0.00000  Uiso   1.00
H1032  H     0.40595   0.70147   0.94057   0.00000  Uiso   1.00
N1033  N     0.65011   0.81932   0.73783   0.00000  Uiso   1.00
N1034  N     0.42492   0.99531   0.77849   0.00000  Uiso   1.00
N1035  N     0.36152   0.75117   0.68537   0.00000  Uiso   1.00
N1036  N     0.63879   0.91633   0.81390   0.00000  Uiso   1.00
N1037  N     0.34989   0.84735   0.76217   0.00000  Uiso   1.00
N1038  N     0.46386   0.70266   0.63732   0.00000  Uiso   1.00
N1039  N     0.53656   0.96449   0.86266   0.00000  Uiso   1.00
N1040  N     0.52935   0.92567   0.62073   0.00000  Uiso   1.00
N1041  N     0.46859   0.74217   0.87964   0.00000  Uiso   1.00
N1042  N     0.55966   0.97210   0.54247   0.00000  Uiso   1.00
N1043  N     0.44171   0.69482   0.95770   0.00000  Uiso   1.00
N1044  N     0.57475   0.66829   0.71724   0.00000  Uiso   1.00
O1045  O     0.46308   0.91286   0.75298   0.00000  Uiso   1.00
O1046  O     0.53692   0.75381   0.74701   0.00000  Uiso   1.00
O1047  O     0.55946   0.90387   0.74518   0.00000  Uiso   1.00
O1048  O     0.44054   0.76279   0.75481   0.00000  Uiso   1.00
O1049  O     0.45181   0.83784   0.81997   0.00000  Uiso   1.00
O1050  O     0.54819   0.82883   0.68002   0.00000  Uiso   1.00
O1051  O     0.54819   0.82885   0.81217   0.00000  Uiso   1.00
O1052  O     0.45181   0.83781   0.68782   0.00000  Uiso   1.00
Zn1053 Zn    0.43565   0.83933   0.75521   0.00000  Uiso   1.00
Zn1054 Zn    0.56435   0.82734   0.74479   0.00000  Uiso   1.00
C1055  C     0.84822   0.93122   0.74860   0.00000  Uiso   1.00
C1056  C     0.84927   0.87926   0.90670   0.00000  Uiso   1.00
C1057  C     0.83276   0.83374   0.61630   0.00000  Uiso   1.00
C1058  C     0.83409   0.83351   0.88379   0.00000  Uiso   1.00
C1059  C     0.84916   0.87977   0.59448   0.00000  Uiso   1.00
C1060  C     0.81735   0.78762   0.90572   0.00000  Uiso   1.00
C1061  C     0.85143   0.88025   0.54733   0.00000  Uiso   1.00
C1062  C     0.81577   0.78699   0.95281   0.00000  Uiso   1.00
C1063  C     0.83385   0.83399   0.52359   0.00000  Uiso   1.00
C1064  C     0.83362   0.83320   0.97649   0.00000  Uiso   1.00
C1065  C     0.81668   0.78827   0.54687   0.00000  Uiso   1.00
C1066  C     0.81845   0.73538   0.75058   0.00000  Uiso   1.00
C1067  C     0.85086   0.87889   0.95319   0.00000  Uiso   1.00
C1068  C     0.87066   0.92479   0.52271   0.00000  Uiso   1.00
C1069  C     0.79690   0.74234   0.97742   0.00000  Uiso   1.00
C1070  C     0.80632   0.74042   0.61786   0.00000  Uiso   1.00
C1071  C     0.86094   0.92673   0.88216   0.00000  Uiso   1.00
C1072  C     0.67500   0.78236   0.70937   0.00000  Uiso   1.00
C1073  C     0.99183   0.88475   0.79024   0.00000  Uiso   1.00
C1074  C     0.86973   0.92341   0.97662   0.00000  Uiso   1.00
C1075  C     0.79802   0.74369   0.52345   0.00000  Uiso   1.00
C1076  C     0.85545   0.98457   0.74222   0.00000  Uiso   1.00
C1077  C     0.81132   0.68160   0.75561   0.00000  Uiso   1.00
C1078  C     0.83370   0.83364   0.83615   0.00000  Uiso   1.00
C1079  C     0.83305   0.83344   0.66388   0.00000  Uiso   1.00
C1080  C     0.81810   0.78790   0.59335   0.00000  Uiso   1.00
H1081  H     0.88489   0.95811   0.95916   0.00000  Uiso   1.00
H1082  H     0.80721   0.67850   0.93656   0.00000  Uiso   1.00
H1083  H     0.89968   0.68969   0.68978   0.00000  Uiso   1.00
H1084  H     0.93533   0.68869   0.73839   0.00000  Uiso   1.00
H1085  H     0.75292   0.68027   0.81009   0.00000  Uiso   1.00
H1086  H     0.72439   0.67077   0.75998   0.00000  Uiso   1.00
H1087  H     0.78308   0.70892   0.54088   0.00000  Uiso   1.00
H1088  H     0.89770   0.91956   0.63892   0.00000  Uiso   1.00
H1089  H     0.82746   0.93336   0.64321   0.00000  Uiso   1.00
H1090  H     0.76638   0.74939   0.86246   0.00000  Uiso   1.00
H1091  H     0.83618   0.73386   0.85638   0.00000  Uiso   1.00
H1092  H     0.86081   0.98899   0.56315   0.00000  Uiso   1.00
H1093  H     0.92811   0.96494   0.56016   0.00000  Uiso   1.00
H1094  H     0.73928   0.70147   0.94057   0.00000  Uiso   1.00
N1095  N     0.98344   0.81932   0.73783   0.00000  Uiso   1.00
N1096  N     0.75825   0.99531   0.77849   0.00000  Uiso   1.00
N1097  N     0.69485   0.75117   0.68537   0.00000  Uiso   1.00
N1098  N     0.97213   0.91633   0.81390   0.00000  Uiso   1.00
N1099  N     0.68322   0.84735   0.76217   0.00000  Uiso   1.00
N1100  N     0.79720   0.70266   0.63732   0.00000  Uiso   1.00
N1101  N     0.86989   0.96449   0.86266   0.00000  Uiso   1.00
N1102  N     0.86268   0.92567   0.62073   0.00000  Uiso   1.00
N1103  N     0.80193   0.74217   0.87964   0.00000  Uiso   1.00
N1104  N     0.89299   0.97210   0.54247   0.00000  Uiso   1.00
N1105  N     0.77504   0.69482   0.95770   0.00000  Uiso   1.00
N1106  N     0.90809   0.66829   0.71724   0.00000  Uiso   1.00
O1107  O     0.79642   0.91286   0.75298   0.00000  Uiso   1.00
O1108  O     0.87025   0.75381   0.74701   0.00000  Uiso   1.00
O1109  O     0.89280   0.90387   0.74518   0.00000  Uiso   1.00
O1110  O     0.77387   0.76279   0.75481   0.00000  Uiso   1.00
O1111  O     0.78514   0.83784   0.81997   0.00000  Uiso   1.00
O1112  O     0.88153   0.82883   0.68002   0.00000  Uiso   1.00
O1113  O     0.88152   0.82885   0.81217   0.00000  Uiso   1.00
O1114  O     0.78515   0.83781   0.68782   0.00000  Uiso   1.00
Zn1115 Zn    0.76898   0.83933   0.75521   0.00000  Uiso   1.00
Zn1116 Zn    0.89769   0.82734   0.74479   0.00000  Uiso   1.00
loop_
_geom_bond_atom_site_label_1
_geom_bond_atom_site_label_2
_geom_bond_distance
_geom_bond_site_symmetry_2
_ccdc_geom_bond_type
C1     O55     1.295   .     A
C1     C22     1.403   .     S
C1     O53     1.277   .     A
C2     C4      1.393   .     A
C2     C17     1.456   .     S
C2     C13     1.394   .     A
C3     C26     1.392   .     A
C3     C25     1.424   .     S
C3     C5      1.400   .     A
C4     C24     1.425   .     S
C4     C6      1.399   .     A
C5     C7      1.407   .     A
C5     N48     1.437   .     S
C6     N49     1.436   .     S
C6     C8      1.406   .     A
C7     C9      1.430   .     A
C7     C14     1.422   .     A
C8     C15     1.423   .     A
C8     C10     1.430   .     A
C9     C11     1.417   .     A
C9     C568    1.408   1_554 S
C10    C13     1.417   .     A
C10    C567    1.408   .     S
C11    C26     1.393   .     A
C11    C21     1.398   .     A
C12    C23     1.408   .     S
C12    O56     1.296   .     A
C12    O54     1.277   .     A
C13    C20     1.398   .     A
C14    N50     1.434   .     S
C14    C578    1.379   1_554 S
C15    N51     1.434   .     S
C15    C579    1.378   .     S
C16    C26     1.456   .     S
C16    N46     1.157   .     T
C17    N47     1.157   .     T
C18    N43     1.156   .     T
C18    N165    1.383   1_455 S
C19    N44     1.156   .     T
C19    N107    1.383   .     S
C20    H27     1.083   .     S
C20    C572    1.379   .     S
C21    H33     1.083   .     S
C21    C573    1.378   1_554 S
C22    C209    1.364   .     S
C22    N238    1.443   .     S
C23    C394    1.364   1_545 S
C23    N414    1.444   1_545 S
C24    O59     1.291   .     A
C24    O57     1.287   .     A
C25    O60     1.290   .     A
C25    O58     1.286   .     A
H28    N51     1.044   .     S
H29    N52     1.046   .     S
H30    N52     1.045   .     S
H31    N414    1.044   1_545 S
H32    N414    1.046   1_545 S
H34    N48     1.045   .     S
H35    N48     1.046   .     S
H36    N49     1.045   .     S
H37    N49     1.046   .     S
H38    N50     1.043   .     S
H39    N50     1.045   .     S
H40    N51     1.045   .     S
N41    Zn62    2.029   .     S
N41    C80     1.383   .     S
N41    N107    1.285   .     S
N42    H218    1.046   .     S
N42    C209    1.444   .     S
N42    H217    1.044   .     S
N45    Zn61    2.029   .     S
N45    N165    1.285   1_455 S
N45    C143    1.383   1_455 S
N52    C394    1.443   1_545 S
O53    Zn61    1.979   .     S
O54    Zn62    1.979   .     S
O55    Zn62    1.997   .     S
O56    Zn61    1.997   .     S
O57    Zn61    2.006   .     S
O58    Zn62    2.006   .     S
O59    Zn62    2.018   .     S
O60    Zn61    2.018   .     S
C63    O117    1.295   .     A
C63    C84     1.403   .     S
C63    O115    1.277   .     A
C64    C66     1.393   .     A
C64    C79     1.456   .     S
C64    C75     1.394   .     A
C65    C88     1.392   .     A
C65    C87     1.424   .     S
C65    C67     1.400   .     A
C66    C86     1.425   .     S
C66    C68     1.399   .     A
C67    C69     1.407   .     A
C67    N110    1.437   .     S
C68    N111    1.436   .     S
C68    C70     1.406   .     A
C69    C71     1.430   .     A
C69    C76     1.422   .     A
C70    C77     1.423   .     A
C70    C72     1.430   .     A
C71    C73     1.417   .     A
C71    C630    1.408   1_554 S
C72    C75     1.417   .     A
C72    C629    1.408   .     S
C73    C88     1.393   .     A
C73    C83     1.398   .     A
C74    C85     1.408   .     S
C74    O118    1.296   .     A
C74    O116    1.277   .     A
C75    C82     1.398   .     A
C76    N112    1.434   .     S
C76    C640    1.379   1_554 S
C77    N113    1.434   .     S
C77    C641    1.378   .     S
C78    C88     1.456   .     S
C78    N108    1.157   .     T
C79    N109    1.157   .     T
C80    N105    1.156   .     T
C81    N106    1.156   .     T
C81    N169    1.383   .     S
C82    H89     1.083   .     S
C82    C634    1.379   .     S
C83    H95     1.083   .     S
C83    C635    1.378   1_554 S
C84    C271    1.364   .     S
C84    N300    1.443   .     S
C85    C456    1.364   1_545 S
C85    N476    1.444   1_545 S
C86    O121    1.291   .     A
C86    O119    1.287   .     A
C87    O122    1.290   .     A
C87    O120    1.286   .     A
H90    N113    1.044   .     S
H91    N114    1.046   .     S
H92    N114    1.045   .     S
H93    N476    1.044   1_545 S
H94    N476    1.046   1_545 S
H96    N110    1.045   .     S
H97    N110    1.046   .     S
H98    N111    1.045   .     S
H99    N111    1.046   .     S
H100   N112    1.043   .     S
H101   N112    1.045   .     S
H102   N113    1.045   .     S
N103   Zn124   2.029   .     S
N103   C142    1.383   .     S
N103   N169    1.285   .     S
N104   H280    1.046   .     S
N104   C271    1.444   .     S
N104   H279    1.044   .     S
N107   Zn123   2.029   .     S
N114   C456    1.443   1_545 S
O115   Zn123   1.979   .     S
O116   Zn124   1.979   .     S
O117   Zn124   1.997   .     S
O118   Zn123   1.997   .     S
O119   Zn123   2.006   .     S
O120   Zn124   2.006   .     S
O121   Zn124   2.018   .     S
O122   Zn123   2.018   .     S
C125   O179    1.295   .     A
C125   C146    1.403   .     S
C125   O177    1.277   .     A
C126   C128    1.393   .     A
C126   C141    1.456   .     S
C126   C137    1.394   .     A
C127   C150    1.392   .     A
C127   C149    1.424   .     S
C127   C129    1.400   .     A
C128   C148    1.425   .     S
C128   C130    1.399   .     A
C129   C131    1.407   .     A
C129   N172    1.437   .     S
C130   N173    1.436   .     S
C130   C132    1.406   .     A
C131   C133    1.430   .     A
C131   C138    1.422   .     A
C132   C139    1.423   .     A
C132   C134    1.430   .     A
C133   C135    1.417   .     A
C133   C692    1.408   1_554 S
C134   C137    1.417   .     A
C134   C691    1.408   .     S
C135   C150    1.393   .     A
C135   C145    1.398   .     A
C136   C147    1.408   .     S
C136   O180    1.296   .     A
C136   O178    1.277   .     A
C137   C144    1.398   .     A
C138   N174    1.434   .     S
C138   C702    1.379   1_554 S
C139   N175    1.434   .     S
C139   C703    1.378   .     S
C140   C150    1.456   .     S
C140   N170    1.157   .     T
C141   N171    1.157   .     T
C142   N167    1.156   .     T
C143   N168    1.156   .     T
C143   N45     1.383   1_655 S
C144   H151    1.083   .     S
C144   C696    1.379   .     S
C145   H157    1.083   .     S
C145   C697    1.378   1_554 S
C146   C333    1.364   .     S
C146   N362    1.443   .     S
C147   C518    1.364   1_545 S
C147   N538    1.444   1_545 S
C148   O183    1.291   .     A
C148   O181    1.287   .     A
C149   O184    1.290   .     A
C149   O182    1.286   .     A
H152   N175    1.044   .     S
H153   N176    1.046   .     S
H154   N176    1.045   .     S
H155   N538    1.044   1_545 S
H156   N538    1.046   1_545 S
H158   N172    1.045   .     S
H159   N172    1.046   .     S
H160   N173    1.045   .     S
H161   N173    1.046   .     S
H162   N174    1.043   .     S
H163   N174    1.045   .     S
H164   N175    1.045   .     S
N165   Zn186   2.029   .     S
N165   C18     1.383   1_655 S
N165   N45     1.285   1_655 S
N166   H342    1.046   .     S
N166   C333    1.444   .     S
N166   H341    1.044   .     S
N169   Zn185   2.029   .     S
N176   C518    1.443   1_545 S
O177   Zn185   1.979   .     S
O178   Zn186   1.979   .     S
O179   Zn186   1.997   .     S
O180   Zn185   1.997   .     S
O181   Zn185   2.006   .     S
O182   Zn186   2.006   .     S
O183   Zn186   2.018   .     S
O184   Zn185   2.018   .     S
C187   O241    1.295   .     A
C187   C208    1.403   .     S
C187   O239    1.277   .     A
C188   C190    1.393   .     A
C188   C203    1.456   .     S
C188   C199    1.394   .     A
C189   C212    1.392   .     A
C189   C211    1.424   .     S
C189   C191    1.400   .     A
C190   C210    1.425   .     S
C190   C192    1.399   .     A
C191   C193    1.407   .     A
C191   N234    1.437   .     S
C192   N235    1.436   .     S
C192   C194    1.406   .     A
C193   C195    1.430   .     A
C193   C200    1.422   .     A
C194   C201    1.423   .     A
C194   C196    1.430   .     A
C195   C197    1.417   .     A
C195   C754    1.408   1_554 S
C196   C199    1.417   .     A
C196   C753    1.408   .     S
C197   C212    1.393   .     A
C197   C207    1.398   .     A
C198   C209    1.408   .     S
C198   O242    1.296   .     A
C198   O240    1.277   .     A
C199   C206    1.398   .     A
C200   N236    1.434   .     S
C200   C764    1.379   1_554 S
C201   N237    1.434   .     S
C201   C765    1.378   .     S
C202   C212    1.456   .     S
C202   N232    1.157   .     T
C203   N233    1.157   .     T
C204   N229    1.156   .     T
C204   N351    1.383   1_455 S
C205   N230    1.156   .     T
C205   N293    1.383   .     S
C206   H213    1.083   .     S
C206   C758    1.379   .     S
C207   H219    1.083   .     S
C207   C759    1.378   1_554 S
C208   C395    1.364   .     S
C208   N424    1.443   .     S
C210   O245    1.291   .     A
C210   O243    1.287   .     A
C211   O246    1.290   .     A
C211   O244    1.286   .     A
H214   N237    1.044   .     S
H215   N238    1.046   .     S
H216   N238    1.045   .     S
H220   N234    1.045   .     S
H221   N234    1.046   .     S
H222   N235    1.045   .     S
H223   N235    1.046   .     S
H224   N236    1.043   .     S
H225   N236    1.045   .     S
H226   N237    1.045   .     S
N227   Zn248   2.029   .     S
N227   C266    1.383   .     S
N227   N293    1.285   .     S
N228   H404    1.046   .     S
N228   C395    1.444   .     S
N228   H403    1.044   .     S
N231   Zn247   2.029   .     S
N231   N351    1.285   1_455 S
N231   C329    1.383   1_455 S
O239   Zn247   1.979   .     S
O240   Zn248   1.979   .     S
O241   Zn248   1.997   .     S
O242   Zn247   1.997   .     S
O243   Zn247   2.006   .     S
O244   Zn248   2.006   .     S
O245   Zn248   2.018   .     S
O246   Zn247   2.018   .     S
C249   O303    1.295   .     A
C249   C270    1.403   .     S
C249   O301    1.277   .     A
C250   C252    1.393   .     A
C250   C265    1.456   .     S
C250   C261    1.394   .     A
C251   C274    1.392   .     A
C251   C273    1.424   .     S
C251   C253    1.400   .     A
C252   C272    1.425   .     S
C252   C254    1.399   .     A
C253   C255    1.407   .     A
C253   N296    1.437   .     S
C254   N297    1.436   .     S
C254   C256    1.406   .     A
C255   C257    1.430   .     A
C255   C262    1.422   .     A
C256   C263    1.423   .     A
C256   C258    1.430   .     A
C257   C259    1.417   .     A
C257   C816    1.408   1_554 S
C258   C261    1.417   .     A
C258   C815    1.408   .     S
C259   C274    1.393   .     A
C259   C269    1.398   .     A
C260   C271    1.408   .     S
C260   O304    1.296   .     A
C260   O302    1.277   .     A
C261   C268    1.398   .     A
C262   N298    1.434   .     S
C262   C826    1.379   1_554 S
C263   N299    1.434   .     S
C263   C827    1.378   .     S
C264   C274    1.456   .     S
C264   N294    1.157   .     T
C265   N295    1.157   .     T
C266   N291    1.156   .     T
C267   N292    1.156   .     T
C267   N355    1.383   .     S
C268   H275    1.083   .     S
C268   C820    1.379   .     S
C269   H281    1.083   .     S
C269   C821    1.378   1_554 S
C270   C457    1.364   .     S
C270   N486    1.443   .     S
C272   O307    1.291   .     A
C272   O305    1.287   .     A
C273   O308    1.290   .     A
C273   O306    1.286   .     A
H276   N299    1.044   .     S
H277   N300    1.046   .     S
H278   N300    1.045   .     S
H282   N296    1.045   .     S
H283   N296    1.046   .     S
H284   N297    1.045   .     S
H285   N297    1.046   .     S
H286   N298    1.043   .     S
H287   N298    1.045   .     S
H288   N299    1.045   .     S
N289   Zn310   2.029   .     S
N289   C328    1.383   .     S
N289   N355    1.285   .     S
N290   H466    1.046   .     S
N290   C457    1.444   .     S
N290   H465    1.044   .     S
N293   Zn309   2.029   .     S
O301   Zn309   1.979   .     S
O302   Zn310   1.979   .     S
O303   Zn310   1.997   .     S
O304   Zn309   1.997   .     S
O305   Zn309   2.006   .     S
O306   Zn310   2.006   .     S
O307   Zn310   2.018   .     S
O308   Zn309   2.018   .     S
C311   O365    1.295   .     A
C311   C332    1.403   .     S
C311   O363    1.277   .     A
C312   C314    1.393   .     A
C312   C327    1.456   .     S
C312   C323    1.394   .     A
C313   C336    1.392   .     A
C313   C335    1.424   .     S
C313   C315    1.400   .     A
C314   C334    1.425   .     S
C314   C316    1.399   .     A
C315   C317    1.407   .     A
C315   N358    1.437   .     S
C316   N359    1.436   .     S
C316   C318    1.406   .     A
C317   C319    1.430   .     A
C317   C324    1.422   .     A
C318   C325    1.423   .     A
C318   C320    1.430   .     A
C319   C321    1.417   .     A
C319   C878    1.408   1_554 S
C320   C323    1.417   .     A
C320   C877    1.408   .     S
C321   C336    1.393   .     A
C321   C331    1.398   .     A
C322   C333    1.408   .     S
C322   O366    1.296   .     A
C322   O364    1.277   .     A
C323   C330    1.398   .     A
C324   N360    1.434   .     S
C324   C888    1.379   1_554 S
C325   N361    1.434   .     S
C325   C889    1.378   .     S
C326   C336    1.456   .     S
C326   N356    1.157   .     T
C327   N357    1.157   .     T
C328   N353    1.156   .     T
C329   N354    1.156   .     T
C329   N231    1.383   1_655 S
C330   H337    1.083   .     S
C330   C882    1.379   .     S
C331   H343    1.083   .     S
C331   C883    1.378   1_554 S
C332   C519    1.364   .     S
C332   N548    1.443   .     S
C334   O369    1.291   .     A
C334   O367    1.287   .     A
C335   O370    1.290   .     A
C335   O368    1.286   .     A
H338   N361    1.044   .     S
H339   N362    1.046   .     S
H340   N362    1.045   .     S
H344   N358    1.045   .     S
H345   N358    1.046   .     S
H346   N359    1.045   .     S
H347   N359    1.046   .     S
H348   N360    1.043   .     S
H349   N360    1.045   .     S
H350   N361    1.045   .     S
N351   Zn372   2.029   .     S
N351   C204    1.383   1_655 S
N351   N231    1.285   1_655 S
N352   H528    1.046   .     S
N352   C519    1.444   .     S
N352   H527    1.044   .     S
N355   Zn371   2.029   .     S
O363   Zn371   1.979   .     S
O364   Zn372   1.979   .     S
O365   Zn372   1.997   .     S
O366   Zn371   1.997   .     S
O367   Zn371   2.006   .     S
O368   Zn372   2.006   .     S
O369   Zn372   2.018   .     S
O370   Zn371   2.018   .     S
C373   O427    1.295   .     A
C373   C394    1.403   .     S
C373   O425    1.277   .     A
C374   C376    1.393   .     A
C374   C389    1.456   .     S
C374   C385    1.394   .     A
C375   C398    1.392   .     A
C375   C397    1.424   .     S
C375   C377    1.400   .     A
C376   C396    1.425   .     S
C376   C378    1.399   .     A
C377   C379    1.407   .     A
C377   N420    1.437   .     S
C378   N421    1.436   .     S
C378   C380    1.406   .     A
C379   C381    1.430   .     A
C379   C386    1.422   .     A
C380   C387    1.423   .     A
C380   C382    1.430   .     A
C381   C383    1.417   .     A
C381   C940    1.408   1_554 S
C382   C385    1.417   .     A
C382   C939    1.408   .     S
C383   C398    1.393   .     A
C383   C393    1.398   .     A
C384   C395    1.408   .     S
C384   O428    1.296   .     A
C384   O426    1.277   .     A
C385   C392    1.398   .     A
C386   N422    1.434   .     S
C386   C950    1.379   1_554 S
C387   N423    1.434   .     S
C387   C951    1.378   .     S
C388   C398    1.456   .     S
C388   N418    1.157   .     T
C389   N419    1.157   .     T
C390   N415    1.156   .     T
C390   N537    1.383   1_455 S
C391   N416    1.156   .     T
C391   N479    1.383   .     S
C392   H399    1.083   .     S
C392   C944    1.379   .     S
C393   H405    1.083   .     S
C393   C945    1.378   1_554 S
C394   C23     1.364   1_565 S
C394   N52     1.443   1_565 S
C396   O431    1.291   .     A
C396   O429    1.287   .     A
C397   O432    1.290   .     A
C397   O430    1.286   .     A
H400   N423    1.044   .     S
H401   N424    1.046   .     S
H402   N424    1.045   .     S
H406   N420    1.045   .     S
H407   N420    1.046   .     S
H408   N421    1.045   .     S
H409   N421    1.046   .     S
H410   N422    1.043   .     S
H411   N422    1.045   .     S
H412   N423    1.045   .     S
N413   Zn434   2.029   .     S
N413   C452    1.383   .     S
N413   N479    1.285   .     S
N414   H32     1.046   1_565 S
N414   C23     1.444   1_565 S
N414   H31     1.044   1_565 S
N417   Zn433   2.029   .     S
N417   N537    1.285   1_455 S
N417   C515    1.383   1_455 S
O425   Zn433   1.979   .     S
O426   Zn434   1.979   .     S
O427   Zn434   1.997   .     S
O428   Zn433   1.997   .     S
O429   Zn433   2.006   .     S
O430   Zn434   2.006   .     S
O431   Zn434   2.018   .     S
O432   Zn433   2.018   .     S
C435   O489    1.295   .     A
C435   C456    1.403   .     S
C435   O487    1.277   .     A
C436   C438    1.393   .     A
C436   C451    1.456   .     S
C436   C447    1.394   .     A
C437   C460    1.392   .     A
C437   C459    1.424   .     S
C437   C439    1.400   .     A
C438   C458    1.425   .     S
C438   C440    1.399   .     A
C439   C441    1.407   .     A
C439   N482    1.437   .     S
C440   N483    1.436   .     S
C440   C442    1.406   .     A
C441   C443    1.430   .     A
C441   C448    1.422   .     A
C442   C449    1.423   .     A
C442   C444    1.430   .     A
C443   C445    1.417   .     A
C443   C1002   1.408   1_554 S
C444   C447    1.417   .     A
C444   C1001   1.408   .     S
C445   C460    1.393   .     A
C445   C455    1.398   .     A
C446   C457    1.408   .     S
C446   O490    1.296   .     A
C446   O488    1.277   .     A
C447   C454    1.398   .     A
C448   N484    1.434   .     S
C448   C1012   1.379   1_554 S
C449   N485    1.434   .     S
C449   C1013   1.378   .     S
C450   C460    1.456   .     S
C450   N480    1.157   .     T
C451   N481    1.157   .     T
C452   N477    1.156   .     T
C453   N478    1.156   .     T
C453   N541    1.383   .     S
C454   H461    1.083   .     S
C454   C1006   1.379   .     S
C455   H467    1.083   .     S
C455   C1007   1.378   1_554 S
C456   C85     1.364   1_565 S
C456   N114    1.443   1_565 S
C458   O493    1.291   .     A
C458   O491    1.287   .     A
C459   O494    1.290   .     A
C459   O492    1.286   .     A
H462   N485    1.044   .     S
H463   N486    1.046   .     S
H464   N486    1.045   .     S
H468   N482    1.045   .     S
H469   N482    1.046   .     S
H470   N483    1.045   .     S
H471   N483    1.046   .     S
H472   N484    1.043   .     S
H473   N484    1.045   .     S
H474   N485    1.045   .     S
N475   Zn496   2.029   .     S
N475   C514    1.383   .     S
N475   N541    1.285   .     S
N476   H94     1.046   1_565 S
N476   C85     1.444   1_565 S
N476   H93     1.044   1_565 S
N479   Zn495   2.029   .     S
O487   Zn495   1.979   .     S
O488   Zn496   1.979   .     S
O489   Zn496   1.997   .     S
O490   Zn495   1.997   .     S
O491   Zn495   2.006   .     S
O492   Zn496   2.006   .     S
O493   Zn496   2.018   .     S
O494   Zn495   2.018   .     S
C497   O551    1.295   .     A
C497   C518    1.403   .     S
C497   O549    1.277   .     A
C498   C500    1.393   .     A
C498   C513    1.456   .     S
C498   C509    1.394   .     A
C499   C522    1.392   .     A
C499   C521    1.424   .     S
C499   C501    1.400   .     A
C500   C520    1.425   .     S
C500   C502    1.399   .     A
C501   C503    1.407   .     A
C501   N544    1.437   .     S
C502   N545    1.436   .     S
C502   C504    1.406   .     A
C503   C505    1.430   .     A
C503   C510    1.422   .     A
C504   C511    1.423   .     A
C504   C506    1.430   .     A
C505   C507    1.417   .     A
C505   C1064   1.408   1_554 S
C506   C509    1.417   .     A
C506   C1063   1.408   .     S
C507   C522    1.393   .     A
C507   C517    1.398   .     A
C508   C519    1.408   .     S
C508   O552    1.296   .     A
C508   O550    1.277   .     A
C509   C516    1.398   .     A
C510   N546    1.434   .     S
C510   C1074   1.379   1_554 S
C511   N547    1.434   .     S
C511   C1075   1.378   .     S
C512   C522    1.456   .     S
C512   N542    1.157   .     T
C513   N543    1.157   .     T
C514   N539    1.156   .     T
C515   N540    1.156   .     T
C515   N417    1.383   1_655 S
C516   H523    1.083   .     S
C516   C1068   1.379   .     S
C517   H529    1.083   .     S
C517   C1069   1.378   1_554 S
C518   C147    1.364   1_565 S
C518   N176    1.443   1_565 S
C520   O555    1.291   .     A
C520   O553    1.287   .     A
C521   O556    1.290   .     A
C521   O554    1.286   .     A
H524   N547    1.044   .     S
H525   N548    1.046   .     S
H526   N548    1.045   .     S
H530   N544    1.045   .     S
H531   N544    1.046   .     S
H532   N545    1.045   .     S
H533   N545    1.046   .     S
H534   N546    1.043   .     S
H535   N546    1.045   .     S
H536   N547    1.045   .     S
N537   Zn558   2.029   .     S
N537   C390    1.383   1_655 S
N537   N417    1.285   1_655 S
N538   H156    1.046   1_565 S
N538   C147    1.444   1_565 S
N538   H155    1.044   1_565 S
N541   Zn557   2.029   .     S
O549   Zn557   1.979   .     S
O550   Zn558   1.979   .     S
O551   Zn558   1.997   .     S
O552   Zn557   1.997   .     S
O553   Zn557   2.006   .     S
O554   Zn558   2.006   .     S
O555   Zn558   2.018   .     S
O556   Zn557   2.018   .     S
C559   O613    1.295   .     A
C559   C580    1.403   .     S
C559   O611    1.277   .     A
C560   C562    1.393   .     A
C560   C575    1.456   .     S
C560   C571    1.394   .     A
C561   C584    1.392   .     A
C561   C583    1.424   .     S
C561   C563    1.400   .     A
C562   C582    1.425   .     S
C562   C564    1.399   .     A
C563   C565    1.407   .     A
C563   N606    1.437   .     S
C564   N607    1.436   .     S
C564   C566    1.406   .     A
C565   C567    1.430   .     A
C565   C572    1.422   .     A
C566   C573    1.423   .     A
C566   C568    1.430   .     A
C567   C569    1.417   .     A
C568   C571    1.417   .     A
C568   C9      1.408   1_556 S
C569   C584    1.393   .     A
C569   C579    1.398   .     A
C570   C581    1.408   .     S
C570   O614    1.296   .     A
C570   O612    1.277   .     A
C571   C578    1.398   .     A
C572   N608    1.434   .     S
C573   N609    1.434   .     S
C573   C21     1.378   1_556 S
C574   C584    1.456   .     S
C574   N604    1.157   .     T
C575   N605    1.157   .     T
C576   N601    1.156   .     T
C576   N723    1.383   1_455 S
C577   N602    1.156   .     T
C577   N665    1.383   .     S
C578   H585    1.083   .     S
C578   C14     1.379   1_556 S
C579   H591    1.083   .     S
C580   C767    1.364   .     S
C580   N796    1.443   .     S
C581   C952    1.364   1_545 S
C581   N972    1.444   1_545 S
C582   O617    1.291   .     A
C582   O615    1.287   .     A
C583   O618    1.290   .     A
C583   O616    1.286   .     A
H586   N609    1.044   .     S
H587   N610    1.046   .     S
H588   N610    1.045   .     S
H589   N972    1.044   1_545 S
H590   N972    1.046   1_545 S
H592   N606    1.045   .     S
H593   N606    1.046   .     S
H594   N607    1.045   .     S
H595   N607    1.046   .     S
H596   N608    1.043   .     S
H597   N608    1.045   .     S
H598   N609    1.045   .     S
N599   Zn620   2.029   .     S
N599   C638    1.383   .     S
N599   N665    1.285   .     S
N600   H776    1.046   .     S
N600   C767    1.444   .     S
N600   H775    1.044   .     S
N603   Zn619   2.029   .     S
N603   N723    1.285   1_455 S
N603   C701    1.383   1_455 S
N610   C952    1.443   1_545 S
O611   Zn619   1.979   .     S
O612   Zn620   1.979   .     S
O613   Zn620   1.997   .     S
O614   Zn619   1.997   .     S
O615   Zn619   2.006   .     S
O616   Zn620   2.006   .     S
O617   Zn620   2.018   .     S
O618   Zn619   2.018   .     S
C621   O675    1.295   .     A
C621   C642    1.403   .     S
C621   O673    1.277   .     A
C622   C624    1.393   .     A
C622   C637    1.456   .     S
C622   C633    1.394   .     A
C623   C646    1.392   .     A
C623   C645    1.424   .     S
C623   C625    1.400   .     A
C624   C644    1.425   .     S
C624   C626    1.399   .     A
C625   C627    1.407   .     A
C625   N668    1.437   .     S
C626   N669    1.436   .     S
C626   C628    1.406   .     A
C627   C629    1.430   .     A
C627   C634    1.422   .     A
C628   C635    1.423   .     A
C628   C630    1.430   .     A
C629   C631    1.417   .     A
C630   C633    1.417   .     A
C630   C71     1.408   1_556 S
C631   C646    1.393   .     A
C631   C641    1.398   .     A
C632   C643    1.408   .     S
C632   O676    1.296   .     A
C632   O674    1.277   .     A
C633   C640    1.398   .     A
C634   N670    1.434   .     S
C635   N671    1.434   .     S
C635   C83     1.378   1_556 S
C636   C646    1.456   .     S
C636   N666    1.157   .     T
C637   N667    1.157   .     T
C638   N663    1.156   .     T
C639   N664    1.156   .     T
C639   N727    1.383   .     S
C640   H647    1.083   .     S
C640   C76     1.379   1_556 S
C641   H653    1.083   .     S
C642   C829    1.364   .     S
C642   N858    1.443   .     S
C643   C1014   1.364   1_545 S
C643   N1034   1.444   1_545 S
C644   O679    1.291   .     A
C644   O677    1.287   .     A
C645   O680    1.290   .     A
C645   O678    1.286   .     A
H648   N671    1.044   .     S
H649   N672    1.046   .     S
H650   N672    1.045   .     S
H651   N1034   1.044   1_545 S
H652   N1034   1.046   1_545 S
H654   N668    1.045   .     S
H655   N668    1.046   .     S
H656   N669    1.045   .     S
H657   N669    1.046   .     S
H658   N670    1.043   .     S
H659   N670    1.045   .     S
H660   N671    1.045   .     S
N661   Zn682   2.029   .     S
N661   C700    1.383   .     S
N661   N727    1.285   .     S
N662   H838    1.046   .     S
N662   C829    1.444   .     S
N662   H837    1.044   .     S
N665   Zn681   2.029   .     S
N672   C1014   1.443   1_545 S
O673   Zn681   1.979   .     S
O674   Zn682   1.979   .     S
O675   Zn682   1.997   .     S
O676   Zn681   1.997   .     S
O677   Zn681   2.006   .     S
O678   Zn682   2.006   .     S
O679   Zn682   2.018   .     S
O680   Zn681   2.018   .     S
C683   O737    1.295   .     A
C683   C704    1.403   .     S
C683   O735    1.277   .     A
C684   C686    1.393   .     A
C684   C699    1.456   .     S
C684   C695    1.394   .     A
C685   C708    1.392   .     A
C685   C707    1.424   .     S
C685   C687    1.400   .     A
C686   C706    1.425   .     S
C686   C688    1.399   .     A
C687   C689    1.407   .     A
C687   N730    1.437   .     S
C688   N731    1.436   .     S
C688   C690    1.406   .     A
C689   C691    1.430   .     A
C689   C696    1.422   .     A
C690   C697    1.423   .     A
C690   C692    1.430   .     A
C691   C693    1.417   .     A
C692   C695    1.417   .     A
C692   C133    1.408   1_556 S
C693   C708    1.393   .     A
C693   C703    1.398   .     A
C694   C705    1.408   .     S
C694   O738    1.296   .     A
C694   O736    1.277   .     A
C695   C702    1.398   .     A
C696   N732    1.434   .     S
C697   N733    1.434   .     S
C697   C145    1.378   1_556 S
C698   C708    1.456   .     S
C698   N728    1.157   .     T
C699   N729    1.157   .     T
C700   N725    1.156   .     T
C701   N726    1.156   .     T
C701   N603    1.383   1_655 S
C702   H709    1.083   .     S
C702   C138    1.379   1_556 S
C703   H715    1.083   .     S
C704   C891    1.364   .     S
C704   N920    1.443   .     S
C705   C1076   1.364   1_545 S
C705   N1096   1.444   1_545 S
C706   O741    1.291   .     A
C706   O739    1.287   .     A
C707   O742    1.290   .     A
C707   O740    1.286   .     A
H710   N733    1.044   .     S
H711   N734    1.046   .     S
H712   N734    1.045   .     S
H713   N1096   1.044   1_545 S
H714   N1096   1.046   1_545 S
H716   N730    1.045   .     S
H717   N730    1.046   .     S
H718   N731    1.045   .     S
H719   N731    1.046   .     S
H720   N732    1.043   .     S
H721   N732    1.045   .     S
H722   N733    1.045   .     S
N723   Zn744   2.029   .     S
N723   C576    1.383   1_655 S
N723   N603    1.285   1_655 S
N724   H900    1.046   .     S
N724   C891    1.444   .     S
N724   H899    1.044   .     S
N727   Zn743   2.029   .     S
N734   C1076   1.443   1_545 S
O735   Zn743   1.979   .     S
O736   Zn744   1.979   .     S
O737   Zn744   1.997   .     S
O738   Zn743   1.997   .     S
O739   Zn743   2.006   .     S
O740   Zn744   2.006   .     S
O741   Zn744   2.018   .     S
O742   Zn743   2.018   .     S
C745   O799    1.295   .     A
C745   C766    1.403   .     S
C745   O797    1.277   .     A
C746   C748    1.393   .     A
C746   C761    1.456   .     S
C746   C757    1.394   .     A
C747   C770    1.392   .     A
C747   C769    1.424   .     S
C747   C749    1.400   .     A
C748   C768    1.425   .     S
C748   C750    1.399   .     A
C749   C751    1.407   .     A
C749   N792    1.437   .     S
C750   N793    1.436   .     S
C750   C752    1.406   .     A
C751   C753    1.430   .     A
C751   C758    1.422   .     A
C752   C759    1.423   .     A
C752   C754    1.430   .     A
C753   C755    1.417   .     A
C754   C757    1.417   .     A
C754   C195    1.408   1_556 S
C755   C770    1.393   .     A
C755   C765    1.398   .     A
C756   C767    1.408   .     S
C756   O800    1.296   .     A
C756   O798    1.277   .     A
C757   C764    1.398   .     A
C758   N794    1.434   .     S
C759   N795    1.434   .     S
C759   C207    1.378   1_556 S
C760   C770    1.456   .     S
C760   N790    1.157   .     T
C761   N791    1.157   .     T
C762   N787    1.156   .     T
C762   N909    1.383   1_455 S
C763   N788    1.156   .     T
C763   N851    1.383   .     S
C764   H771    1.083   .     S
C764   C200    1.379   1_556 S
C765   H777    1.083   .     S
C766   C953    1.364   .     S
C766   N982    1.443   .     S
C768   O803    1.291   .     A
C768   O801    1.287   .     A
C769   O804    1.290   .     A
C769   O802    1.286   .     A
H772   N795    1.044   .     S
H773   N796    1.046   .     S
H774   N796    1.045   .     S
H778   N792    1.045   .     S
H779   N792    1.046   .     S
H780   N793    1.045   .     S
H781   N793    1.046   .     S
H782   N794    1.043   .     S
H783   N794    1.045   .     S
H784   N795    1.045   .     S
N785   Zn806   2.029   .     S
N785   C824    1.383   .     S
N785   N851    1.285   .     S
N786   H962    1.046   .     S
N786   C953    1.444   .     S
N786   H961    1.044   .     S
N789   Zn805   2.029   .     S
N789   N909    1.285   1_455 S
N789   C887    1.383   1_455 S
O797   Zn805   1.979   .     S
O798   Zn806   1.979   .     S
O799   Zn806   1.997   .     S
O800   Zn805   1.997   .     S
O801   Zn805   2.006   .     S
O802   Zn806   2.006   .     S
O803   Zn806   2.018   .     S
O804   Zn805   2.018   .     S
C807   O861    1.295   .     A
C807   C828    1.403   .     S
C807   O859    1.277   .     A
C808   C810    1.393   .     A
C808   C823    1.456   .     S
C808   C819    1.394   .     A
C809   C832    1.392   .     A
C809   C831    1.424   .     S
C809   C811    1.400   .     A
C810   C830    1.425   .     S
C810   C812    1.399   .     A
C811   C813    1.407   .     A
C811   N854    1.437   .     S
C812   N855    1.436   .     S
C812   C814    1.406   .     A
C813   C815    1.430   .     A
C813   C820    1.422   .     A
C814   C821    1.423   .     A
C814   C816    1.430   .     A
C815   C817    1.417   .     A
C816   C819    1.417   .     A
C816   C257    1.408   1_556 S
C817   C832    1.393   .     A
C817   C827    1.398   .     A
C818   C829    1.408   .     S
C818   O862    1.296   .     A
C818   O860    1.277   .     A
C819   C826    1.398   .     A
C820   N856    1.434   .     S
C821   N857    1.434   .     S
C821   C269    1.378   1_556 S
C822   C832    1.456   .     S
C822   N852    1.157   .     T
C823   N853    1.157   .     T
C824   N849    1.156   .     T
C825   N850    1.156   .     T
C825   N913    1.383   .     S
C826   H833    1.083   .     S
C826   C262    1.379   1_556 S
C827   H839    1.083   .     S
C828   C1015   1.364   .     S
C828   N1044   1.443   .     S
C830   O865    1.291   .     A
C830   O863    1.287   .     A
C831   O866    1.290   .     A
C831   O864    1.286   .     A
H834   N857    1.044   .     S
H835   N858    1.046   .     S
H836   N858    1.045   .     S
H840   N854    1.045   .     S
H841   N854    1.046   .     S
H842   N855    1.045   .     S
H843   N855    1.046   .     S
H844   N856    1.043   .     S
H845   N856    1.045   .     S
H846   N857    1.045   .     S
N847   Zn868   2.029   .     S
N847   C886    1.383   .     S
N847   N913    1.285   .     S
N848   H1024   1.046   .     S
N848   C1015   1.444   .     S
N848   H1023   1.044   .     S
N851   Zn867   2.029   .     S
O859   Zn867   1.979   .     S
O860   Zn868   1.979   .     S
O861   Zn868   1.997   .     S
O862   Zn867   1.997   .     S
O863   Zn867   2.006   .     S
O864   Zn868   2.006   .     S
O865   Zn868   2.018   .     S
O866   Zn867   2.018   .     S
C869   O923    1.295   .     A
C869   C890    1.403   .     S
C869   O921    1.277   .     A
C870   C872    1.393   .     A
C870   C885    1.456   .     S
C870   C881    1.394   .     A
C871   C894    1.392   .     A
C871   C893    1.424   .     S
C871   C873    1.400   .     A
C872   C892    1.425   .     S
C872   C874    1.399   .     A
C873   C875    1.407   .     A
C873   N916    1.437   .     S
C874   N917    1.436   .     S
C874   C876    1.406   .     A
C875   C877    1.430   .     A
C875   C882    1.422   .     A
C876   C883    1.423   .     A
C876   C878    1.430   .     A
C877   C879    1.417   .     A
C878   C881    1.417   .     A
C878   C319    1.408   1_556 S
C879   C894    1.393   .     A
C879   C889    1.398   .     A
C880   C891    1.408   .     S
C880   O924    1.296   .     A
C880   O922    1.277   .     A
C881   C888    1.398   .     A
C882   N918    1.434   .     S
C883   N919    1.434   .     S
C883   C331    1.378   1_556 S
C884   C894    1.456   .     S
C884   N914    1.157   .     T
C885   N915    1.157   .     T
C886   N911    1.156   .     T
C887   N912    1.156   .     T
C887   N789    1.383   1_655 S
C888   H895    1.083   .     S
C888   C324    1.379   1_556 S
C889   H901    1.083   .     S
C890   C1077   1.364   .     S
C890   N1106   1.443   .     S
C892   O927    1.291   .     A
C892   O925    1.287   .     A
C893   O928    1.290   .     A
C893   O926    1.286   .     A
H896   N919    1.044   .     S
H897   N920    1.046   .     S
H898   N920    1.045   .     S
H902   N916    1.045   .     S
H903   N916    1.046   .     S
H904   N917    1.045   .     S
H905   N917    1.046   .     S
H906   N918    1.043   .     S
H907   N918    1.045   .     S
H908   N919    1.045   .     S
N909   Zn930   2.029   .     S
N909   C762    1.383   1_655 S
N909   N789    1.285   1_655 S
N910   H1086   1.046   .     S
N910   C1077   1.444   .     S
N910   H1085   1.044   .     S
N913   Zn929   2.029   .     S
O921   Zn929   1.979   .     S
O922   Zn930   1.979   .     S
O923   Zn930   1.997   .     S
O924   Zn929   1.997   .     S
O925   Zn929   2.006   .     S
O926   Zn930   2.006   .     S
O927   Zn930   2.018   .     S
O928   Zn929   2.018   .     S
C931   O985    1.295   .     A
C931   C952    1.403   .     S
C931   O983    1.277   .     A
C932   C934    1.393   .     A
C932   C947    1.456   .     S
C932   C943    1.394   .     A
C933   C956    1.392   .     A
C933   C955    1.424   .     S
C933   C935    1.400   .     A
C934   C954    1.425   .     S
C934   C936    1.399   .     A
C935   C937    1.407   .     A
C935   N978    1.437   .     S
C936   N979    1.436   .     S
C936   C938    1.406   .     A
C937   C939    1.430   .     A
C937   C944    1.422   .     A
C938   C945    1.423   .     A
C938   C940    1.430   .     A
C939   C941    1.417   .     A
C940   C943    1.417   .     A
C940   C381    1.408   1_556 S
C941   C956    1.393   .     A
C941   C951    1.398   .     A
C942   C953    1.408   .     S
C942   O986    1.296   .     A
C942   O984    1.277   .     A
C943   C950    1.398   .     A
C944   N980    1.434   .     S
C945   N981    1.434   .     S
C945   C393    1.378   1_556 S
C946   C956    1.456   .     S
C946   N976    1.157   .     T
C947   N977    1.157   .     T
C948   N973    1.156   .     T
C948   N1095   1.383   1_455 S
C949   N974    1.156   .     T
C949   N1037   1.383   .     S
C950   H957    1.083   .     S
C950   C386    1.379   1_556 S
C951   H963    1.083   .     S
C952   C581    1.364   1_565 S
C952   N610    1.443   1_565 S
C954   O989    1.291   .     A
C954   O987    1.287   .     A
C955   O990    1.290   .     A
C955   O988    1.286   .     A
H958   N981    1.044   .     S
H959   N982    1.046   .     S
H960   N982    1.045   .     S
H964   N978    1.045   .     S
H965   N978    1.046   .     S
H966   N979    1.045   .     S
H967   N979    1.046   .     S
H968   N980    1.043   .     S
H969   N980    1.045   .     S
H970   N981    1.045   .     S
N971   Zn992   2.029   .     S
N971   C1010   1.383   .     S
N971   N1037   1.285   .     S
N972   H590    1.046   1_565 S
N972   C581    1.444   1_565 S
N972   H589    1.044   1_565 S
N975   Zn991   2.029   .     S
N975   N1095   1.285   1_455 S
N975   C1073   1.383   1_455 S
O983   Zn991   1.979   .     S
O984   Zn992   1.979   .     S
O985   Zn992   1.997   .     S
O986   Zn991   1.997   .     S
O987   Zn991   2.006   .     S
O988   Zn992   2.006   .     S
O989   Zn992   2.018   .     S
O990   Zn991   2.018   .     S
C993   O1047   1.295   .     A
C993   C1014   1.403   .     S
C993   O1045   1.277   .     A
C994   C996    1.393   .     A
C994   C1009   1.456   .     S
C994   C1005   1.394   .     A
C995   C1018   1.392   .     A
C995   C1017   1.424   .     S
C995   C997    1.400   .     A
C996   C1016   1.425   .     S
C996   C998    1.399   .     A
C997   C999    1.407   .     A
C997   N1040   1.437   .     S
C998   N1041   1.436   .     S
C998   C1000   1.406   .     A
C999   C1001   1.430   .     A
C999   C1006   1.422   .     A
C1000  C1007   1.423   .     A
C1000  C1002   1.430   .     A
C1001  C1003   1.417   .     A
C1002  C1005   1.417   .     A
C1002  C443    1.408   1_556 S
C1003  C1018   1.393   .     A
C1003  C1013   1.398   .     A
C1004  C1015   1.408   .     S
C1004  O1048   1.296   .     A
C1004  O1046   1.277   .     A
C1005  C1012   1.398   .     A
C1006  N1042   1.434   .     S
C1007  N1043   1.434   .     S
C1007  C455    1.378   1_556 S
C1008  C1018   1.456   .     S
C1008  N1038   1.157   .     T
C1009  N1039   1.157   .     T
C1010  N1035   1.156   .     T
C1011  N1036   1.156   .     T
C1011  N1099   1.383   .     S
C1012  H1019   1.083   .     S
C1012  C448    1.379   1_556 S
C1013  H1025   1.083   .     S
C1014  C643    1.364   1_565 S
C1014  N672    1.443   1_565 S
C1016  O1051   1.291   .     A
C1016  O1049   1.287   .     A
C1017  O1052   1.290   .     A
C1017  O1050   1.286   .     A
H1020  N1043   1.044   .     S
H1021  N1044   1.046   .     S
H1022  N1044   1.045   .     S
H1026  N1040   1.045   .     S
H1027  N1040   1.046   .     S
H1028  N1041   1.045   .     S
H1029  N1041   1.046   .     S
H1030  N1042   1.043   .     S
H1031  N1042   1.045   .     S
H1032  N1043   1.045   .     S
N1033  Zn1054  2.029   .     S
N1033  C1072   1.383   .     S
N1033  N1099   1.285   .     S
N1034  H652    1.046   1_565 S
N1034  C643    1.444   1_565 S
N1034  H651    1.044   1_565 S
N1037  Zn1053  2.029   .     S
O1045  Zn1053  1.979   .     S
O1046  Zn1054  1.979   .     S
O1047  Zn1054  1.997   .     S
O1048  Zn1053  1.997   .     S
O1049  Zn1053  2.006   .     S
O1050  Zn1054  2.006   .     S
O1051  Zn1054  2.018   .     S
O1052  Zn1053  2.018   .     S
C1055  O1109   1.295   .     A
C1055  C1076   1.403   .     S
C1055  O1107   1.277   .     A
C1056  C1058   1.393   .     A
C1056  C1071   1.456   .     S
C1056  C1067   1.394   .     A
C1057  C1080   1.392   .     A
C1057  C1079   1.424   .     S
C1057  C1059   1.400   .     A
C1058  C1078   1.425   .     S
C1058  C1060   1.399   .     A
C1059  C1061   1.407   .     A
C1059  N1102   1.437   .     S
C1060  N1103   1.436   .     S
C1060  C1062   1.406   .     A
C1061  C1063   1.430   .     A
C1061  C1068   1.422   .     A
C1062  C1069   1.423   .     A
C1062  C1064   1.430   .     A
C1063  C1065   1.417   .     A
C1064  C1067   1.417   .     A
C1064  C505    1.408   1_556 S
C1065  C1080   1.393   .     A
C1065  C1075   1.398   .     A
C1066  C1077   1.408   .     S
C1066  O1110   1.296   .     A
C1066  O1108   1.277   .     A
C1067  C1074   1.398   .     A
C1068  N1104   1.434   .     S
C1069  N1105   1.434   .     S
C1069  C517    1.378   1_556 S
C1070  C1080   1.456   .     S
C1070  N1100   1.157   .     T
C1071  N1101   1.157   .     T
C1072  N1097   1.156   .     T
C1073  N1098   1.156   .     T
C1073  N975    1.383   1_655 S
C1074  H1081   1.083   .     S
C1074  C510    1.379   1_556 S
C1075  H1087   1.083   .     S
C1076  C705    1.364   1_565 S
C1076  N734    1.443   1_565 S
C1078  O1113   1.291   .     A
C1078  O1111   1.287   .     A
C1079  O1114   1.290   .     A
C1079  O1112   1.286   .     A
H1082  N1105   1.044   .     S
H1083  N1106   1.046   .     S
H1084  N1106   1.045   .     S
H1088  N1102   1.045   .     S
H1089  N1102   1.046   .     S
H1090  N1103   1.045   .     S
H1091  N1103   1.046   .     S
H1092  N1104   1.043   .     S
H1093  N1104   1.045   .     S
H1094  N1105   1.045   .     S
N1095  Zn1116  2.029   .     S
N1095  C948    1.383   1_655 S
N1095  N975    1.285   1_655 S
N1096  H714    1.046   1_565 S
N1096  C705    1.444   1_565 S
N1096  H713    1.044   1_565 S
N1099  Zn1115  2.029   .     S
O1107  Zn1115  1.979   .     S
O1108  Zn1116  1.979   .     S
O1109  Zn1116  1.997   .     S
O1110  Zn1115  1.997   .     S
O1111  Zn1115  2.006   .     S
O1112  Zn1116  2.006   .     S
O1113  Zn1116  2.018   .     S
O1114  Zn1115  2.018   .     S
