data_str_m2_o1_o18_pcu_sym.62
_audit_creation_date              2020-01-03
_audit_creation_method            'Materials Studio'
_symmetry_space_group_name_H-M    'P1'
_symmetry_Int_Tables_number       1
_symmetry_cell_setting            triclinic
loop_
_symmetry_equiv_pos_as_xyz
  x,y,z
_cell_length_a                    28.6000
_cell_length_b                    32.3706
_cell_length_c                    30.8066
_cell_angle_alpha                 89.6362
_cell_angle_beta                  74.0892
_cell_angle_gamma                 90.0448
loop_
_atom_site_label
_atom_site_type_symbol
_atom_site_fract_x
_atom_site_fract_y
_atom_site_fract_z
_atom_site_U_iso_or_equiv
_atom_site_adp_type
_atom_site_occupancy
C1     C     0.33299   0.08747   0.25088   0.00000  Uiso   1.00
C2     C     0.01555   0.02049   0.28417   0.00000  Uiso   1.00
C3     C     0.00104   0.29051   0.24828   0.00000  Uiso   1.00
C4     C     0.33234   0.04281   0.25178   0.00000  Uiso   1.00
C5     C     0.18289   0.14185   0.27906   0.00000  Uiso   1.00
C6     C     0.15042   0.19153   0.22099   0.00000  Uiso   1.00
C7     C     0.13331   0.14196   0.27920   0.00000  Uiso   1.00
C8     C     0.19992   0.19165   0.22110   0.00000  Uiso   1.00
C9     C     0.30590   0.16700   0.33643   0.00000  Uiso   1.00
C10    C     0.02734   0.16508   0.16387   0.00000  Uiso   1.00
C11    C     0.29106   0.16702   0.38639   0.00000  Uiso   1.00
C12    C     0.00033   0.24586   0.24919   0.00000  Uiso   1.00
C13    C     0.04257   0.15517   0.11563   0.00000  Uiso   1.00
C14    C     0.31040   0.17635   0.45768   0.00000  Uiso   1.00
C15    C     0.03593   0.11118   0.05432   0.00000  Uiso   1.00
C16    C     0.32534   0.17321   0.41081   0.00000  Uiso   1.00
C17    C     0.01663   0.12632   0.09776   0.00000  Uiso   1.00
C18    C     0.24216   0.16044   0.41013   0.00000  Uiso   1.00
C19    C     0.08787   0.16885   0.08966   0.00000  Uiso   1.00
C20    C     0.22784   0.15784   0.45765   0.00000  Uiso   1.00
C21    C     0.11156   0.14892   0.04897   0.00000  Uiso   1.00
C22    C     0.26079   0.17163   0.48154   0.00000  Uiso   1.00
C23    C     0.19497   0.16928   0.05111   0.00000  Uiso   1.00
C24    C     0.08373   0.12218   0.02905   0.00000  Uiso   1.00
C25    C     0.18053   0.14430   0.48175   0.00000  Uiso   1.00
C26    C     0.16191   0.15525   0.02750   0.00000  Uiso   1.00
C27    C     0.27230   0.20169   0.05402   0.00000  Uiso   1.00
C28    C     0.07978   0.07741   0.46262   0.00000  Uiso   1.00
C29    C     0.30574   0.29238   0.17720   0.00000  Uiso   1.00
C30    C     0.02969   0.04099   0.32173   0.00000  Uiso   1.00
C31    C     0.15320   0.11687   0.46267   0.00000  Uiso   1.00
C32    C     0.24334   0.17903   0.02844   0.00000  Uiso   1.00
C33    C     0.10544   0.10595   0.48563   0.00000  Uiso   1.00
C34    C     0.31669   0.02247   0.21826   0.00000  Uiso   1.00
C35    C     0.01673   0.31085   0.28179   0.00000  Uiso   1.00
C36    C     0.31825   0.31284   0.21564   0.00000  Uiso   1.00
Cu37   Cu    0.04689   0.16667   0.25000   0.00000  Uiso   1.00
Cu38   Cu    0.28645   0.16666   0.25000   0.00000  Uiso   1.00
F39    F     0.10678   0.20345   0.10318   0.00000  Uiso   1.00
F40    F     0.03061   0.28844   0.31365   0.00000  Uiso   1.00
F41    F     0.10149   0.11729   0.30880   0.00000  Uiso   1.00
F42    F     0.23146   0.21720   0.19246   0.00000  Uiso   1.00
F43    F     0.20764   0.16075   0.38732   0.00000  Uiso   1.00
F44    F     0.30631   0.11172   0.12283   0.00000  Uiso   1.00
F45    F     0.04002   0.17790   0.38946   0.00000  Uiso   1.00
F46    F     0.01207   0.18148   0.47934   0.00000  Uiso   1.00
F47    F     0.00856   0.08352   0.03909   0.00000  Uiso   1.00
F48    F     0.18206   0.16956   0.09697   0.00000  Uiso   1.00
F49    F     0.17456   0.09661   0.42373   0.00000  Uiso   1.00
F50    F     0.30279   0.04488   0.18644   0.00000  Uiso   1.00
H51    H     0.19469   0.12193   0.30233   0.00000  Uiso   1.00
H52    H     0.13861   0.21153   0.19781   0.00000  Uiso   1.00
H53    H     0.29148   0.20779   0.11174   0.00000  Uiso   1.00
H54    H     0.07574   0.02010   0.43859   0.00000  Uiso   1.00
H55    H     0.26372   0.29184   0.13420   0.00000  Uiso   1.00
H56    H     0.07495   0.04234   0.36166   0.00000  Uiso   1.00
N57    N     0.11736   0.16668   0.24999   0.00000  Uiso   1.00
N58    N     0.21597   0.16666   0.25001   0.00000  Uiso   1.00
O59    O     0.03958   0.10655   0.25000   0.00000  Uiso   1.00
O60    O     0.27080   0.18944   0.09790   0.00000  Uiso   1.00
O61    O     0.04496   0.08955   0.45033   0.00000  Uiso   1.00
O62    O     0.09646   0.03691   0.45394   0.00000  Uiso   1.00
O63    O     0.32870   0.26226   0.15932   0.00000  Uiso   1.00
O64    O     0.26850   0.30825   0.16060   0.00000  Uiso   1.00
O65    O     0.00710   0.07099   0.34039   0.00000  Uiso   1.00
O66    O     0.06844   0.02546   0.33633   0.00000  Uiso   1.00
O67    O     0.29375   0.22678   0.25000   0.00000  Uiso   1.00
O68    O     0.29372   0.10654   0.25001   0.00000  Uiso   1.00
O69    O     0.03961   0.22679   0.24999   0.00000  Uiso   1.00
O70    O     0.01852   0.16668   0.31491   0.00000  Uiso   1.00
O71    O     0.31481   0.16666   0.18508   0.00000  Uiso   1.00
O72    O     0.27267   0.16667   0.31492   0.00000  Uiso   1.00
O73    O     0.06067   0.16667   0.18508   0.00000  Uiso   1.00
O74    O     0.29536   0.23253   0.03763   0.00000  Uiso   1.00
C75    C     0.66633   0.08747   0.25088   0.00000  Uiso   1.00
C76    C     0.34888   0.02049   0.28417   0.00000  Uiso   1.00
C77    C     0.33437   0.29051   0.24828   0.00000  Uiso   1.00
C78    C     0.66568   0.04281   0.25178   0.00000  Uiso   1.00
C79    C     0.51623   0.14185   0.27906   0.00000  Uiso   1.00
C80    C     0.48375   0.19153   0.22099   0.00000  Uiso   1.00
C81    C     0.46664   0.14196   0.27920   0.00000  Uiso   1.00
C82    C     0.53325   0.19165   0.22110   0.00000  Uiso   1.00
C83    C     0.63924   0.16700   0.33643   0.00000  Uiso   1.00
C84    C     0.36068   0.16508   0.16387   0.00000  Uiso   1.00
C85    C     0.62440   0.16702   0.38639   0.00000  Uiso   1.00
C86    C     0.33367   0.24586   0.24919   0.00000  Uiso   1.00
C87    C     0.37591   0.15517   0.11563   0.00000  Uiso   1.00
C88    C     0.64373   0.17635   0.45768   0.00000  Uiso   1.00
C89    C     0.36927   0.11118   0.05432   0.00000  Uiso   1.00
C90    C     0.65867   0.17321   0.41081   0.00000  Uiso   1.00
C91    C     0.34996   0.12632   0.09776   0.00000  Uiso   1.00
C92    C     0.57549   0.16044   0.41013   0.00000  Uiso   1.00
C93    C     0.42121   0.16885   0.08966   0.00000  Uiso   1.00
C94    C     0.56117   0.15784   0.45765   0.00000  Uiso   1.00
C95    C     0.44490   0.14892   0.04897   0.00000  Uiso   1.00
C96    C     0.59413   0.17163   0.48154   0.00000  Uiso   1.00
C97    C     0.52830   0.16928   0.05111   0.00000  Uiso   1.00
C98    C     0.41706   0.12218   0.02905   0.00000  Uiso   1.00
C99    C     0.51386   0.14430   0.48175   0.00000  Uiso   1.00
C100   C     0.49525   0.15525   0.02750   0.00000  Uiso   1.00
C101   C     0.60563   0.20169   0.05402   0.00000  Uiso   1.00
C102   C     0.41311   0.07741   0.46262   0.00000  Uiso   1.00
C103   C     0.63908   0.29238   0.17720   0.00000  Uiso   1.00
C104   C     0.36302   0.04099   0.32173   0.00000  Uiso   1.00
C105   C     0.48653   0.11687   0.46267   0.00000  Uiso   1.00
C106   C     0.57667   0.17903   0.02844   0.00000  Uiso   1.00
C107   C     0.43877   0.10595   0.48563   0.00000  Uiso   1.00
C108   C     0.65002   0.02247   0.21826   0.00000  Uiso   1.00
C109   C     0.35006   0.31085   0.28179   0.00000  Uiso   1.00
C110   C     0.65159   0.31284   0.21564   0.00000  Uiso   1.00
Cu111  Cu    0.38022   0.16667   0.25000   0.00000  Uiso   1.00
Cu112  Cu    0.61978   0.16666   0.25000   0.00000  Uiso   1.00
F113   F     0.44011   0.20345   0.10318   0.00000  Uiso   1.00
F114   F     0.36394   0.28844   0.31365   0.00000  Uiso   1.00
F115   F     0.43482   0.11729   0.30880   0.00000  Uiso   1.00
F116   F     0.56479   0.21720   0.19246   0.00000  Uiso   1.00
F117   F     0.54097   0.16075   0.38732   0.00000  Uiso   1.00
F118   F     0.63964   0.11172   0.12283   0.00000  Uiso   1.00
F119   F     0.37335   0.17790   0.38946   0.00000  Uiso   1.00
F120   F     0.34540   0.18148   0.47934   0.00000  Uiso   1.00
F121   F     0.34190   0.08352   0.03909   0.00000  Uiso   1.00
F122   F     0.51539   0.16956   0.09697   0.00000  Uiso   1.00
F123   F     0.50789   0.09661   0.42373   0.00000  Uiso   1.00
F124   F     0.63612   0.04488   0.18644   0.00000  Uiso   1.00
H125   H     0.52802   0.12193   0.30233   0.00000  Uiso   1.00
H126   H     0.47194   0.21153   0.19781   0.00000  Uiso   1.00
H127   H     0.62481   0.20779   0.11174   0.00000  Uiso   1.00
H128   H     0.40907   0.02010   0.43859   0.00000  Uiso   1.00
H129   H     0.59705   0.29184   0.13420   0.00000  Uiso   1.00
H130   H     0.40828   0.04234   0.36166   0.00000  Uiso   1.00
N131   N     0.45069   0.16668   0.24999   0.00000  Uiso   1.00
N132   N     0.54931   0.16666   0.25001   0.00000  Uiso   1.00
O133   O     0.37291   0.10655   0.25000   0.00000  Uiso   1.00
O134   O     0.60413   0.18944   0.09790   0.00000  Uiso   1.00
O135   O     0.37829   0.08955   0.45033   0.00000  Uiso   1.00
O136   O     0.42979   0.03691   0.45394   0.00000  Uiso   1.00
O137   O     0.66203   0.26226   0.15932   0.00000  Uiso   1.00
O138   O     0.60183   0.30825   0.16060   0.00000  Uiso   1.00
O139   O     0.34044   0.07099   0.34039   0.00000  Uiso   1.00
O140   O     0.40177   0.02546   0.33633   0.00000  Uiso   1.00
O141   O     0.62709   0.22678   0.25000   0.00000  Uiso   1.00
O142   O     0.62706   0.10654   0.25001   0.00000  Uiso   1.00
O143   O     0.37294   0.22679   0.24999   0.00000  Uiso   1.00
O144   O     0.35186   0.16668   0.31491   0.00000  Uiso   1.00
O145   O     0.64814   0.16666   0.18508   0.00000  Uiso   1.00
O146   O     0.60600   0.16667   0.31492   0.00000  Uiso   1.00
O147   O     0.39400   0.16667   0.18508   0.00000  Uiso   1.00
O148   O     0.62869   0.23253   0.03763   0.00000  Uiso   1.00
C149   C     0.99966   0.08747   0.25088   0.00000  Uiso   1.00
C150   C     0.68222   0.02049   0.28417   0.00000  Uiso   1.00
C151   C     0.66771   0.29051   0.24828   0.00000  Uiso   1.00
C152   C     0.99901   0.04281   0.25178   0.00000  Uiso   1.00
C153   C     0.84956   0.14185   0.27906   0.00000  Uiso   1.00
C154   C     0.81709   0.19153   0.22099   0.00000  Uiso   1.00
C155   C     0.79998   0.14196   0.27920   0.00000  Uiso   1.00
C156   C     0.86659   0.19165   0.22110   0.00000  Uiso   1.00
C157   C     0.97257   0.16700   0.33643   0.00000  Uiso   1.00
C158   C     0.69401   0.16508   0.16387   0.00000  Uiso   1.00
C159   C     0.95773   0.16702   0.38639   0.00000  Uiso   1.00
C160   C     0.66700   0.24586   0.24919   0.00000  Uiso   1.00
C161   C     0.70924   0.15517   0.11563   0.00000  Uiso   1.00
C162   C     0.97707   0.17635   0.45768   0.00000  Uiso   1.00
C163   C     0.70260   0.11118   0.05432   0.00000  Uiso   1.00
C164   C     0.99200   0.17321   0.41081   0.00000  Uiso   1.00
C165   C     0.68330   0.12632   0.09776   0.00000  Uiso   1.00
C166   C     0.90882   0.16044   0.41013   0.00000  Uiso   1.00
C167   C     0.75454   0.16885   0.08966   0.00000  Uiso   1.00
C168   C     0.89450   0.15784   0.45765   0.00000  Uiso   1.00
C169   C     0.77823   0.14892   0.04897   0.00000  Uiso   1.00
C170   C     0.92746   0.17163   0.48154   0.00000  Uiso   1.00
C171   C     0.86164   0.16928   0.05111   0.00000  Uiso   1.00
C172   C     0.75040   0.12218   0.02905   0.00000  Uiso   1.00
C173   C     0.84720   0.14430   0.48175   0.00000  Uiso   1.00
C174   C     0.82858   0.15525   0.02750   0.00000  Uiso   1.00
C175   C     0.93897   0.20169   0.05402   0.00000  Uiso   1.00
C176   C     0.74645   0.07741   0.46262   0.00000  Uiso   1.00
C177   C     0.97241   0.29238   0.17720   0.00000  Uiso   1.00
C178   C     0.69636   0.04099   0.32173   0.00000  Uiso   1.00
C179   C     0.81987   0.11687   0.46267   0.00000  Uiso   1.00
C180   C     0.91001   0.17903   0.02844   0.00000  Uiso   1.00
C181   C     0.77211   0.10595   0.48563   0.00000  Uiso   1.00
C182   C     0.98336   0.02247   0.21826   0.00000  Uiso   1.00
C183   C     0.68339   0.31085   0.28179   0.00000  Uiso   1.00
C184   C     0.98492   0.31284   0.21564   0.00000  Uiso   1.00
Cu185  Cu    0.71355   0.16667   0.25000   0.00000  Uiso   1.00
Cu186  Cu    0.95311   0.16666   0.25000   0.00000  Uiso   1.00
F187   F     0.77344   0.20345   0.10318   0.00000  Uiso   1.00
F188   F     0.69728   0.28844   0.31365   0.00000  Uiso   1.00
F189   F     0.76815   0.11729   0.30880   0.00000  Uiso   1.00
F190   F     0.89812   0.21720   0.19246   0.00000  Uiso   1.00
F191   F     0.87431   0.16075   0.38732   0.00000  Uiso   1.00
F192   F     0.97297   0.11172   0.12283   0.00000  Uiso   1.00
F193   F     0.70669   0.17790   0.38946   0.00000  Uiso   1.00
F194   F     0.67874   0.18148   0.47934   0.00000  Uiso   1.00
F195   F     0.67523   0.08352   0.03909   0.00000  Uiso   1.00
F196   F     0.84873   0.16956   0.09697   0.00000  Uiso   1.00
F197   F     0.84123   0.09661   0.42373   0.00000  Uiso   1.00
F198   F     0.96945   0.04488   0.18644   0.00000  Uiso   1.00
H199   H     0.86135   0.12193   0.30233   0.00000  Uiso   1.00
H200   H     0.80527   0.21153   0.19781   0.00000  Uiso   1.00
H201   H     0.95814   0.20779   0.11174   0.00000  Uiso   1.00
H202   H     0.74240   0.02010   0.43859   0.00000  Uiso   1.00
H203   H     0.93039   0.29184   0.13420   0.00000  Uiso   1.00
H204   H     0.74162   0.04234   0.36166   0.00000  Uiso   1.00
N205   N     0.78403   0.16668   0.24999   0.00000  Uiso   1.00
N206   N     0.88264   0.16666   0.25001   0.00000  Uiso   1.00
O207   O     0.70625   0.10655   0.25000   0.00000  Uiso   1.00
O208   O     0.93746   0.18944   0.09790   0.00000  Uiso   1.00
O209   O     0.71162   0.08955   0.45033   0.00000  Uiso   1.00
O210   O     0.76313   0.03691   0.45394   0.00000  Uiso   1.00
O211   O     0.99536   0.26226   0.15932   0.00000  Uiso   1.00
O212   O     0.93517   0.30825   0.16060   0.00000  Uiso   1.00
O213   O     0.67377   0.07099   0.34039   0.00000  Uiso   1.00
O214   O     0.73510   0.02546   0.33633   0.00000  Uiso   1.00
O215   O     0.96042   0.22678   0.25000   0.00000  Uiso   1.00
O216   O     0.96039   0.10654   0.25001   0.00000  Uiso   1.00
O217   O     0.70628   0.22679   0.24999   0.00000  Uiso   1.00
O218   O     0.68519   0.16668   0.31491   0.00000  Uiso   1.00
O219   O     0.98148   0.16666   0.18508   0.00000  Uiso   1.00
O220   O     0.93933   0.16667   0.31492   0.00000  Uiso   1.00
O221   O     0.72733   0.16667   0.18508   0.00000  Uiso   1.00
O222   O     0.96203   0.23253   0.03763   0.00000  Uiso   1.00
C223   C     0.33299   0.42081   0.25088   0.00000  Uiso   1.00
C224   C     0.01555   0.35383   0.28417   0.00000  Uiso   1.00
C225   C     0.00104   0.62384   0.24828   0.00000  Uiso   1.00
C226   C     0.33234   0.37615   0.25178   0.00000  Uiso   1.00
C227   C     0.18289   0.47519   0.27906   0.00000  Uiso   1.00
C228   C     0.15042   0.52486   0.22099   0.00000  Uiso   1.00
C229   C     0.13331   0.47530   0.27920   0.00000  Uiso   1.00
C230   C     0.19992   0.52498   0.22110   0.00000  Uiso   1.00
C231   C     0.30590   0.50033   0.33643   0.00000  Uiso   1.00
C232   C     0.02734   0.49842   0.16387   0.00000  Uiso   1.00
C233   C     0.29106   0.50035   0.38639   0.00000  Uiso   1.00
C234   C     0.00033   0.57919   0.24919   0.00000  Uiso   1.00
C235   C     0.04257   0.48850   0.11563   0.00000  Uiso   1.00
C236   C     0.31040   0.50968   0.45768   0.00000  Uiso   1.00
C237   C     0.03593   0.44452   0.05432   0.00000  Uiso   1.00
C238   C     0.32534   0.50654   0.41081   0.00000  Uiso   1.00
C239   C     0.01663   0.45965   0.09776   0.00000  Uiso   1.00
C240   C     0.24216   0.49377   0.41013   0.00000  Uiso   1.00
C241   C     0.08787   0.50219   0.08966   0.00000  Uiso   1.00
C242   C     0.22784   0.49118   0.45765   0.00000  Uiso   1.00
C243   C     0.11156   0.48225   0.04897   0.00000  Uiso   1.00
C244   C     0.26079   0.50497   0.48154   0.00000  Uiso   1.00
C245   C     0.19497   0.50261   0.05111   0.00000  Uiso   1.00
C246   C     0.08373   0.45552   0.02905   0.00000  Uiso   1.00
C247   C     0.18053   0.47764   0.48175   0.00000  Uiso   1.00
C248   C     0.16191   0.48858   0.02750   0.00000  Uiso   1.00
C249   C     0.27230   0.53502   0.05402   0.00000  Uiso   1.00
C250   C     0.07978   0.41074   0.46262   0.00000  Uiso   1.00
C251   C     0.30574   0.62572   0.17720   0.00000  Uiso   1.00
C252   C     0.02969   0.37433   0.32173   0.00000  Uiso   1.00
C253   C     0.15320   0.45021   0.46267   0.00000  Uiso   1.00
C254   C     0.24334   0.51237   0.02844   0.00000  Uiso   1.00
C255   C     0.10544   0.43928   0.48563   0.00000  Uiso   1.00
C256   C     0.31669   0.35580   0.21826   0.00000  Uiso   1.00
C257   C     0.01673   0.64418   0.28179   0.00000  Uiso   1.00
C258   C     0.31825   0.64617   0.21564   0.00000  Uiso   1.00
Cu259  Cu    0.04689   0.50001   0.25000   0.00000  Uiso   1.00
Cu260  Cu    0.28645   0.49999   0.25000   0.00000  Uiso   1.00
F261   F     0.10678   0.53678   0.10318   0.00000  Uiso   1.00
F262   F     0.03061   0.62178   0.31365   0.00000  Uiso   1.00
F263   F     0.10149   0.45063   0.30880   0.00000  Uiso   1.00
F264   F     0.23146   0.55053   0.19246   0.00000  Uiso   1.00
F265   F     0.20764   0.49408   0.38732   0.00000  Uiso   1.00
F266   F     0.30631   0.44505   0.12283   0.00000  Uiso   1.00
F267   F     0.04002   0.51123   0.38946   0.00000  Uiso   1.00
F268   F     0.01207   0.51482   0.47934   0.00000  Uiso   1.00
F269   F     0.00856   0.41685   0.03909   0.00000  Uiso   1.00
F270   F     0.18206   0.50289   0.09697   0.00000  Uiso   1.00
F271   F     0.17456   0.42994   0.42373   0.00000  Uiso   1.00
F272   F     0.30279   0.37821   0.18644   0.00000  Uiso   1.00
H273   H     0.19469   0.45526   0.30233   0.00000  Uiso   1.00
H274   H     0.13861   0.54487   0.19781   0.00000  Uiso   1.00
H275   H     0.29148   0.54113   0.11174   0.00000  Uiso   1.00
H276   H     0.07574   0.35344   0.43859   0.00000  Uiso   1.00
H277   H     0.26372   0.62517   0.13420   0.00000  Uiso   1.00
H278   H     0.07495   0.37567   0.36166   0.00000  Uiso   1.00
N279   N     0.11736   0.50001   0.24999   0.00000  Uiso   1.00
N280   N     0.21597   0.49999   0.25001   0.00000  Uiso   1.00
O281   O     0.03958   0.43989   0.25000   0.00000  Uiso   1.00
O282   O     0.27080   0.52277   0.09790   0.00000  Uiso   1.00
O283   O     0.04496   0.42288   0.45033   0.00000  Uiso   1.00
O284   O     0.09646   0.37025   0.45394   0.00000  Uiso   1.00
O285   O     0.32870   0.59559   0.15932   0.00000  Uiso   1.00
O286   O     0.26850   0.64158   0.16060   0.00000  Uiso   1.00
O287   O     0.00710   0.40433   0.34039   0.00000  Uiso   1.00
O288   O     0.06844   0.35879   0.33633   0.00000  Uiso   1.00
O289   O     0.29375   0.56011   0.25000   0.00000  Uiso   1.00
O290   O     0.29372   0.43988   0.25001   0.00000  Uiso   1.00
O291   O     0.03961   0.56012   0.24999   0.00000  Uiso   1.00
O292   O     0.01852   0.50001   0.31491   0.00000  Uiso   1.00
O293   O     0.31481   0.49999   0.18508   0.00000  Uiso   1.00
O294   O     0.27267   0.50000   0.31492   0.00000  Uiso   1.00
O295   O     0.06067   0.50000   0.18508   0.00000  Uiso   1.00
O296   O     0.29536   0.56586   0.03763   0.00000  Uiso   1.00
C297   C     0.66633   0.42081   0.25088   0.00000  Uiso   1.00
C298   C     0.34888   0.35383   0.28417   0.00000  Uiso   1.00
C299   C     0.33437   0.62384   0.24828   0.00000  Uiso   1.00
C300   C     0.66568   0.37615   0.25178   0.00000  Uiso   1.00
C301   C     0.51623   0.47519   0.27906   0.00000  Uiso   1.00
C302   C     0.48375   0.52486   0.22099   0.00000  Uiso   1.00
C303   C     0.46664   0.47530   0.27920   0.00000  Uiso   1.00
C304   C     0.53325   0.52498   0.22110   0.00000  Uiso   1.00
C305   C     0.63924   0.50033   0.33643   0.00000  Uiso   1.00
C306   C     0.36068   0.49842   0.16387   0.00000  Uiso   1.00
C307   C     0.62440   0.50035   0.38639   0.00000  Uiso   1.00
C308   C     0.33367   0.57919   0.24919   0.00000  Uiso   1.00
C309   C     0.37591   0.48850   0.11563   0.00000  Uiso   1.00
C310   C     0.64373   0.50968   0.45768   0.00000  Uiso   1.00
C311   C     0.36927   0.44452   0.05432   0.00000  Uiso   1.00
C312   C     0.65867   0.50654   0.41081   0.00000  Uiso   1.00
C313   C     0.34996   0.45965   0.09776   0.00000  Uiso   1.00
C314   C     0.57549   0.49377   0.41013   0.00000  Uiso   1.00
C315   C     0.42121   0.50219   0.08966   0.00000  Uiso   1.00
C316   C     0.56117   0.49118   0.45765   0.00000  Uiso   1.00
C317   C     0.44490   0.48225   0.04897   0.00000  Uiso   1.00
C318   C     0.59413   0.50497   0.48154   0.00000  Uiso   1.00
C319   C     0.52830   0.50261   0.05111   0.00000  Uiso   1.00
C320   C     0.41706   0.45552   0.02905   0.00000  Uiso   1.00
C321   C     0.51386   0.47764   0.48175   0.00000  Uiso   1.00
C322   C     0.49525   0.48858   0.02750   0.00000  Uiso   1.00
C323   C     0.60563   0.53502   0.05402   0.00000  Uiso   1.00
C324   C     0.41311   0.41074   0.46262   0.00000  Uiso   1.00
C325   C     0.63908   0.62572   0.17720   0.00000  Uiso   1.00
C326   C     0.36302   0.37433   0.32173   0.00000  Uiso   1.00
C327   C     0.48653   0.45021   0.46267   0.00000  Uiso   1.00
C328   C     0.57667   0.51237   0.02844   0.00000  Uiso   1.00
C329   C     0.43877   0.43928   0.48563   0.00000  Uiso   1.00
C330   C     0.65002   0.35580   0.21826   0.00000  Uiso   1.00
C331   C     0.35006   0.64418   0.28179   0.00000  Uiso   1.00
C332   C     0.65159   0.64617   0.21564   0.00000  Uiso   1.00
Cu333  Cu    0.38022   0.50001   0.25000   0.00000  Uiso   1.00
Cu334  Cu    0.61978   0.49999   0.25000   0.00000  Uiso   1.00
F335   F     0.44011   0.53678   0.10318   0.00000  Uiso   1.00
F336   F     0.36394   0.62178   0.31365   0.00000  Uiso   1.00
F337   F     0.43482   0.45063   0.30880   0.00000  Uiso   1.00
F338   F     0.56479   0.55053   0.19246   0.00000  Uiso   1.00
F339   F     0.54097   0.49408   0.38732   0.00000  Uiso   1.00
F340   F     0.63964   0.44505   0.12283   0.00000  Uiso   1.00
F341   F     0.37335   0.51123   0.38946   0.00000  Uiso   1.00
F342   F     0.34540   0.51482   0.47934   0.00000  Uiso   1.00
F343   F     0.34190   0.41685   0.03909   0.00000  Uiso   1.00
F344   F     0.51539   0.50289   0.09697   0.00000  Uiso   1.00
F345   F     0.50789   0.42994   0.42373   0.00000  Uiso   1.00
F346   F     0.63612   0.37821   0.18644   0.00000  Uiso   1.00
H347   H     0.52802   0.45526   0.30233   0.00000  Uiso   1.00
H348   H     0.47194   0.54487   0.19781   0.00000  Uiso   1.00
H349   H     0.62481   0.54113   0.11174   0.00000  Uiso   1.00
H350   H     0.40907   0.35344   0.43859   0.00000  Uiso   1.00
H351   H     0.59705   0.62517   0.13420   0.00000  Uiso   1.00
H352   H     0.40828   0.37567   0.36166   0.00000  Uiso   1.00
N353   N     0.45069   0.50001   0.24999   0.00000  Uiso   1.00
N354   N     0.54931   0.49999   0.25001   0.00000  Uiso   1.00
O355   O     0.37291   0.43989   0.25000   0.00000  Uiso   1.00
O356   O     0.60413   0.52277   0.09790   0.00000  Uiso   1.00
O357   O     0.37829   0.42288   0.45033   0.00000  Uiso   1.00
O358   O     0.42979   0.37025   0.45394   0.00000  Uiso   1.00
O359   O     0.66203   0.59559   0.15932   0.00000  Uiso   1.00
O360   O     0.60183   0.64158   0.16060   0.00000  Uiso   1.00
O361   O     0.34044   0.40433   0.34039   0.00000  Uiso   1.00
O362   O     0.40177   0.35879   0.33633   0.00000  Uiso   1.00
O363   O     0.62709   0.56011   0.25000   0.00000  Uiso   1.00
O364   O     0.62706   0.43988   0.25001   0.00000  Uiso   1.00
O365   O     0.37294   0.56012   0.24999   0.00000  Uiso   1.00
O366   O     0.35186   0.50001   0.31491   0.00000  Uiso   1.00
O367   O     0.64814   0.49999   0.18508   0.00000  Uiso   1.00
O368   O     0.60600   0.50000   0.31492   0.00000  Uiso   1.00
O369   O     0.39400   0.50000   0.18508   0.00000  Uiso   1.00
O370   O     0.62869   0.56586   0.03763   0.00000  Uiso   1.00
C371   C     0.99966   0.42081   0.25088   0.00000  Uiso   1.00
C372   C     0.68222   0.35383   0.28417   0.00000  Uiso   1.00
C373   C     0.66771   0.62384   0.24828   0.00000  Uiso   1.00
C374   C     0.99901   0.37615   0.25178   0.00000  Uiso   1.00
C375   C     0.84956   0.47519   0.27906   0.00000  Uiso   1.00
C376   C     0.81709   0.52486   0.22099   0.00000  Uiso   1.00
C377   C     0.79998   0.47530   0.27920   0.00000  Uiso   1.00
C378   C     0.86659   0.52498   0.22110   0.00000  Uiso   1.00
C379   C     0.97257   0.50033   0.33643   0.00000  Uiso   1.00
C380   C     0.69401   0.49842   0.16387   0.00000  Uiso   1.00
C381   C     0.95773   0.50035   0.38639   0.00000  Uiso   1.00
C382   C     0.66700   0.57919   0.24919   0.00000  Uiso   1.00
C383   C     0.70924   0.48850   0.11563   0.00000  Uiso   1.00
C384   C     0.97707   0.50968   0.45768   0.00000  Uiso   1.00
C385   C     0.70260   0.44452   0.05432   0.00000  Uiso   1.00
C386   C     0.99200   0.50654   0.41081   0.00000  Uiso   1.00
C387   C     0.68330   0.45965   0.09776   0.00000  Uiso   1.00
C388   C     0.90882   0.49377   0.41013   0.00000  Uiso   1.00
C389   C     0.75454   0.50219   0.08966   0.00000  Uiso   1.00
C390   C     0.89450   0.49118   0.45765   0.00000  Uiso   1.00
C391   C     0.77823   0.48225   0.04897   0.00000  Uiso   1.00
C392   C     0.92746   0.50497   0.48154   0.00000  Uiso   1.00
C393   C     0.86164   0.50261   0.05111   0.00000  Uiso   1.00
C394   C     0.75040   0.45552   0.02905   0.00000  Uiso   1.00
C395   C     0.84720   0.47764   0.48175   0.00000  Uiso   1.00
C396   C     0.82858   0.48858   0.02750   0.00000  Uiso   1.00
C397   C     0.93897   0.53502   0.05402   0.00000  Uiso   1.00
C398   C     0.74645   0.41074   0.46262   0.00000  Uiso   1.00
C399   C     0.97241   0.62572   0.17720   0.00000  Uiso   1.00
C400   C     0.69636   0.37433   0.32173   0.00000  Uiso   1.00
C401   C     0.81987   0.45021   0.46267   0.00000  Uiso   1.00
C402   C     0.91001   0.51237   0.02844   0.00000  Uiso   1.00
C403   C     0.77211   0.43928   0.48563   0.00000  Uiso   1.00
C404   C     0.98336   0.35580   0.21826   0.00000  Uiso   1.00
C405   C     0.68339   0.64418   0.28179   0.00000  Uiso   1.00
C406   C     0.98492   0.64617   0.21564   0.00000  Uiso   1.00
Cu407  Cu    0.71355   0.50001   0.25000   0.00000  Uiso   1.00
Cu408  Cu    0.95311   0.49999   0.25000   0.00000  Uiso   1.00
F409   F     0.77344   0.53678   0.10318   0.00000  Uiso   1.00
F410   F     0.69728   0.62178   0.31365   0.00000  Uiso   1.00
F411   F     0.76815   0.45063   0.30880   0.00000  Uiso   1.00
F412   F     0.89812   0.55053   0.19246   0.00000  Uiso   1.00
F413   F     0.87431   0.49408   0.38732   0.00000  Uiso   1.00
F414   F     0.97297   0.44505   0.12283   0.00000  Uiso   1.00
F415   F     0.70669   0.51123   0.38946   0.00000  Uiso   1.00
F416   F     0.67874   0.51482   0.47934   0.00000  Uiso   1.00
F417   F     0.67523   0.41685   0.03909   0.00000  Uiso   1.00
F418   F     0.84873   0.50289   0.09697   0.00000  Uiso   1.00
F419   F     0.84123   0.42994   0.42373   0.00000  Uiso   1.00
F420   F     0.96945   0.37821   0.18644   0.00000  Uiso   1.00
H421   H     0.86135   0.45526   0.30233   0.00000  Uiso   1.00
H422   H     0.80527   0.54487   0.19781   0.00000  Uiso   1.00
H423   H     0.95814   0.54113   0.11174   0.00000  Uiso   1.00
H424   H     0.74240   0.35344   0.43859   0.00000  Uiso   1.00
H425   H     0.93039   0.62517   0.13420   0.00000  Uiso   1.00
H426   H     0.74162   0.37567   0.36166   0.00000  Uiso   1.00
N427   N     0.78403   0.50001   0.24999   0.00000  Uiso   1.00
N428   N     0.88264   0.49999   0.25001   0.00000  Uiso   1.00
O429   O     0.70625   0.43989   0.25000   0.00000  Uiso   1.00
O430   O     0.93746   0.52277   0.09790   0.00000  Uiso   1.00
O431   O     0.71162   0.42288   0.45033   0.00000  Uiso   1.00
O432   O     0.76313   0.37025   0.45394   0.00000  Uiso   1.00
O433   O     0.99536   0.59559   0.15932   0.00000  Uiso   1.00
O434   O     0.93517   0.64158   0.16060   0.00000  Uiso   1.00
O435   O     0.67377   0.40433   0.34039   0.00000  Uiso   1.00
O436   O     0.73510   0.35879   0.33633   0.00000  Uiso   1.00
O437   O     0.96042   0.56011   0.25000   0.00000  Uiso   1.00
O438   O     0.96039   0.43988   0.25001   0.00000  Uiso   1.00
O439   O     0.70628   0.56012   0.24999   0.00000  Uiso   1.00
O440   O     0.68519   0.50001   0.31491   0.00000  Uiso   1.00
O441   O     0.98148   0.49999   0.18508   0.00000  Uiso   1.00
O442   O     0.93933   0.50000   0.31492   0.00000  Uiso   1.00
O443   O     0.72733   0.50000   0.18508   0.00000  Uiso   1.00
O444   O     0.96203   0.56586   0.03763   0.00000  Uiso   1.00
C445   C     0.33299   0.75414   0.25088   0.00000  Uiso   1.00
C446   C     0.01555   0.68716   0.28417   0.00000  Uiso   1.00
C447   C     0.00104   0.95718   0.24828   0.00000  Uiso   1.00
C448   C     0.33234   0.70948   0.25178   0.00000  Uiso   1.00
C449   C     0.18289   0.80852   0.27906   0.00000  Uiso   1.00
C450   C     0.15042   0.85820   0.22099   0.00000  Uiso   1.00
C451   C     0.13331   0.80863   0.27920   0.00000  Uiso   1.00
C452   C     0.19992   0.85832   0.22110   0.00000  Uiso   1.00
C453   C     0.30590   0.83366   0.33643   0.00000  Uiso   1.00
C454   C     0.02734   0.83175   0.16387   0.00000  Uiso   1.00
C455   C     0.29106   0.83368   0.38639   0.00000  Uiso   1.00
C456   C     0.00033   0.91253   0.24919   0.00000  Uiso   1.00
C457   C     0.04257   0.82183   0.11563   0.00000  Uiso   1.00
C458   C     0.31040   0.84301   0.45768   0.00000  Uiso   1.00
C459   C     0.03593   0.77785   0.05432   0.00000  Uiso   1.00
C460   C     0.32534   0.83987   0.41081   0.00000  Uiso   1.00
C461   C     0.01663   0.79299   0.09776   0.00000  Uiso   1.00
C462   C     0.24216   0.82710   0.41013   0.00000  Uiso   1.00
C463   C     0.08787   0.83552   0.08966   0.00000  Uiso   1.00
C464   C     0.22784   0.82451   0.45765   0.00000  Uiso   1.00
C465   C     0.11156   0.81558   0.04897   0.00000  Uiso   1.00
C466   C     0.26079   0.83830   0.48154   0.00000  Uiso   1.00
C467   C     0.19497   0.83595   0.05111   0.00000  Uiso   1.00
C468   C     0.08373   0.78885   0.02905   0.00000  Uiso   1.00
C469   C     0.18053   0.81097   0.48175   0.00000  Uiso   1.00
C470   C     0.16191   0.82191   0.02750   0.00000  Uiso   1.00
C471   C     0.27230   0.86835   0.05402   0.00000  Uiso   1.00
C472   C     0.07978   0.74407   0.46262   0.00000  Uiso   1.00
C473   C     0.30574   0.95905   0.17720   0.00000  Uiso   1.00
C474   C     0.02969   0.70766   0.32173   0.00000  Uiso   1.00
C475   C     0.15320   0.78354   0.46267   0.00000  Uiso   1.00
C476   C     0.24334   0.84570   0.02844   0.00000  Uiso   1.00
C477   C     0.10544   0.77262   0.48563   0.00000  Uiso   1.00
C478   C     0.31669   0.68913   0.21826   0.00000  Uiso   1.00
C479   C     0.01673   0.97752   0.28179   0.00000  Uiso   1.00
C480   C     0.31825   0.97950   0.21564   0.00000  Uiso   1.00
Cu481  Cu    0.04689   0.83334   0.25000   0.00000  Uiso   1.00
Cu482  Cu    0.28645   0.83333   0.25000   0.00000  Uiso   1.00
F483   F     0.10678   0.87012   0.10318   0.00000  Uiso   1.00
F484   F     0.03061   0.95511   0.31365   0.00000  Uiso   1.00
F485   F     0.10149   0.78396   0.30880   0.00000  Uiso   1.00
F486   F     0.23146   0.88386   0.19246   0.00000  Uiso   1.00
F487   F     0.20764   0.82741   0.38732   0.00000  Uiso   1.00
F488   F     0.30631   0.77839   0.12283   0.00000  Uiso   1.00
F489   F     0.04002   0.84457   0.38946   0.00000  Uiso   1.00
F490   F     0.01207   0.84815   0.47934   0.00000  Uiso   1.00
F491   F     0.00856   0.75018   0.03909   0.00000  Uiso   1.00
F492   F     0.18206   0.83622   0.09697   0.00000  Uiso   1.00
F493   F     0.17456   0.76327   0.42373   0.00000  Uiso   1.00
F494   F     0.30279   0.71154   0.18644   0.00000  Uiso   1.00
H495   H     0.19469   0.78860   0.30233   0.00000  Uiso   1.00
H496   H     0.13861   0.87820   0.19781   0.00000  Uiso   1.00
H497   H     0.29148   0.87446   0.11174   0.00000  Uiso   1.00
H498   H     0.07574   0.68677   0.43859   0.00000  Uiso   1.00
H499   H     0.26372   0.95851   0.13420   0.00000  Uiso   1.00
H500   H     0.07495   0.70901   0.36166   0.00000  Uiso   1.00
N501   N     0.11736   0.83334   0.24999   0.00000  Uiso   1.00
N502   N     0.21597   0.83332   0.25001   0.00000  Uiso   1.00
O503   O     0.03958   0.77322   0.25000   0.00000  Uiso   1.00
O504   O     0.27080   0.85611   0.09790   0.00000  Uiso   1.00
O505   O     0.04496   0.75621   0.45033   0.00000  Uiso   1.00
O506   O     0.09646   0.70358   0.45394   0.00000  Uiso   1.00
O507   O     0.32870   0.92892   0.15932   0.00000  Uiso   1.00
O508   O     0.26850   0.97491   0.16060   0.00000  Uiso   1.00
O509   O     0.00710   0.73766   0.34039   0.00000  Uiso   1.00
O510   O     0.06844   0.69213   0.33633   0.00000  Uiso   1.00
O511   O     0.29375   0.89345   0.25000   0.00000  Uiso   1.00
O512   O     0.29372   0.77321   0.25001   0.00000  Uiso   1.00
O513   O     0.03961   0.89346   0.24999   0.00000  Uiso   1.00
O514   O     0.01852   0.83334   0.31491   0.00000  Uiso   1.00
O515   O     0.31481   0.83332   0.18508   0.00000  Uiso   1.00
O516   O     0.27267   0.83333   0.31492   0.00000  Uiso   1.00
O517   O     0.06067   0.83333   0.18508   0.00000  Uiso   1.00
O518   O     0.29536   0.89919   0.03763   0.00000  Uiso   1.00
C519   C     0.66633   0.75414   0.25088   0.00000  Uiso   1.00
C520   C     0.34888   0.68716   0.28417   0.00000  Uiso   1.00
C521   C     0.33437   0.95718   0.24828   0.00000  Uiso   1.00
C522   C     0.66568   0.70948   0.25178   0.00000  Uiso   1.00
C523   C     0.51623   0.80852   0.27906   0.00000  Uiso   1.00
C524   C     0.48375   0.85820   0.22099   0.00000  Uiso   1.00
C525   C     0.46664   0.80863   0.27920   0.00000  Uiso   1.00
C526   C     0.53325   0.85832   0.22110   0.00000  Uiso   1.00
C527   C     0.63924   0.83366   0.33643   0.00000  Uiso   1.00
C528   C     0.36068   0.83175   0.16387   0.00000  Uiso   1.00
C529   C     0.62440   0.83368   0.38639   0.00000  Uiso   1.00
C530   C     0.33367   0.91253   0.24919   0.00000  Uiso   1.00
C531   C     0.37591   0.82183   0.11563   0.00000  Uiso   1.00
C532   C     0.64373   0.84301   0.45768   0.00000  Uiso   1.00
C533   C     0.36927   0.77785   0.05432   0.00000  Uiso   1.00
C534   C     0.65867   0.83987   0.41081   0.00000  Uiso   1.00
C535   C     0.34996   0.79299   0.09776   0.00000  Uiso   1.00
C536   C     0.57549   0.82710   0.41013   0.00000  Uiso   1.00
C537   C     0.42121   0.83552   0.08966   0.00000  Uiso   1.00
C538   C     0.56117   0.82451   0.45765   0.00000  Uiso   1.00
C539   C     0.44490   0.81558   0.04897   0.00000  Uiso   1.00
C540   C     0.59413   0.83830   0.48154   0.00000  Uiso   1.00
C541   C     0.52830   0.83595   0.05111   0.00000  Uiso   1.00
C542   C     0.41706   0.78885   0.02905   0.00000  Uiso   1.00
C543   C     0.51386   0.81097   0.48175   0.00000  Uiso   1.00
C544   C     0.49525   0.82191   0.02750   0.00000  Uiso   1.00
C545   C     0.60563   0.86835   0.05402   0.00000  Uiso   1.00
C546   C     0.41311   0.74407   0.46262   0.00000  Uiso   1.00
C547   C     0.63908   0.95905   0.17720   0.00000  Uiso   1.00
C548   C     0.36302   0.70766   0.32173   0.00000  Uiso   1.00
C549   C     0.48653   0.78354   0.46267   0.00000  Uiso   1.00
C550   C     0.57667   0.84570   0.02844   0.00000  Uiso   1.00
C551   C     0.43877   0.77262   0.48563   0.00000  Uiso   1.00
C552   C     0.65002   0.68913   0.21826   0.00000  Uiso   1.00
C553   C     0.35006   0.97752   0.28179   0.00000  Uiso   1.00
C554   C     0.65159   0.97950   0.21564   0.00000  Uiso   1.00
Cu555  Cu    0.38022   0.83334   0.25000   0.00000  Uiso   1.00
Cu556  Cu    0.61978   0.83333   0.25000   0.00000  Uiso   1.00
F557   F     0.44011   0.87012   0.10318   0.00000  Uiso   1.00
F558   F     0.36394   0.95511   0.31365   0.00000  Uiso   1.00
F559   F     0.43482   0.78396   0.30880   0.00000  Uiso   1.00
F560   F     0.56479   0.88386   0.19246   0.00000  Uiso   1.00
F561   F     0.54097   0.82741   0.38732   0.00000  Uiso   1.00
F562   F     0.63964   0.77839   0.12283   0.00000  Uiso   1.00
F563   F     0.37335   0.84457   0.38946   0.00000  Uiso   1.00
F564   F     0.34540   0.84815   0.47934   0.00000  Uiso   1.00
F565   F     0.34190   0.75018   0.03909   0.00000  Uiso   1.00
F566   F     0.51539   0.83622   0.09697   0.00000  Uiso   1.00
F567   F     0.50789   0.76327   0.42373   0.00000  Uiso   1.00
F568   F     0.63612   0.71154   0.18644   0.00000  Uiso   1.00
H569   H     0.52802   0.78860   0.30233   0.00000  Uiso   1.00
H570   H     0.47194   0.87820   0.19781   0.00000  Uiso   1.00
H571   H     0.62481   0.87446   0.11174   0.00000  Uiso   1.00
H572   H     0.40907   0.68677   0.43859   0.00000  Uiso   1.00
H573   H     0.59705   0.95851   0.13420   0.00000  Uiso   1.00
H574   H     0.40828   0.70901   0.36166   0.00000  Uiso   1.00
N575   N     0.45069   0.83334   0.24999   0.00000  Uiso   1.00
N576   N     0.54931   0.83332   0.25001   0.00000  Uiso   1.00
O577   O     0.37291   0.77322   0.25000   0.00000  Uiso   1.00
O578   O     0.60413   0.85611   0.09790   0.00000  Uiso   1.00
O579   O     0.37829   0.75621   0.45033   0.00000  Uiso   1.00
O580   O     0.42979   0.70358   0.45394   0.00000  Uiso   1.00
O581   O     0.66203   0.92892   0.15932   0.00000  Uiso   1.00
O582   O     0.60183   0.97491   0.16060   0.00000  Uiso   1.00
O583   O     0.34044   0.73766   0.34039   0.00000  Uiso   1.00
O584   O     0.40177   0.69213   0.33633   0.00000  Uiso   1.00
O585   O     0.62709   0.89345   0.25000   0.00000  Uiso   1.00
O586   O     0.62706   0.77321   0.25001   0.00000  Uiso   1.00
O587   O     0.37294   0.89346   0.24999   0.00000  Uiso   1.00
O588   O     0.35186   0.83334   0.31491   0.00000  Uiso   1.00
O589   O     0.64814   0.83332   0.18508   0.00000  Uiso   1.00
O590   O     0.60600   0.83333   0.31492   0.00000  Uiso   1.00
O591   O     0.39400   0.83333   0.18508   0.00000  Uiso   1.00
O592   O     0.62869   0.89919   0.03763   0.00000  Uiso   1.00
C593   C     0.99966   0.75414   0.25088   0.00000  Uiso   1.00
C594   C     0.68222   0.68716   0.28417   0.00000  Uiso   1.00
C595   C     0.66771   0.95718   0.24828   0.00000  Uiso   1.00
C596   C     0.99901   0.70948   0.25178   0.00000  Uiso   1.00
C597   C     0.84956   0.80852   0.27906   0.00000  Uiso   1.00
C598   C     0.81709   0.85820   0.22099   0.00000  Uiso   1.00
C599   C     0.79998   0.80863   0.27920   0.00000  Uiso   1.00
C600   C     0.86659   0.85832   0.22110   0.00000  Uiso   1.00
C601   C     0.97257   0.83366   0.33643   0.00000  Uiso   1.00
C602   C     0.69401   0.83175   0.16387   0.00000  Uiso   1.00
C603   C     0.95773   0.83368   0.38639   0.00000  Uiso   1.00
C604   C     0.66700   0.91253   0.24919   0.00000  Uiso   1.00
C605   C     0.70924   0.82183   0.11563   0.00000  Uiso   1.00
C606   C     0.97707   0.84301   0.45768   0.00000  Uiso   1.00
C607   C     0.70260   0.77785   0.05432   0.00000  Uiso   1.00
C608   C     0.99200   0.83987   0.41081   0.00000  Uiso   1.00
C609   C     0.68330   0.79299   0.09776   0.00000  Uiso   1.00
C610   C     0.90882   0.82710   0.41013   0.00000  Uiso   1.00
C611   C     0.75454   0.83552   0.08966   0.00000  Uiso   1.00
C612   C     0.89450   0.82451   0.45765   0.00000  Uiso   1.00
C613   C     0.77823   0.81558   0.04897   0.00000  Uiso   1.00
C614   C     0.92746   0.83830   0.48154   0.00000  Uiso   1.00
C615   C     0.86164   0.83595   0.05111   0.00000  Uiso   1.00
C616   C     0.75040   0.78885   0.02905   0.00000  Uiso   1.00
C617   C     0.84720   0.81097   0.48175   0.00000  Uiso   1.00
C618   C     0.82858   0.82191   0.02750   0.00000  Uiso   1.00
C619   C     0.93897   0.86835   0.05402   0.00000  Uiso   1.00
C620   C     0.74645   0.74407   0.46262   0.00000  Uiso   1.00
C621   C     0.97241   0.95905   0.17720   0.00000  Uiso   1.00
C622   C     0.69636   0.70766   0.32173   0.00000  Uiso   1.00
C623   C     0.81987   0.78354   0.46267   0.00000  Uiso   1.00
C624   C     0.91001   0.84570   0.02844   0.00000  Uiso   1.00
C625   C     0.77211   0.77262   0.48563   0.00000  Uiso   1.00
C626   C     0.98336   0.68913   0.21826   0.00000  Uiso   1.00
C627   C     0.68339   0.97752   0.28179   0.00000  Uiso   1.00
C628   C     0.98492   0.97950   0.21564   0.00000  Uiso   1.00
Cu629  Cu    0.71355   0.83334   0.25000   0.00000  Uiso   1.00
Cu630  Cu    0.95311   0.83333   0.25000   0.00000  Uiso   1.00
F631   F     0.77344   0.87012   0.10318   0.00000  Uiso   1.00
F632   F     0.69728   0.95511   0.31365   0.00000  Uiso   1.00
F633   F     0.76815   0.78396   0.30880   0.00000  Uiso   1.00
F634   F     0.89812   0.88386   0.19246   0.00000  Uiso   1.00
F635   F     0.87431   0.82741   0.38732   0.00000  Uiso   1.00
F636   F     0.97297   0.77839   0.12283   0.00000  Uiso   1.00
F637   F     0.70669   0.84457   0.38946   0.00000  Uiso   1.00
F638   F     0.67874   0.84815   0.47934   0.00000  Uiso   1.00
F639   F     0.67523   0.75018   0.03909   0.00000  Uiso   1.00
F640   F     0.84873   0.83622   0.09697   0.00000  Uiso   1.00
F641   F     0.84123   0.76327   0.42373   0.00000  Uiso   1.00
F642   F     0.96945   0.71154   0.18644   0.00000  Uiso   1.00
H643   H     0.86135   0.78860   0.30233   0.00000  Uiso   1.00
H644   H     0.80527   0.87820   0.19781   0.00000  Uiso   1.00
H645   H     0.95814   0.87446   0.11174   0.00000  Uiso   1.00
H646   H     0.74240   0.68677   0.43859   0.00000  Uiso   1.00
H647   H     0.93039   0.95851   0.13420   0.00000  Uiso   1.00
H648   H     0.74162   0.70901   0.36166   0.00000  Uiso   1.00
N649   N     0.78403   0.83334   0.24999   0.00000  Uiso   1.00
N650   N     0.88264   0.83332   0.25001   0.00000  Uiso   1.00
O651   O     0.70625   0.77322   0.25000   0.00000  Uiso   1.00
O652   O     0.93746   0.85611   0.09790   0.00000  Uiso   1.00
O653   O     0.71162   0.75621   0.45033   0.00000  Uiso   1.00
O654   O     0.76313   0.70358   0.45394   0.00000  Uiso   1.00
O655   O     0.99536   0.92892   0.15932   0.00000  Uiso   1.00
O656   O     0.93517   0.97491   0.16060   0.00000  Uiso   1.00
O657   O     0.67377   0.73766   0.34039   0.00000  Uiso   1.00
O658   O     0.73510   0.69213   0.33633   0.00000  Uiso   1.00
O659   O     0.96042   0.89345   0.25000   0.00000  Uiso   1.00
O660   O     0.96039   0.77321   0.25001   0.00000  Uiso   1.00
O661   O     0.70628   0.89346   0.24999   0.00000  Uiso   1.00
O662   O     0.68519   0.83334   0.31491   0.00000  Uiso   1.00
O663   O     0.98148   0.83332   0.18508   0.00000  Uiso   1.00
O664   O     0.93933   0.83333   0.31492   0.00000  Uiso   1.00
O665   O     0.72733   0.83333   0.18508   0.00000  Uiso   1.00
O666   O     0.96203   0.89919   0.03763   0.00000  Uiso   1.00
C667   C     0.33299   0.08747   0.75088   0.00000  Uiso   1.00
C668   C     0.01555   0.02049   0.78417   0.00000  Uiso   1.00
C669   C     0.00104   0.29051   0.74828   0.00000  Uiso   1.00
C670   C     0.33234   0.04281   0.75178   0.00000  Uiso   1.00
C671   C     0.18289   0.14185   0.77906   0.00000  Uiso   1.00
C672   C     0.15042   0.19153   0.72099   0.00000  Uiso   1.00
C673   C     0.13331   0.14196   0.77920   0.00000  Uiso   1.00
C674   C     0.19992   0.19165   0.72110   0.00000  Uiso   1.00
C675   C     0.30590   0.16700   0.83643   0.00000  Uiso   1.00
C676   C     0.02734   0.16508   0.66387   0.00000  Uiso   1.00
C677   C     0.29106   0.16702   0.88639   0.00000  Uiso   1.00
C678   C     0.00033   0.24586   0.74919   0.00000  Uiso   1.00
C679   C     0.04257   0.15517   0.61563   0.00000  Uiso   1.00
C680   C     0.31040   0.17635   0.95768   0.00000  Uiso   1.00
C681   C     0.03593   0.11118   0.55432   0.00000  Uiso   1.00
C682   C     0.32534   0.17321   0.91081   0.00000  Uiso   1.00
C683   C     0.01663   0.12632   0.59776   0.00000  Uiso   1.00
C684   C     0.24216   0.16044   0.91013   0.00000  Uiso   1.00
C685   C     0.08787   0.16885   0.58966   0.00000  Uiso   1.00
C686   C     0.22784   0.15784   0.95765   0.00000  Uiso   1.00
C687   C     0.11156   0.14892   0.54897   0.00000  Uiso   1.00
C688   C     0.26079   0.17163   0.98154   0.00000  Uiso   1.00
C689   C     0.19497   0.16928   0.55111   0.00000  Uiso   1.00
C690   C     0.08373   0.12218   0.52905   0.00000  Uiso   1.00
C691   C     0.18053   0.14430   0.98175   0.00000  Uiso   1.00
C692   C     0.16191   0.15525   0.52750   0.00000  Uiso   1.00
C693   C     0.27230   0.20169   0.55402   0.00000  Uiso   1.00
C694   C     0.07978   0.07741   0.96262   0.00000  Uiso   1.00
C695   C     0.30574   0.29238   0.67720   0.00000  Uiso   1.00
C696   C     0.02969   0.04099   0.82173   0.00000  Uiso   1.00
C697   C     0.15320   0.11687   0.96267   0.00000  Uiso   1.00
C698   C     0.24334   0.17903   0.52844   0.00000  Uiso   1.00
C699   C     0.10544   0.10595   0.98563   0.00000  Uiso   1.00
C700   C     0.31669   0.02247   0.71826   0.00000  Uiso   1.00
C701   C     0.01673   0.31085   0.78179   0.00000  Uiso   1.00
C702   C     0.31825   0.31284   0.71564   0.00000  Uiso   1.00
Cu703  Cu    0.04689   0.16667   0.75000   0.00000  Uiso   1.00
Cu704  Cu    0.28645   0.16666   0.75000   0.00000  Uiso   1.00
F705   F     0.10678   0.20345   0.60318   0.00000  Uiso   1.00
F706   F     0.03061   0.28844   0.81365   0.00000  Uiso   1.00
F707   F     0.10149   0.11729   0.80880   0.00000  Uiso   1.00
F708   F     0.23146   0.21720   0.69246   0.00000  Uiso   1.00
F709   F     0.20764   0.16075   0.88732   0.00000  Uiso   1.00
F710   F     0.30631   0.11172   0.62283   0.00000  Uiso   1.00
F711   F     0.04002   0.17790   0.88946   0.00000  Uiso   1.00
F712   F     0.01207   0.18148   0.97934   0.00000  Uiso   1.00
F713   F     0.00856   0.08352   0.53909   0.00000  Uiso   1.00
F714   F     0.18206   0.16956   0.59697   0.00000  Uiso   1.00
F715   F     0.17456   0.09661   0.92373   0.00000  Uiso   1.00
F716   F     0.30279   0.04488   0.68644   0.00000  Uiso   1.00
H717   H     0.19469   0.12193   0.80233   0.00000  Uiso   1.00
H718   H     0.13861   0.21153   0.69781   0.00000  Uiso   1.00
H719   H     0.29148   0.20779   0.61174   0.00000  Uiso   1.00
H720   H     0.07574   0.02010   0.93859   0.00000  Uiso   1.00
H721   H     0.26372   0.29184   0.63420   0.00000  Uiso   1.00
H722   H     0.07495   0.04234   0.86166   0.00000  Uiso   1.00
N723   N     0.11736   0.16668   0.74999   0.00000  Uiso   1.00
N724   N     0.21597   0.16666   0.75001   0.00000  Uiso   1.00
O725   O     0.03958   0.10655   0.75000   0.00000  Uiso   1.00
O726   O     0.27080   0.18944   0.59790   0.00000  Uiso   1.00
O727   O     0.04496   0.08955   0.95033   0.00000  Uiso   1.00
O728   O     0.09646   0.03691   0.95394   0.00000  Uiso   1.00
O729   O     0.32870   0.26226   0.65932   0.00000  Uiso   1.00
O730   O     0.26850   0.30825   0.66060   0.00000  Uiso   1.00
O731   O     0.00710   0.07099   0.84039   0.00000  Uiso   1.00
O732   O     0.06844   0.02546   0.83633   0.00000  Uiso   1.00
O733   O     0.29375   0.22678   0.75000   0.00000  Uiso   1.00
O734   O     0.29372   0.10654   0.75001   0.00000  Uiso   1.00
O735   O     0.03961   0.22679   0.74999   0.00000  Uiso   1.00
O736   O     0.01852   0.16668   0.81491   0.00000  Uiso   1.00
O737   O     0.31481   0.16666   0.68508   0.00000  Uiso   1.00
O738   O     0.27267   0.16667   0.81492   0.00000  Uiso   1.00
O739   O     0.06067   0.16667   0.68508   0.00000  Uiso   1.00
O740   O     0.29536   0.23253   0.53763   0.00000  Uiso   1.00
C741   C     0.66633   0.08747   0.75088   0.00000  Uiso   1.00
C742   C     0.34888   0.02049   0.78417   0.00000  Uiso   1.00
C743   C     0.33437   0.29051   0.74828   0.00000  Uiso   1.00
C744   C     0.66568   0.04281   0.75178   0.00000  Uiso   1.00
C745   C     0.51623   0.14185   0.77906   0.00000  Uiso   1.00
C746   C     0.48375   0.19153   0.72099   0.00000  Uiso   1.00
C747   C     0.46664   0.14196   0.77920   0.00000  Uiso   1.00
C748   C     0.53325   0.19165   0.72110   0.00000  Uiso   1.00
C749   C     0.63924   0.16700   0.83643   0.00000  Uiso   1.00
C750   C     0.36068   0.16508   0.66387   0.00000  Uiso   1.00
C751   C     0.62440   0.16702   0.88639   0.00000  Uiso   1.00
C752   C     0.33367   0.24586   0.74919   0.00000  Uiso   1.00
C753   C     0.37591   0.15517   0.61563   0.00000  Uiso   1.00
C754   C     0.64373   0.17635   0.95768   0.00000  Uiso   1.00
C755   C     0.36927   0.11118   0.55432   0.00000  Uiso   1.00
C756   C     0.65867   0.17321   0.91081   0.00000  Uiso   1.00
C757   C     0.34996   0.12632   0.59776   0.00000  Uiso   1.00
C758   C     0.57549   0.16044   0.91013   0.00000  Uiso   1.00
C759   C     0.42121   0.16885   0.58966   0.00000  Uiso   1.00
C760   C     0.56117   0.15784   0.95765   0.00000  Uiso   1.00
C761   C     0.44490   0.14892   0.54897   0.00000  Uiso   1.00
C762   C     0.59413   0.17163   0.98154   0.00000  Uiso   1.00
C763   C     0.52830   0.16928   0.55111   0.00000  Uiso   1.00
C764   C     0.41706   0.12218   0.52905   0.00000  Uiso   1.00
C765   C     0.51386   0.14430   0.98175   0.00000  Uiso   1.00
C766   C     0.49525   0.15525   0.52750   0.00000  Uiso   1.00
C767   C     0.60563   0.20169   0.55402   0.00000  Uiso   1.00
C768   C     0.41311   0.07741   0.96262   0.00000  Uiso   1.00
C769   C     0.63908   0.29238   0.67720   0.00000  Uiso   1.00
C770   C     0.36302   0.04099   0.82173   0.00000  Uiso   1.00
C771   C     0.48653   0.11687   0.96267   0.00000  Uiso   1.00
C772   C     0.57667   0.17903   0.52844   0.00000  Uiso   1.00
C773   C     0.43877   0.10595   0.98563   0.00000  Uiso   1.00
C774   C     0.65002   0.02247   0.71826   0.00000  Uiso   1.00
C775   C     0.35006   0.31085   0.78179   0.00000  Uiso   1.00
C776   C     0.65159   0.31284   0.71564   0.00000  Uiso   1.00
Cu777  Cu    0.38022   0.16667   0.75000   0.00000  Uiso   1.00
Cu778  Cu    0.61978   0.16666   0.75000   0.00000  Uiso   1.00
F779   F     0.44011   0.20345   0.60318   0.00000  Uiso   1.00
F780   F     0.36394   0.28844   0.81365   0.00000  Uiso   1.00
F781   F     0.43482   0.11729   0.80880   0.00000  Uiso   1.00
F782   F     0.56479   0.21720   0.69246   0.00000  Uiso   1.00
F783   F     0.54097   0.16075   0.88732   0.00000  Uiso   1.00
F784   F     0.63964   0.11172   0.62283   0.00000  Uiso   1.00
F785   F     0.37335   0.17790   0.88946   0.00000  Uiso   1.00
F786   F     0.34540   0.18148   0.97934   0.00000  Uiso   1.00
F787   F     0.34190   0.08352   0.53909   0.00000  Uiso   1.00
F788   F     0.51539   0.16956   0.59697   0.00000  Uiso   1.00
F789   F     0.50789   0.09661   0.92373   0.00000  Uiso   1.00
F790   F     0.63612   0.04488   0.68644   0.00000  Uiso   1.00
H791   H     0.52802   0.12193   0.80233   0.00000  Uiso   1.00
H792   H     0.47194   0.21153   0.69781   0.00000  Uiso   1.00
H793   H     0.62481   0.20779   0.61174   0.00000  Uiso   1.00
H794   H     0.40907   0.02010   0.93859   0.00000  Uiso   1.00
H795   H     0.59705   0.29184   0.63420   0.00000  Uiso   1.00
H796   H     0.40828   0.04234   0.86166   0.00000  Uiso   1.00
N797   N     0.45069   0.16668   0.74999   0.00000  Uiso   1.00
N798   N     0.54931   0.16666   0.75001   0.00000  Uiso   1.00
O799   O     0.37291   0.10655   0.75000   0.00000  Uiso   1.00
O800   O     0.60413   0.18944   0.59790   0.00000  Uiso   1.00
O801   O     0.37829   0.08955   0.95033   0.00000  Uiso   1.00
O802   O     0.42979   0.03691   0.95394   0.00000  Uiso   1.00
O803   O     0.66203   0.26226   0.65932   0.00000  Uiso   1.00
O804   O     0.60183   0.30825   0.66060   0.00000  Uiso   1.00
O805   O     0.34044   0.07099   0.84039   0.00000  Uiso   1.00
O806   O     0.40177   0.02546   0.83633   0.00000  Uiso   1.00
O807   O     0.62709   0.22678   0.75000   0.00000  Uiso   1.00
O808   O     0.62706   0.10654   0.75001   0.00000  Uiso   1.00
O809   O     0.37294   0.22679   0.74999   0.00000  Uiso   1.00
O810   O     0.35186   0.16668   0.81491   0.00000  Uiso   1.00
O811   O     0.64814   0.16666   0.68508   0.00000  Uiso   1.00
O812   O     0.60600   0.16667   0.81492   0.00000  Uiso   1.00
O813   O     0.39400   0.16667   0.68508   0.00000  Uiso   1.00
O814   O     0.62869   0.23253   0.53763   0.00000  Uiso   1.00
C815   C     0.99966   0.08747   0.75088   0.00000  Uiso   1.00
C816   C     0.68222   0.02049   0.78417   0.00000  Uiso   1.00
C817   C     0.66771   0.29051   0.74828   0.00000  Uiso   1.00
C818   C     0.99901   0.04281   0.75178   0.00000  Uiso   1.00
C819   C     0.84956   0.14185   0.77906   0.00000  Uiso   1.00
C820   C     0.81709   0.19153   0.72099   0.00000  Uiso   1.00
C821   C     0.79998   0.14196   0.77920   0.00000  Uiso   1.00
C822   C     0.86659   0.19165   0.72110   0.00000  Uiso   1.00
C823   C     0.97257   0.16700   0.83643   0.00000  Uiso   1.00
C824   C     0.69401   0.16508   0.66387   0.00000  Uiso   1.00
C825   C     0.95773   0.16702   0.88639   0.00000  Uiso   1.00
C826   C     0.66700   0.24586   0.74919   0.00000  Uiso   1.00
C827   C     0.70924   0.15517   0.61563   0.00000  Uiso   1.00
C828   C     0.97707   0.17635   0.95768   0.00000  Uiso   1.00
C829   C     0.70260   0.11118   0.55432   0.00000  Uiso   1.00
C830   C     0.99200   0.17321   0.91081   0.00000  Uiso   1.00
C831   C     0.68330   0.12632   0.59776   0.00000  Uiso   1.00
C832   C     0.90882   0.16044   0.91013   0.00000  Uiso   1.00
C833   C     0.75454   0.16885   0.58966   0.00000  Uiso   1.00
C834   C     0.89450   0.15784   0.95765   0.00000  Uiso   1.00
C835   C     0.77823   0.14892   0.54897   0.00000  Uiso   1.00
C836   C     0.92746   0.17163   0.98154   0.00000  Uiso   1.00
C837   C     0.86164   0.16928   0.55111   0.00000  Uiso   1.00
C838   C     0.75040   0.12218   0.52905   0.00000  Uiso   1.00
C839   C     0.84720   0.14430   0.98175   0.00000  Uiso   1.00
C840   C     0.82858   0.15525   0.52750   0.00000  Uiso   1.00
C841   C     0.93897   0.20169   0.55402   0.00000  Uiso   1.00
C842   C     0.74645   0.07741   0.96262   0.00000  Uiso   1.00
C843   C     0.97241   0.29238   0.67720   0.00000  Uiso   1.00
C844   C     0.69636   0.04099   0.82173   0.00000  Uiso   1.00
C845   C     0.81987   0.11687   0.96267   0.00000  Uiso   1.00
C846   C     0.91001   0.17903   0.52844   0.00000  Uiso   1.00
C847   C     0.77211   0.10595   0.98563   0.00000  Uiso   1.00
C848   C     0.98336   0.02247   0.71826   0.00000  Uiso   1.00
C849   C     0.68339   0.31085   0.78179   0.00000  Uiso   1.00
C850   C     0.98492   0.31284   0.71564   0.00000  Uiso   1.00
Cu851  Cu    0.71355   0.16667   0.75000   0.00000  Uiso   1.00
Cu852  Cu    0.95311   0.16666   0.75000   0.00000  Uiso   1.00
F853   F     0.77344   0.20345   0.60318   0.00000  Uiso   1.00
F854   F     0.69728   0.28844   0.81365   0.00000  Uiso   1.00
F855   F     0.76815   0.11729   0.80880   0.00000  Uiso   1.00
F856   F     0.89812   0.21720   0.69246   0.00000  Uiso   1.00
F857   F     0.87431   0.16075   0.88732   0.00000  Uiso   1.00
F858   F     0.97297   0.11172   0.62283   0.00000  Uiso   1.00
F859   F     0.70669   0.17790   0.88946   0.00000  Uiso   1.00
F860   F     0.67874   0.18148   0.97934   0.00000  Uiso   1.00
F861   F     0.67523   0.08352   0.53909   0.00000  Uiso   1.00
F862   F     0.84873   0.16956   0.59697   0.00000  Uiso   1.00
F863   F     0.84123   0.09661   0.92373   0.00000  Uiso   1.00
F864   F     0.96945   0.04488   0.68644   0.00000  Uiso   1.00
H865   H     0.86135   0.12193   0.80233   0.00000  Uiso   1.00
H866   H     0.80527   0.21153   0.69781   0.00000  Uiso   1.00
H867   H     0.95814   0.20779   0.61174   0.00000  Uiso   1.00
H868   H     0.74240   0.02010   0.93859   0.00000  Uiso   1.00
H869   H     0.93039   0.29184   0.63420   0.00000  Uiso   1.00
H870   H     0.74162   0.04234   0.86166   0.00000  Uiso   1.00
N871   N     0.78403   0.16668   0.74999   0.00000  Uiso   1.00
N872   N     0.88264   0.16666   0.75001   0.00000  Uiso   1.00
O873   O     0.70625   0.10655   0.75000   0.00000  Uiso   1.00
O874   O     0.93746   0.18944   0.59790   0.00000  Uiso   1.00
O875   O     0.71162   0.08955   0.95033   0.00000  Uiso   1.00
O876   O     0.76313   0.03691   0.95394   0.00000  Uiso   1.00
O877   O     0.99536   0.26226   0.65932   0.00000  Uiso   1.00
O878   O     0.93517   0.30825   0.66060   0.00000  Uiso   1.00
O879   O     0.67377   0.07099   0.84039   0.00000  Uiso   1.00
O880   O     0.73510   0.02546   0.83633   0.00000  Uiso   1.00
O881   O     0.96042   0.22678   0.75000   0.00000  Uiso   1.00
O882   O     0.96039   0.10654   0.75001   0.00000  Uiso   1.00
O883   O     0.70628   0.22679   0.74999   0.00000  Uiso   1.00
O884   O     0.68519   0.16668   0.81491   0.00000  Uiso   1.00
O885   O     0.98148   0.16666   0.68508   0.00000  Uiso   1.00
O886   O     0.93933   0.16667   0.81492   0.00000  Uiso   1.00
O887   O     0.72733   0.16667   0.68508   0.00000  Uiso   1.00
O888   O     0.96203   0.23253   0.53763   0.00000  Uiso   1.00
C889   C     0.33299   0.42081   0.75088   0.00000  Uiso   1.00
C890   C     0.01555   0.35383   0.78417   0.00000  Uiso   1.00
C891   C     0.00104   0.62384   0.74828   0.00000  Uiso   1.00
C892   C     0.33234   0.37615   0.75178   0.00000  Uiso   1.00
C893   C     0.18289   0.47519   0.77906   0.00000  Uiso   1.00
C894   C     0.15042   0.52486   0.72099   0.00000  Uiso   1.00
C895   C     0.13331   0.47530   0.77920   0.00000  Uiso   1.00
C896   C     0.19992   0.52498   0.72110   0.00000  Uiso   1.00
C897   C     0.30590   0.50033   0.83643   0.00000  Uiso   1.00
C898   C     0.02734   0.49842   0.66387   0.00000  Uiso   1.00
C899   C     0.29106   0.50035   0.88639   0.00000  Uiso   1.00
C900   C     0.00033   0.57919   0.74919   0.00000  Uiso   1.00
C901   C     0.04257   0.48850   0.61563   0.00000  Uiso   1.00
C902   C     0.31040   0.50968   0.95768   0.00000  Uiso   1.00
C903   C     0.03593   0.44452   0.55432   0.00000  Uiso   1.00
C904   C     0.32534   0.50654   0.91081   0.00000  Uiso   1.00
C905   C     0.01663   0.45965   0.59776   0.00000  Uiso   1.00
C906   C     0.24216   0.49377   0.91013   0.00000  Uiso   1.00
C907   C     0.08787   0.50219   0.58966   0.00000  Uiso   1.00
C908   C     0.22784   0.49118   0.95765   0.00000  Uiso   1.00
C909   C     0.11156   0.48225   0.54897   0.00000  Uiso   1.00
C910   C     0.26079   0.50497   0.98154   0.00000  Uiso   1.00
C911   C     0.19497   0.50261   0.55111   0.00000  Uiso   1.00
C912   C     0.08373   0.45552   0.52905   0.00000  Uiso   1.00
C913   C     0.18053   0.47764   0.98175   0.00000  Uiso   1.00
C914   C     0.16191   0.48858   0.52750   0.00000  Uiso   1.00
C915   C     0.27230   0.53502   0.55402   0.00000  Uiso   1.00
C916   C     0.07978   0.41074   0.96262   0.00000  Uiso   1.00
C917   C     0.30574   0.62572   0.67720   0.00000  Uiso   1.00
C918   C     0.02969   0.37433   0.82173   0.00000  Uiso   1.00
C919   C     0.15320   0.45021   0.96267   0.00000  Uiso   1.00
C920   C     0.24334   0.51237   0.52844   0.00000  Uiso   1.00
C921   C     0.10544   0.43928   0.98563   0.00000  Uiso   1.00
C922   C     0.31669   0.35580   0.71826   0.00000  Uiso   1.00
C923   C     0.01673   0.64418   0.78179   0.00000  Uiso   1.00
C924   C     0.31825   0.64617   0.71564   0.00000  Uiso   1.00
Cu925  Cu    0.04689   0.50001   0.75000   0.00000  Uiso   1.00
Cu926  Cu    0.28645   0.49999   0.75000   0.00000  Uiso   1.00
F927   F     0.10678   0.53678   0.60318   0.00000  Uiso   1.00
F928   F     0.03061   0.62178   0.81365   0.00000  Uiso   1.00
F929   F     0.10149   0.45063   0.80880   0.00000  Uiso   1.00
F930   F     0.23146   0.55053   0.69246   0.00000  Uiso   1.00
F931   F     0.20764   0.49408   0.88732   0.00000  Uiso   1.00
F932   F     0.30631   0.44505   0.62283   0.00000  Uiso   1.00
F933   F     0.04002   0.51123   0.88946   0.00000  Uiso   1.00
F934   F     0.01207   0.51482   0.97934   0.00000  Uiso   1.00
F935   F     0.00856   0.41685   0.53909   0.00000  Uiso   1.00
F936   F     0.18206   0.50289   0.59697   0.00000  Uiso   1.00
F937   F     0.17456   0.42994   0.92373   0.00000  Uiso   1.00
F938   F     0.30279   0.37821   0.68644   0.00000  Uiso   1.00
H939   H     0.19469   0.45526   0.80233   0.00000  Uiso   1.00
H940   H     0.13861   0.54487   0.69781   0.00000  Uiso   1.00
H941   H     0.29148   0.54113   0.61174   0.00000  Uiso   1.00
H942   H     0.07574   0.35344   0.93859   0.00000  Uiso   1.00
H943   H     0.26372   0.62517   0.63420   0.00000  Uiso   1.00
H944   H     0.07495   0.37567   0.86166   0.00000  Uiso   1.00
N945   N     0.11736   0.50001   0.74999   0.00000  Uiso   1.00
N946   N     0.21597   0.49999   0.75001   0.00000  Uiso   1.00
O947   O     0.03958   0.43989   0.75000   0.00000  Uiso   1.00
O948   O     0.27080   0.52277   0.59790   0.00000  Uiso   1.00
O949   O     0.04496   0.42288   0.95033   0.00000  Uiso   1.00
O950   O     0.09646   0.37025   0.95394   0.00000  Uiso   1.00
O951   O     0.32870   0.59559   0.65932   0.00000  Uiso   1.00
O952   O     0.26850   0.64158   0.66060   0.00000  Uiso   1.00
O953   O     0.00710   0.40433   0.84039   0.00000  Uiso   1.00
O954   O     0.06844   0.35879   0.83633   0.00000  Uiso   1.00
O955   O     0.29375   0.56011   0.75000   0.00000  Uiso   1.00
O956   O     0.29372   0.43988   0.75001   0.00000  Uiso   1.00
O957   O     0.03961   0.56012   0.74999   0.00000  Uiso   1.00
O958   O     0.01852   0.50001   0.81491   0.00000  Uiso   1.00
O959   O     0.31481   0.49999   0.68508   0.00000  Uiso   1.00
O960   O     0.27267   0.50000   0.81492   0.00000  Uiso   1.00
O961   O     0.06067   0.50000   0.68508   0.00000  Uiso   1.00
O962   O     0.29536   0.56586   0.53763   0.00000  Uiso   1.00
C963   C     0.66633   0.42081   0.75088   0.00000  Uiso   1.00
C964   C     0.34888   0.35383   0.78417   0.00000  Uiso   1.00
C965   C     0.33437   0.62384   0.74828   0.00000  Uiso   1.00
C966   C     0.66568   0.37615   0.75178   0.00000  Uiso   1.00
C967   C     0.51623   0.47519   0.77906   0.00000  Uiso   1.00
C968   C     0.48375   0.52486   0.72099   0.00000  Uiso   1.00
C969   C     0.46664   0.47530   0.77920   0.00000  Uiso   1.00
C970   C     0.53325   0.52498   0.72110   0.00000  Uiso   1.00
C971   C     0.63924   0.50033   0.83643   0.00000  Uiso   1.00
C972   C     0.36068   0.49842   0.66387   0.00000  Uiso   1.00
C973   C     0.62440   0.50035   0.88639   0.00000  Uiso   1.00
C974   C     0.33367   0.57919   0.74919   0.00000  Uiso   1.00
C975   C     0.37591   0.48850   0.61563   0.00000  Uiso   1.00
C976   C     0.64373   0.50968   0.95768   0.00000  Uiso   1.00
C977   C     0.36927   0.44452   0.55432   0.00000  Uiso   1.00
C978   C     0.65867   0.50654   0.91081   0.00000  Uiso   1.00
C979   C     0.34996   0.45965   0.59776   0.00000  Uiso   1.00
C980   C     0.57549   0.49377   0.91013   0.00000  Uiso   1.00
C981   C     0.42121   0.50219   0.58966   0.00000  Uiso   1.00
C982   C     0.56117   0.49118   0.95765   0.00000  Uiso   1.00
C983   C     0.44490   0.48225   0.54897   0.00000  Uiso   1.00
C984   C     0.59413   0.50497   0.98154   0.00000  Uiso   1.00
C985   C     0.52830   0.50261   0.55111   0.00000  Uiso   1.00
C986   C     0.41706   0.45552   0.52905   0.00000  Uiso   1.00
C987   C     0.51386   0.47764   0.98175   0.00000  Uiso   1.00
C988   C     0.49525   0.48858   0.52750   0.00000  Uiso   1.00
C989   C     0.60563   0.53502   0.55402   0.00000  Uiso   1.00
C990   C     0.41311   0.41074   0.96262   0.00000  Uiso   1.00
C991   C     0.63908   0.62572   0.67720   0.00000  Uiso   1.00
C992   C     0.36302   0.37433   0.82173   0.00000  Uiso   1.00
C993   C     0.48653   0.45021   0.96267   0.00000  Uiso   1.00
C994   C     0.57667   0.51237   0.52844   0.00000  Uiso   1.00
C995   C     0.43877   0.43928   0.98563   0.00000  Uiso   1.00
C996   C     0.65002   0.35580   0.71826   0.00000  Uiso   1.00
C997   C     0.35006   0.64418   0.78179   0.00000  Uiso   1.00
C998   C     0.65159   0.64617   0.71564   0.00000  Uiso   1.00
Cu999  Cu    0.38022   0.50001   0.75000   0.00000  Uiso   1.00
Cu1000 Cu    0.61978   0.49999   0.75000   0.00000  Uiso   1.00
F1001  F     0.44011   0.53678   0.60318   0.00000  Uiso   1.00
F1002  F     0.36394   0.62178   0.81365   0.00000  Uiso   1.00
F1003  F     0.43482   0.45063   0.80880   0.00000  Uiso   1.00
F1004  F     0.56479   0.55053   0.69246   0.00000  Uiso   1.00
F1005  F     0.54097   0.49408   0.88732   0.00000  Uiso   1.00
F1006  F     0.63964   0.44505   0.62283   0.00000  Uiso   1.00
F1007  F     0.37335   0.51123   0.88946   0.00000  Uiso   1.00
F1008  F     0.34540   0.51482   0.97934   0.00000  Uiso   1.00
F1009  F     0.34190   0.41685   0.53909   0.00000  Uiso   1.00
F1010  F     0.51539   0.50289   0.59697   0.00000  Uiso   1.00
F1011  F     0.50789   0.42994   0.92373   0.00000  Uiso   1.00
F1012  F     0.63612   0.37821   0.68644   0.00000  Uiso   1.00
H1013  H     0.52802   0.45526   0.80233   0.00000  Uiso   1.00
H1014  H     0.47194   0.54487   0.69781   0.00000  Uiso   1.00
H1015  H     0.62481   0.54113   0.61174   0.00000  Uiso   1.00
H1016  H     0.40907   0.35344   0.93859   0.00000  Uiso   1.00
H1017  H     0.59705   0.62517   0.63420   0.00000  Uiso   1.00
H1018  H     0.40828   0.37567   0.86166   0.00000  Uiso   1.00
N1019  N     0.45069   0.50001   0.74999   0.00000  Uiso   1.00
N1020  N     0.54931   0.49999   0.75001   0.00000  Uiso   1.00
O1021  O     0.37291   0.43989   0.75000   0.00000  Uiso   1.00
O1022  O     0.60413   0.52277   0.59790   0.00000  Uiso   1.00
O1023  O     0.37829   0.42288   0.95033   0.00000  Uiso   1.00
O1024  O     0.42979   0.37025   0.95394   0.00000  Uiso   1.00
O1025  O     0.66203   0.59559   0.65932   0.00000  Uiso   1.00
O1026  O     0.60183   0.64158   0.66060   0.00000  Uiso   1.00
O1027  O     0.34044   0.40433   0.84039   0.00000  Uiso   1.00
O1028  O     0.40177   0.35879   0.83633   0.00000  Uiso   1.00
O1029  O     0.62709   0.56011   0.75000   0.00000  Uiso   1.00
O1030  O     0.62706   0.43988   0.75001   0.00000  Uiso   1.00
O1031  O     0.37294   0.56012   0.74999   0.00000  Uiso   1.00
O1032  O     0.35186   0.50001   0.81491   0.00000  Uiso   1.00
O1033  O     0.64814   0.49999   0.68508   0.00000  Uiso   1.00
O1034  O     0.60600   0.50000   0.81492   0.00000  Uiso   1.00
O1035  O     0.39400   0.50000   0.68508   0.00000  Uiso   1.00
O1036  O     0.62869   0.56586   0.53763   0.00000  Uiso   1.00
C1037  C     0.99966   0.42081   0.75088   0.00000  Uiso   1.00
C1038  C     0.68222   0.35383   0.78417   0.00000  Uiso   1.00
C1039  C     0.66771   0.62384   0.74828   0.00000  Uiso   1.00
C1040  C     0.99901   0.37615   0.75178   0.00000  Uiso   1.00
C1041  C     0.84956   0.47519   0.77906   0.00000  Uiso   1.00
C1042  C     0.81709   0.52486   0.72099   0.00000  Uiso   1.00
C1043  C     0.79998   0.47530   0.77920   0.00000  Uiso   1.00
C1044  C     0.86659   0.52498   0.72110   0.00000  Uiso   1.00
C1045  C     0.97257   0.50033   0.83643   0.00000  Uiso   1.00
C1046  C     0.69401   0.49842   0.66387   0.00000  Uiso   1.00
C1047  C     0.95773   0.50035   0.88639   0.00000  Uiso   1.00
C1048  C     0.66700   0.57919   0.74919   0.00000  Uiso   1.00
C1049  C     0.70924   0.48850   0.61563   0.00000  Uiso   1.00
C1050  C     0.97707   0.50968   0.95768   0.00000  Uiso   1.00
C1051  C     0.70260   0.44452   0.55432   0.00000  Uiso   1.00
C1052  C     0.99200   0.50654   0.91081   0.00000  Uiso   1.00
C1053  C     0.68330   0.45965   0.59776   0.00000  Uiso   1.00
C1054  C     0.90882   0.49377   0.91013   0.00000  Uiso   1.00
C1055  C     0.75454   0.50219   0.58966   0.00000  Uiso   1.00
C1056  C     0.89450   0.49118   0.95765   0.00000  Uiso   1.00
C1057  C     0.77823   0.48225   0.54897   0.00000  Uiso   1.00
C1058  C     0.92746   0.50497   0.98154   0.00000  Uiso   1.00
C1059  C     0.86164   0.50261   0.55111   0.00000  Uiso   1.00
C1060  C     0.75040   0.45552   0.52905   0.00000  Uiso   1.00
C1061  C     0.84720   0.47764   0.98175   0.00000  Uiso   1.00
C1062  C     0.82858   0.48858   0.52750   0.00000  Uiso   1.00
C1063  C     0.93897   0.53502   0.55402   0.00000  Uiso   1.00
C1064  C     0.74645   0.41074   0.96262   0.00000  Uiso   1.00
C1065  C     0.97241   0.62572   0.67720   0.00000  Uiso   1.00
C1066  C     0.69636   0.37433   0.82173   0.00000  Uiso   1.00
C1067  C     0.81987   0.45021   0.96267   0.00000  Uiso   1.00
C1068  C     0.91001   0.51237   0.52844   0.00000  Uiso   1.00
C1069  C     0.77211   0.43928   0.98563   0.00000  Uiso   1.00
C1070  C     0.98336   0.35580   0.71826   0.00000  Uiso   1.00
C1071  C     0.68339   0.64418   0.78179   0.00000  Uiso   1.00
C1072  C     0.98492   0.64617   0.71564   0.00000  Uiso   1.00
Cu1073 Cu    0.71355   0.50001   0.75000   0.00000  Uiso   1.00
Cu1074 Cu    0.95311   0.49999   0.75000   0.00000  Uiso   1.00
F1075  F     0.77344   0.53678   0.60318   0.00000  Uiso   1.00
F1076  F     0.69728   0.62178   0.81365   0.00000  Uiso   1.00
F1077  F     0.76815   0.45063   0.80880   0.00000  Uiso   1.00
F1078  F     0.89812   0.55053   0.69246   0.00000  Uiso   1.00
F1079  F     0.87431   0.49408   0.88732   0.00000  Uiso   1.00
F1080  F     0.97297   0.44505   0.62283   0.00000  Uiso   1.00
F1081  F     0.70669   0.51123   0.88946   0.00000  Uiso   1.00
F1082  F     0.67874   0.51482   0.97934   0.00000  Uiso   1.00
F1083  F     0.67523   0.41685   0.53909   0.00000  Uiso   1.00
F1084  F     0.84873   0.50289   0.59697   0.00000  Uiso   1.00
F1085  F     0.84123   0.42994   0.92373   0.00000  Uiso   1.00
F1086  F     0.96945   0.37821   0.68644   0.00000  Uiso   1.00
H1087  H     0.86135   0.45526   0.80233   0.00000  Uiso   1.00
H1088  H     0.80527   0.54487   0.69781   0.00000  Uiso   1.00
H1089  H     0.95814   0.54113   0.61174   0.00000  Uiso   1.00
H1090  H     0.74240   0.35344   0.93859   0.00000  Uiso   1.00
H1091  H     0.93039   0.62517   0.63420   0.00000  Uiso   1.00
H1092  H     0.74162   0.37567   0.86166   0.00000  Uiso   1.00
N1093  N     0.78403   0.50001   0.74999   0.00000  Uiso   1.00
N1094  N     0.88264   0.49999   0.75001   0.00000  Uiso   1.00
O1095  O     0.70625   0.43989   0.75000   0.00000  Uiso   1.00
O1096  O     0.93746   0.52277   0.59790   0.00000  Uiso   1.00
O1097  O     0.71162   0.42288   0.95033   0.00000  Uiso   1.00
O1098  O     0.76313   0.37025   0.95394   0.00000  Uiso   1.00
O1099  O     0.99536   0.59559   0.65932   0.00000  Uiso   1.00
O1100  O     0.93517   0.64158   0.66060   0.00000  Uiso   1.00
O1101  O     0.67377   0.40433   0.84039   0.00000  Uiso   1.00
O1102  O     0.73510   0.35879   0.83633   0.00000  Uiso   1.00
O1103  O     0.96042   0.56011   0.75000   0.00000  Uiso   1.00
O1104  O     0.96039   0.43988   0.75001   0.00000  Uiso   1.00
O1105  O     0.70628   0.56012   0.74999   0.00000  Uiso   1.00
O1106  O     0.68519   0.50001   0.81491   0.00000  Uiso   1.00
O1107  O     0.98148   0.49999   0.68508   0.00000  Uiso   1.00
O1108  O     0.93933   0.50000   0.81492   0.00000  Uiso   1.00
O1109  O     0.72733   0.50000   0.68508   0.00000  Uiso   1.00
O1110  O     0.96203   0.56586   0.53763   0.00000  Uiso   1.00
C1111  C     0.33299   0.75414   0.75088   0.00000  Uiso   1.00
C1112  C     0.01555   0.68716   0.78417   0.00000  Uiso   1.00
C1113  C     0.00104   0.95718   0.74828   0.00000  Uiso   1.00
C1114  C     0.33234   0.70948   0.75178   0.00000  Uiso   1.00
C1115  C     0.18289   0.80852   0.77906   0.00000  Uiso   1.00
C1116  C     0.15042   0.85820   0.72099   0.00000  Uiso   1.00
C1117  C     0.13331   0.80863   0.77920   0.00000  Uiso   1.00
C1118  C     0.19992   0.85832   0.72110   0.00000  Uiso   1.00
C1119  C     0.30590   0.83366   0.83643   0.00000  Uiso   1.00
C1120  C     0.02734   0.83175   0.66387   0.00000  Uiso   1.00
C1121  C     0.29106   0.83368   0.88639   0.00000  Uiso   1.00
C1122  C     0.00033   0.91253   0.74919   0.00000  Uiso   1.00
C1123  C     0.04257   0.82183   0.61563   0.00000  Uiso   1.00
C1124  C     0.31040   0.84301   0.95768   0.00000  Uiso   1.00
C1125  C     0.03593   0.77785   0.55432   0.00000  Uiso   1.00
C1126  C     0.32534   0.83987   0.91081   0.00000  Uiso   1.00
C1127  C     0.01663   0.79299   0.59776   0.00000  Uiso   1.00
C1128  C     0.24216   0.82710   0.91013   0.00000  Uiso   1.00
C1129  C     0.08787   0.83552   0.58966   0.00000  Uiso   1.00
C1130  C     0.22784   0.82451   0.95765   0.00000  Uiso   1.00
C1131  C     0.11156   0.81558   0.54897   0.00000  Uiso   1.00
C1132  C     0.26079   0.83830   0.98154   0.00000  Uiso   1.00
C1133  C     0.19497   0.83595   0.55111   0.00000  Uiso   1.00
C1134  C     0.08373   0.78885   0.52905   0.00000  Uiso   1.00
C1135  C     0.18053   0.81097   0.98175   0.00000  Uiso   1.00
C1136  C     0.16191   0.82191   0.52750   0.00000  Uiso   1.00
C1137  C     0.27230   0.86835   0.55402   0.00000  Uiso   1.00
C1138  C     0.07978   0.74407   0.96262   0.00000  Uiso   1.00
C1139  C     0.30574   0.95905   0.67720   0.00000  Uiso   1.00
C1140  C     0.02969   0.70766   0.82173   0.00000  Uiso   1.00
C1141  C     0.15320   0.78354   0.96267   0.00000  Uiso   1.00
C1142  C     0.24334   0.84570   0.52844   0.00000  Uiso   1.00
C1143  C     0.10544   0.77262   0.98563   0.00000  Uiso   1.00
C1144  C     0.31669   0.68913   0.71826   0.00000  Uiso   1.00
C1145  C     0.01673   0.97752   0.78179   0.00000  Uiso   1.00
C1146  C     0.31825   0.97950   0.71564   0.00000  Uiso   1.00
Cu1147 Cu    0.04689   0.83334   0.75000   0.00000  Uiso   1.00
Cu1148 Cu    0.28645   0.83333   0.75000   0.00000  Uiso   1.00
F1149  F     0.10678   0.87012   0.60318   0.00000  Uiso   1.00
F1150  F     0.03061   0.95511   0.81365   0.00000  Uiso   1.00
F1151  F     0.10149   0.78396   0.80880   0.00000  Uiso   1.00
F1152  F     0.23146   0.88386   0.69246   0.00000  Uiso   1.00
F1153  F     0.20764   0.82741   0.88732   0.00000  Uiso   1.00
F1154  F     0.30631   0.77839   0.62283   0.00000  Uiso   1.00
F1155  F     0.04002   0.84457   0.88946   0.00000  Uiso   1.00
F1156  F     0.01207   0.84815   0.97934   0.00000  Uiso   1.00
F1157  F     0.00856   0.75018   0.53909   0.00000  Uiso   1.00
F1158  F     0.18206   0.83622   0.59697   0.00000  Uiso   1.00
F1159  F     0.17456   0.76327   0.92373   0.00000  Uiso   1.00
F1160  F     0.30279   0.71154   0.68644   0.00000  Uiso   1.00
H1161  H     0.19469   0.78860   0.80233   0.00000  Uiso   1.00
H1162  H     0.13861   0.87820   0.69781   0.00000  Uiso   1.00
H1163  H     0.29148   0.87446   0.61174   0.00000  Uiso   1.00
H1164  H     0.07574   0.68677   0.93859   0.00000  Uiso   1.00
H1165  H     0.26372   0.95851   0.63420   0.00000  Uiso   1.00
H1166  H     0.07495   0.70901   0.86166   0.00000  Uiso   1.00
N1167  N     0.11736   0.83334   0.74999   0.00000  Uiso   1.00
N1168  N     0.21597   0.83332   0.75001   0.00000  Uiso   1.00
O1169  O     0.03958   0.77322   0.75000   0.00000  Uiso   1.00
O1170  O     0.27080   0.85611   0.59790   0.00000  Uiso   1.00
O1171  O     0.04496   0.75621   0.95033   0.00000  Uiso   1.00
O1172  O     0.09646   0.70358   0.95394   0.00000  Uiso   1.00
O1173  O     0.32870   0.92892   0.65932   0.00000  Uiso   1.00
O1174  O     0.26850   0.97491   0.66060   0.00000  Uiso   1.00
O1175  O     0.00710   0.73766   0.84039   0.00000  Uiso   1.00
O1176  O     0.06844   0.69213   0.83633   0.00000  Uiso   1.00
O1177  O     0.29375   0.89345   0.75000   0.00000  Uiso   1.00
O1178  O     0.29372   0.77321   0.75001   0.00000  Uiso   1.00
O1179  O     0.03961   0.89346   0.74999   0.00000  Uiso   1.00
O1180  O     0.01852   0.83334   0.81491   0.00000  Uiso   1.00
O1181  O     0.31481   0.83332   0.68508   0.00000  Uiso   1.00
O1182  O     0.27267   0.83333   0.81492   0.00000  Uiso   1.00
O1183  O     0.06067   0.83333   0.68508   0.00000  Uiso   1.00
O1184  O     0.29536   0.89919   0.53763   0.00000  Uiso   1.00
C1185  C     0.66633   0.75414   0.75088   0.00000  Uiso   1.00
C1186  C     0.34888   0.68716   0.78417   0.00000  Uiso   1.00
C1187  C     0.33437   0.95718   0.74828   0.00000  Uiso   1.00
C1188  C     0.66568   0.70948   0.75178   0.00000  Uiso   1.00
C1189  C     0.51623   0.80852   0.77906   0.00000  Uiso   1.00
C1190  C     0.48375   0.85820   0.72099   0.00000  Uiso   1.00
C1191  C     0.46664   0.80863   0.77920   0.00000  Uiso   1.00
C1192  C     0.53325   0.85832   0.72110   0.00000  Uiso   1.00
C1193  C     0.63924   0.83366   0.83643   0.00000  Uiso   1.00
C1194  C     0.36068   0.83175   0.66387   0.00000  Uiso   1.00
C1195  C     0.62440   0.83368   0.88639   0.00000  Uiso   1.00
C1196  C     0.33367   0.91253   0.74919   0.00000  Uiso   1.00
C1197  C     0.37591   0.82183   0.61563   0.00000  Uiso   1.00
C1198  C     0.64373   0.84301   0.95768   0.00000  Uiso   1.00
C1199  C     0.36927   0.77785   0.55432   0.00000  Uiso   1.00
C1200  C     0.65867   0.83987   0.91081   0.00000  Uiso   1.00
C1201  C     0.34996   0.79299   0.59776   0.00000  Uiso   1.00
C1202  C     0.57549   0.82710   0.91013   0.00000  Uiso   1.00
C1203  C     0.42121   0.83552   0.58966   0.00000  Uiso   1.00
C1204  C     0.56117   0.82451   0.95765   0.00000  Uiso   1.00
C1205  C     0.44490   0.81558   0.54897   0.00000  Uiso   1.00
C1206  C     0.59413   0.83830   0.98154   0.00000  Uiso   1.00
C1207  C     0.52830   0.83595   0.55111   0.00000  Uiso   1.00
C1208  C     0.41706   0.78885   0.52905   0.00000  Uiso   1.00
C1209  C     0.51386   0.81097   0.98175   0.00000  Uiso   1.00
C1210  C     0.49525   0.82191   0.52750   0.00000  Uiso   1.00
C1211  C     0.60563   0.86835   0.55402   0.00000  Uiso   1.00
C1212  C     0.41311   0.74407   0.96262   0.00000  Uiso   1.00
C1213  C     0.63908   0.95905   0.67720   0.00000  Uiso   1.00
C1214  C     0.36302   0.70766   0.82173   0.00000  Uiso   1.00
C1215  C     0.48653   0.78354   0.96267   0.00000  Uiso   1.00
C1216  C     0.57667   0.84570   0.52844   0.00000  Uiso   1.00
C1217  C     0.43877   0.77262   0.98563   0.00000  Uiso   1.00
C1218  C     0.65002   0.68913   0.71826   0.00000  Uiso   1.00
C1219  C     0.35006   0.97752   0.78179   0.00000  Uiso   1.00
C1220  C     0.65159   0.97950   0.71564   0.00000  Uiso   1.00
Cu1221 Cu    0.38022   0.83334   0.75000   0.00000  Uiso   1.00
Cu1222 Cu    0.61978   0.83333   0.75000   0.00000  Uiso   1.00
F1223  F     0.44011   0.87012   0.60318   0.00000  Uiso   1.00
F1224  F     0.36394   0.95511   0.81365   0.00000  Uiso   1.00
F1225  F     0.43482   0.78396   0.80880   0.00000  Uiso   1.00
F1226  F     0.56479   0.88386   0.69246   0.00000  Uiso   1.00
F1227  F     0.54097   0.82741   0.88732   0.00000  Uiso   1.00
F1228  F     0.63964   0.77839   0.62283   0.00000  Uiso   1.00
F1229  F     0.37335   0.84457   0.88946   0.00000  Uiso   1.00
F1230  F     0.34540   0.84815   0.97934   0.00000  Uiso   1.00
F1231  F     0.34190   0.75018   0.53909   0.00000  Uiso   1.00
F1232  F     0.51539   0.83622   0.59697   0.00000  Uiso   1.00
F1233  F     0.50789   0.76327   0.92373   0.00000  Uiso   1.00
F1234  F     0.63612   0.71154   0.68644   0.00000  Uiso   1.00
H1235  H     0.52802   0.78860   0.80233   0.00000  Uiso   1.00
H1236  H     0.47194   0.87820   0.69781   0.00000  Uiso   1.00
H1237  H     0.62481   0.87446   0.61174   0.00000  Uiso   1.00
H1238  H     0.40907   0.68677   0.93859   0.00000  Uiso   1.00
H1239  H     0.59705   0.95851   0.63420   0.00000  Uiso   1.00
H1240  H     0.40828   0.70901   0.86166   0.00000  Uiso   1.00
N1241  N     0.45069   0.83334   0.74999   0.00000  Uiso   1.00
N1242  N     0.54931   0.83332   0.75001   0.00000  Uiso   1.00
O1243  O     0.37291   0.77322   0.75000   0.00000  Uiso   1.00
O1244  O     0.60413   0.85611   0.59790   0.00000  Uiso   1.00
O1245  O     0.37829   0.75621   0.95033   0.00000  Uiso   1.00
O1246  O     0.42979   0.70358   0.95394   0.00000  Uiso   1.00
O1247  O     0.66203   0.92892   0.65932   0.00000  Uiso   1.00
O1248  O     0.60183   0.97491   0.66060   0.00000  Uiso   1.00
O1249  O     0.34044   0.73766   0.84039   0.00000  Uiso   1.00
O1250  O     0.40177   0.69213   0.83633   0.00000  Uiso   1.00
O1251  O     0.62709   0.89345   0.75000   0.00000  Uiso   1.00
O1252  O     0.62706   0.77321   0.75001   0.00000  Uiso   1.00
O1253  O     0.37294   0.89346   0.74999   0.00000  Uiso   1.00
O1254  O     0.35186   0.83334   0.81491   0.00000  Uiso   1.00
O1255  O     0.64814   0.83332   0.68508   0.00000  Uiso   1.00
O1256  O     0.60600   0.83333   0.81492   0.00000  Uiso   1.00
O1257  O     0.39400   0.83333   0.68508   0.00000  Uiso   1.00
O1258  O     0.62869   0.89919   0.53763   0.00000  Uiso   1.00
C1259  C     0.99966   0.75414   0.75088   0.00000  Uiso   1.00
C1260  C     0.68222   0.68716   0.78417   0.00000  Uiso   1.00
C1261  C     0.66771   0.95718   0.74828   0.00000  Uiso   1.00
C1262  C     0.99901   0.70948   0.75178   0.00000  Uiso   1.00
C1263  C     0.84956   0.80852   0.77906   0.00000  Uiso   1.00
C1264  C     0.81709   0.85820   0.72099   0.00000  Uiso   1.00
C1265  C     0.79998   0.80863   0.77920   0.00000  Uiso   1.00
C1266  C     0.86659   0.85832   0.72110   0.00000  Uiso   1.00
C1267  C     0.97257   0.83366   0.83643   0.00000  Uiso   1.00
C1268  C     0.69401   0.83175   0.66387   0.00000  Uiso   1.00
C1269  C     0.95773   0.83368   0.88639   0.00000  Uiso   1.00
C1270  C     0.66700   0.91253   0.74919   0.00000  Uiso   1.00
C1271  C     0.70924   0.82183   0.61563   0.00000  Uiso   1.00
C1272  C     0.97707   0.84301   0.95768   0.00000  Uiso   1.00
C1273  C     0.70260   0.77785   0.55432   0.00000  Uiso   1.00
C1274  C     0.99200   0.83987   0.91081   0.00000  Uiso   1.00
C1275  C     0.68330   0.79299   0.59776   0.00000  Uiso   1.00
C1276  C     0.90882   0.82710   0.91013   0.00000  Uiso   1.00
C1277  C     0.75454   0.83552   0.58966   0.00000  Uiso   1.00
C1278  C     0.89450   0.82451   0.95765   0.00000  Uiso   1.00
C1279  C     0.77823   0.81558   0.54897   0.00000  Uiso   1.00
C1280  C     0.92746   0.83830   0.98154   0.00000  Uiso   1.00
C1281  C     0.86164   0.83595   0.55111   0.00000  Uiso   1.00
C1282  C     0.75040   0.78885   0.52905   0.00000  Uiso   1.00
C1283  C     0.84720   0.81097   0.98175   0.00000  Uiso   1.00
C1284  C     0.82858   0.82191   0.52750   0.00000  Uiso   1.00
C1285  C     0.93897   0.86835   0.55402   0.00000  Uiso   1.00
C1286  C     0.74645   0.74407   0.96262   0.00000  Uiso   1.00
C1287  C     0.97241   0.95905   0.67720   0.00000  Uiso   1.00
C1288  C     0.69636   0.70766   0.82173   0.00000  Uiso   1.00
C1289  C     0.81987   0.78354   0.96267   0.00000  Uiso   1.00
C1290  C     0.91001   0.84570   0.52844   0.00000  Uiso   1.00
C1291  C     0.77211   0.77262   0.98563   0.00000  Uiso   1.00
C1292  C     0.98336   0.68913   0.71826   0.00000  Uiso   1.00
C1293  C     0.68339   0.97752   0.78179   0.00000  Uiso   1.00
C1294  C     0.98492   0.97950   0.71564   0.00000  Uiso   1.00
Cu1295 Cu    0.71355   0.83334   0.75000   0.00000  Uiso   1.00
Cu1296 Cu    0.95311   0.83333   0.75000   0.00000  Uiso   1.00
F1297  F     0.77344   0.87012   0.60318   0.00000  Uiso   1.00
F1298  F     0.69728   0.95511   0.81365   0.00000  Uiso   1.00
F1299  F     0.76815   0.78396   0.80880   0.00000  Uiso   1.00
F1300  F     0.89812   0.88386   0.69246   0.00000  Uiso   1.00
F1301  F     0.87431   0.82741   0.88732   0.00000  Uiso   1.00
F1302  F     0.97297   0.77839   0.62283   0.00000  Uiso   1.00
F1303  F     0.70669   0.84457   0.88946   0.00000  Uiso   1.00
F1304  F     0.67874   0.84815   0.97934   0.00000  Uiso   1.00
F1305  F     0.67523   0.75018   0.53909   0.00000  Uiso   1.00
F1306  F     0.84873   0.83622   0.59697   0.00000  Uiso   1.00
F1307  F     0.84123   0.76327   0.92373   0.00000  Uiso   1.00
F1308  F     0.96945   0.71154   0.68644   0.00000  Uiso   1.00
H1309  H     0.86135   0.78860   0.80233   0.00000  Uiso   1.00
H1310  H     0.80527   0.87820   0.69781   0.00000  Uiso   1.00
H1311  H     0.95814   0.87446   0.61174   0.00000  Uiso   1.00
H1312  H     0.74240   0.68677   0.93859   0.00000  Uiso   1.00
H1313  H     0.93039   0.95851   0.63420   0.00000  Uiso   1.00
H1314  H     0.74162   0.70901   0.86166   0.00000  Uiso   1.00
N1315  N     0.78403   0.83334   0.74999   0.00000  Uiso   1.00
N1316  N     0.88264   0.83332   0.75001   0.00000  Uiso   1.00
O1317  O     0.70625   0.77322   0.75000   0.00000  Uiso   1.00
O1318  O     0.93746   0.85611   0.59790   0.00000  Uiso   1.00
O1319  O     0.71162   0.75621   0.95033   0.00000  Uiso   1.00
O1320  O     0.76313   0.70358   0.95394   0.00000  Uiso   1.00
O1321  O     0.99536   0.92892   0.65932   0.00000  Uiso   1.00
O1322  O     0.93517   0.97491   0.66060   0.00000  Uiso   1.00
O1323  O     0.67377   0.73766   0.84039   0.00000  Uiso   1.00
O1324  O     0.73510   0.69213   0.83633   0.00000  Uiso   1.00
O1325  O     0.96042   0.89345   0.75000   0.00000  Uiso   1.00
O1326  O     0.96039   0.77321   0.75001   0.00000  Uiso   1.00
O1327  O     0.70628   0.89346   0.74999   0.00000  Uiso   1.00
O1328  O     0.68519   0.83334   0.81491   0.00000  Uiso   1.00
O1329  O     0.98148   0.83332   0.68508   0.00000  Uiso   1.00
O1330  O     0.93933   0.83333   0.81492   0.00000  Uiso   1.00
O1331  O     0.72733   0.83333   0.68508   0.00000  Uiso   1.00
O1332  O     0.96203   0.89919   0.53763   0.00000  Uiso   1.00
loop_
_geom_bond_atom_site_label_1
_geom_bond_atom_site_label_2
_geom_bond_distance
_geom_bond_site_symmetry_2
_ccdc_geom_bond_type
C1     O68     1.289   .     A
C1     C4      1.446   .     S
C1     O133    1.291   .     S
C2     C30     1.486   .     S
C2     C152    1.411   1_455 S
C2     C479    1.394   1_545 S
C3     C12     1.446   .     S
C3     C35     1.401   .     A
C3     C184    1.411   1_455 S
C4     C34     1.401   .     A
C4     C76     1.411   .     S
C5     N58     1.366   .     A
C5     C7      1.417   .     A
C5     H51     1.082   .     S
C6     N57     1.366   .     A
C6     C8      1.417   .     A
C6     H52     1.082   .     S
C7     F41     1.353   .     S
C7     N57     1.369   .     A
C8     F42     1.353   .     S
C8     N58     1.369   .     A
C9     O72     1.299   .     A
C9     C11     1.480   .     S
C9     O144    1.300   .     S
C10    O73     1.296   .     A
C10    C13     1.467   .     S
C10    O219    1.296   1_455 S
C11    C18     1.405   .     A
C11    C16     1.405   .     A
C12    O69     1.288   .     A
C12    O215    1.292   1_455 S
C13    C19     1.393   .     A
C13    C17     1.398   .     A
C14    C16     1.393   .     A
C14    C22     1.415   .     A
C14    F120    1.358   .     S
C15    F47     1.357   .     S
C15    C24     1.419   .     A
C15    C17     1.392   .     A
C16    F119    1.358   .     S
C17    F192    1.358   1_455 S
C18    F43     1.360   .     S
C18    C20     1.410   .     A
C19    C21     1.411   .     A
C19    F39     1.360   .     S
C20    C25     1.421   .     A
C20    C22     1.419   .     A
C21    C26     1.424   .     A
C21    C24     1.426   .     A
C22    C698    1.416   .     S
C23    C26     1.418   .     A
C23    F48     1.359   .     S
C23    C32     1.403   .     A
C24    C699    1.416   1_554 S
C25    C31     1.415   .     A
C25    C692    1.411   .     S
C26    C691    1.411   1_554 S
C27    O60     1.396   .     S
C27    O74     1.223   .     D
C27    C32     1.486   .     S
C28    O61     1.223   .     D
C28    C33     1.479   .     S
C28    O62     1.397   .     S
C29    O63     1.223   .     D
C29    C36     1.487   .     S
C29    O64     1.399   .     S
C30    O66     1.398   .     S
C30    O65     1.223   .     D
C31    C33     1.399   .     A
C31    F49     1.361   .     S
C32    C688    1.416   1_554 S
C33    C690    1.416   .     S
C34    F50     1.360   .     S
C34    C480    1.394   1_545 S
C35    F40     1.361   .     S
C35    C224    1.394   .     S
C36    C77     1.411   .     S
C36    C256    1.394   .     S
Cu37   O69     1.957   .     S
Cu37   O70     1.941   .     S
Cu37   O59     1.957   .     S
Cu37   O73     1.930   .     S
Cu37   N57     2.015   .     S
Cu37   Cu186   2.682   1_455 S
Cu38   N58     2.015   .     S
Cu38   O72     1.930   .     S
Cu38   O71     1.941   .     S
Cu38   O68     1.957   .     S
Cu38   O67     1.957   .     S
Cu38   Cu111   2.682   .     S
F44    C91     1.358   .     S
F45    C164    1.358   1_455 S
F46    C162    1.358   1_455 S
H53    O60     1.013   .     S
H54    O62     1.014   .     S
H55    O64     1.014   .     S
H56    O66     1.013   .     S
O59    C149    1.291   1_455 S
O67    C86     1.292   .     S
O70    C157    1.300   1_455 S
O71    C84     1.296   .     S
C75    O142    1.289   .     A
C75    C78     1.446   .     S
C75    O207    1.291   .     S
C76    C104    1.486   .     S
C76    C553    1.394   1_545 S
C77    C86     1.446   .     S
C77    C109    1.401   .     A
C78    C108    1.401   .     A
C78    C150    1.411   .     S
C79    N132    1.366   .     A
C79    C81     1.417   .     A
C79    H125    1.082   .     S
C80    N131    1.366   .     A
C80    C82     1.417   .     A
C80    H126    1.082   .     S
C81    F115    1.353   .     S
C81    N131    1.369   .     A
C82    F116    1.353   .     S
C82    N132    1.369   .     A
C83    O146    1.299   .     A
C83    C85     1.480   .     S
C83    O218    1.300   .     S
C84    O147    1.296   .     A
C84    C87     1.467   .     S
C85    C92     1.405   .     A
C85    C90     1.405   .     A
C86    O143    1.288   .     A
C87    C93     1.393   .     A
C87    C91     1.398   .     A
C88    C90     1.393   .     A
C88    C96     1.415   .     A
C88    F194    1.358   .     S
C89    F121    1.357   .     S
C89    C98     1.419   .     A
C89    C91     1.392   .     A
C90    F193    1.358   .     S
C92    F117    1.360   .     S
C92    C94     1.410   .     A
C93    C95     1.411   .     A
C93    F113    1.360   .     S
C94    C99     1.421   .     A
C94    C96     1.419   .     A
C95    C100    1.424   .     A
C95    C98     1.426   .     A
C96    C772    1.416   .     S
C97    C100    1.418   .     A
C97    F122    1.359   .     S
C97    C106    1.403   .     A
C98    C773    1.416   1_554 S
C99    C105    1.415   .     A
C99    C766    1.411   .     S
C100   C765    1.411   1_554 S
C101   O134    1.396   .     S
C101   O148    1.223   .     D
C101   C106    1.486   .     S
C102   O135    1.223   .     D
C102   C107    1.479   .     S
C102   O136    1.397   .     S
C103   O137    1.223   .     D
C103   C110    1.487   .     S
C103   O138    1.399   .     S
C104   O140    1.398   .     S
C104   O139    1.223   .     D
C105   C107    1.399   .     A
C105   F123    1.361   .     S
C106   C762    1.416   1_554 S
C107   C764    1.416   .     S
C108   F124    1.360   .     S
C108   C554    1.394   1_545 S
C109   F114    1.361   .     S
C109   C298    1.394   .     S
C110   C151    1.411   .     S
C110   C330    1.394   .     S
Cu111  O143    1.957   .     S
Cu111  O144    1.941   .     S
Cu111  O133    1.957   .     S
Cu111  O147    1.930   .     S
Cu111  N131    2.015   .     S
Cu112  N132    2.015   .     S
Cu112  O146    1.930   .     S
Cu112  O145    1.941   .     S
Cu112  O142    1.957   .     S
Cu112  O141    1.957   .     S
Cu112  Cu185   2.682   .     S
F118   C165    1.358   .     S
H127   O134    1.013   .     S
H128   O136    1.014   .     S
H129   O138    1.014   .     S
H130   O140    1.013   .     S
O141   C160    1.292   .     S
O145   C158    1.296   .     S
C149   O216    1.289   .     A
C149   C152    1.446   .     S
C149   O59     1.291   1_655 S
C150   C178    1.486   .     S
C150   C627    1.394   1_545 S
C151   C160    1.446   .     S
C151   C183    1.401   .     A
C152   C182    1.401   .     A
C152   C2      1.411   1_655 S
C153   N206    1.366   .     A
C153   C155    1.417   .     A
C153   H199    1.082   .     S
C154   N205    1.366   .     A
C154   C156    1.417   .     A
C154   H200    1.082   .     S
C155   F189    1.353   .     S
C155   N205    1.369   .     A
C156   F190    1.353   .     S
C156   N206    1.369   .     A
C157   O220    1.299   .     A
C157   C159    1.480   .     S
C157   O70     1.300   1_655 S
C158   O221    1.296   .     A
C158   C161    1.467   .     S
C159   C166    1.405   .     A
C159   C164    1.405   .     A
C160   O217    1.288   .     A
C161   C167    1.393   .     A
C161   C165    1.398   .     A
C162   C164    1.393   .     A
C162   C170    1.415   .     A
C162   F46     1.358   1_655 S
C163   F195    1.357   .     S
C163   C172    1.419   .     A
C163   C165    1.392   .     A
C164   F45     1.358   1_655 S
C166   F191    1.360   .     S
C166   C168    1.410   .     A
C167   C169    1.411   .     A
C167   F187    1.360   .     S
C168   C173    1.421   .     A
C168   C170    1.419   .     A
C169   C174    1.424   .     A
C169   C172    1.426   .     A
C170   C846    1.416   .     S
C171   C174    1.418   .     A
C171   F196    1.359   .     S
C171   C180    1.403   .     A
C172   C847    1.416   1_554 S
C173   C179    1.415   .     A
C173   C840    1.411   .     S
C174   C839    1.411   1_554 S
C175   O208    1.396   .     S
C175   O222    1.223   .     D
C175   C180    1.486   .     S
C176   O209    1.223   .     D
C176   C181    1.479   .     S
C176   O210    1.397   .     S
C177   O211    1.223   .     D
C177   C184    1.487   .     S
C177   O212    1.399   .     S
C178   O214    1.398   .     S
C178   O213    1.223   .     D
C179   C181    1.399   .     A
C179   F197    1.361   .     S
C180   C836    1.416   1_554 S
C181   C838    1.416   .     S
C182   F198    1.360   .     S
C182   C628    1.394   1_545 S
C183   F188    1.361   .     S
C183   C372    1.394   .     S
C184   C3      1.411   1_655 S
C184   C404    1.394   .     S
Cu185  O217    1.957   .     S
Cu185  O218    1.941   .     S
Cu185  O207    1.957   .     S
Cu185  O221    1.930   .     S
Cu185  N205    2.015   .     S
Cu186  N206    2.015   .     S
Cu186  O220    1.930   .     S
Cu186  O219    1.941   .     S
Cu186  O216    1.957   .     S
Cu186  O215    1.957   .     S
Cu186  Cu37    2.682   1_655 S
F192   C17     1.358   1_655 S
H201   O208    1.013   .     S
H202   O210    1.014   .     S
H203   O212    1.014   .     S
H204   O214    1.013   .     S
O215   C12     1.292   1_655 S
O219   C10     1.296   1_655 S
C223   O290    1.289   .     A
C223   C226    1.446   .     S
C223   O355    1.291   .     S
C224   C252    1.486   .     S
C224   C374    1.411   1_455 S
C225   C234    1.446   .     S
C225   C257    1.401   .     A
C225   C406    1.411   1_455 S
C226   C256    1.401   .     A
C226   C298    1.411   .     S
C227   N280    1.366   .     A
C227   C229    1.417   .     A
C227   H273    1.082   .     S
C228   N279    1.366   .     A
C228   C230    1.417   .     A
C228   H274    1.082   .     S
C229   F263    1.353   .     S
C229   N279    1.369   .     A
C230   F264    1.353   .     S
C230   N280    1.369   .     A
C231   O294    1.299   .     A
C231   C233    1.480   .     S
C231   O366    1.300   .     S
C232   O295    1.296   .     A
C232   C235    1.467   .     S
C232   O441    1.296   1_455 S
C233   C240    1.405   .     A
C233   C238    1.405   .     A
C234   O291    1.288   .     A
C234   O437    1.292   1_455 S
C235   C241    1.393   .     A
C235   C239    1.398   .     A
C236   C238    1.393   .     A
C236   C244    1.415   .     A
C236   F342    1.358   .     S
C237   F269    1.357   .     S
C237   C246    1.419   .     A
C237   C239    1.392   .     A
C238   F341    1.358   .     S
C239   F414    1.358   1_455 S
C240   F265    1.360   .     S
C240   C242    1.410   .     A
C241   C243    1.411   .     A
C241   F261    1.360   .     S
C242   C247    1.421   .     A
C242   C244    1.419   .     A
C243   C248    1.424   .     A
C243   C246    1.426   .     A
C244   C920    1.416   .     S
C245   C248    1.418   .     A
C245   F270    1.359   .     S
C245   C254    1.403   .     A
C246   C921    1.416   1_554 S
C247   C253    1.415   .     A
C247   C914    1.411   .     S
C248   C913    1.411   1_554 S
C249   O282    1.396   .     S
C249   O296    1.223   .     D
C249   C254    1.486   .     S
C250   O283    1.223   .     D
C250   C255    1.479   .     S
C250   O284    1.397   .     S
C251   O285    1.223   .     D
C251   C258    1.487   .     S
C251   O286    1.399   .     S
C252   O288    1.398   .     S
C252   O287    1.223   .     D
C253   C255    1.399   .     A
C253   F271    1.361   .     S
C254   C910    1.416   1_554 S
C255   C912    1.416   .     S
C256   F272    1.360   .     S
C257   F262    1.361   .     S
C257   C446    1.394   .     S
C258   C299    1.411   .     S
C258   C478    1.394   .     S
Cu259  O291    1.957   .     S
Cu259  O292    1.941   .     S
Cu259  O281    1.957   .     S
Cu259  O295    1.930   .     S
Cu259  N279    2.015   .     S
Cu259  Cu408   2.682   1_455 S
Cu260  N280    2.015   .     S
Cu260  O294    1.930   .     S
Cu260  O293    1.941   .     S
Cu260  O290    1.957   .     S
Cu260  O289    1.957   .     S
Cu260  Cu333   2.682   .     S
F266   C313    1.358   .     S
F267   C386    1.358   1_455 S
F268   C384    1.358   1_455 S
H275   O282    1.013   .     S
H276   O284    1.014   .     S
H277   O286    1.014   .     S
H278   O288    1.013   .     S
O281   C371    1.291   1_455 S
O289   C308    1.292   .     S
O292   C379    1.300   1_455 S
O293   C306    1.296   .     S
C297   O364    1.289   .     A
C297   C300    1.446   .     S
C297   O429    1.291   .     S
C298   C326    1.486   .     S
C299   C308    1.446   .     S
C299   C331    1.401   .     A
C300   C330    1.401   .     A
C300   C372    1.411   .     S
C301   N354    1.366   .     A
C301   C303    1.417   .     A
C301   H347    1.082   .     S
C302   N353    1.366   .     A
C302   C304    1.417   .     A
C302   H348    1.082   .     S
C303   F337    1.353   .     S
C303   N353    1.369   .     A
C304   F338    1.353   .     S
C304   N354    1.369   .     A
C305   O368    1.299   .     A
C305   C307    1.480   .     S
C305   O440    1.300   .     S
C306   O369    1.296   .     A
C306   C309    1.467   .     S
C307   C314    1.405   .     A
C307   C312    1.405   .     A
C308   O365    1.288   .     A
C309   C315    1.393   .     A
C309   C313    1.398   .     A
C310   C312    1.393   .     A
C310   C318    1.415   .     A
C310   F416    1.358   .     S
C311   F343    1.357   .     S
C311   C320    1.419   .     A
C311   C313    1.392   .     A
C312   F415    1.358   .     S
C314   F339    1.360   .     S
C314   C316    1.410   .     A
C315   C317    1.411   .     A
C315   F335    1.360   .     S
C316   C321    1.421   .     A
C316   C318    1.419   .     A
C317   C322    1.424   .     A
C317   C320    1.426   .     A
C318   C994    1.416   .     S
C319   C322    1.418   .     A
C319   F344    1.359   .     S
C319   C328    1.403   .     A
C320   C995    1.416   1_554 S
C321   C327    1.415   .     A
C321   C988    1.411   .     S
C322   C987    1.411   1_554 S
C323   O356    1.396   .     S
C323   O370    1.223   .     D
C323   C328    1.486   .     S
C324   O357    1.223   .     D
C324   C329    1.479   .     S
C324   O358    1.397   .     S
C325   O359    1.223   .     D
C325   C332    1.487   .     S
C325   O360    1.399   .     S
C326   O362    1.398   .     S
C326   O361    1.223   .     D
C327   C329    1.399   .     A
C327   F345    1.361   .     S
C328   C984    1.416   1_554 S
C329   C986    1.416   .     S
C330   F346    1.360   .     S
C331   F336    1.361   .     S
C331   C520    1.394   .     S
C332   C373    1.411   .     S
C332   C552    1.394   .     S
Cu333  O365    1.957   .     S
Cu333  O366    1.941   .     S
Cu333  O355    1.957   .     S
Cu333  O369    1.930   .     S
Cu333  N353    2.015   .     S
Cu334  N354    2.015   .     S
Cu334  O368    1.930   .     S
Cu334  O367    1.941   .     S
Cu334  O364    1.957   .     S
Cu334  O363    1.957   .     S
Cu334  Cu407   2.682   .     S
F340   C387    1.358   .     S
H349   O356    1.013   .     S
H350   O358    1.014   .     S
H351   O360    1.014   .     S
H352   O362    1.013   .     S
O363   C382    1.292   .     S
O367   C380    1.296   .     S
C371   O438    1.289   .     A
C371   C374    1.446   .     S
C371   O281    1.291   1_655 S
C372   C400    1.486   .     S
C373   C382    1.446   .     S
C373   C405    1.401   .     A
C374   C404    1.401   .     A
C374   C224    1.411   1_655 S
C375   N428    1.366   .     A
C375   C377    1.417   .     A
C375   H421    1.082   .     S
C376   N427    1.366   .     A
C376   C378    1.417   .     A
C376   H422    1.082   .     S
C377   F411    1.353   .     S
C377   N427    1.369   .     A
C378   F412    1.353   .     S
C378   N428    1.369   .     A
C379   O442    1.299   .     A
C379   C381    1.480   .     S
C379   O292    1.300   1_655 S
C380   O443    1.296   .     A
C380   C383    1.467   .     S
C381   C388    1.405   .     A
C381   C386    1.405   .     A
C382   O439    1.288   .     A
C383   C389    1.393   .     A
C383   C387    1.398   .     A
C384   C386    1.393   .     A
C384   C392    1.415   .     A
C384   F268    1.358   1_655 S
C385   F417    1.357   .     S
C385   C394    1.419   .     A
C385   C387    1.392   .     A
C386   F267    1.358   1_655 S
C388   F413    1.360   .     S
C388   C390    1.410   .     A
C389   C391    1.411   .     A
C389   F409    1.360   .     S
C390   C395    1.421   .     A
C390   C392    1.419   .     A
C391   C396    1.424   .     A
C391   C394    1.426   .     A
C392   C1068   1.416   .     S
C393   C396    1.418   .     A
C393   F418    1.359   .     S
C393   C402    1.403   .     A
C394   C1069   1.416   1_554 S
C395   C401    1.415   .     A
C395   C1062   1.411   .     S
C396   C1061   1.411   1_554 S
C397   O430    1.396   .     S
C397   O444    1.223   .     D
C397   C402    1.486   .     S
C398   O431    1.223   .     D
C398   C403    1.479   .     S
C398   O432    1.397   .     S
C399   O433    1.223   .     D
C399   C406    1.487   .     S
C399   O434    1.399   .     S
C400   O436    1.398   .     S
C400   O435    1.223   .     D
C401   C403    1.399   .     A
C401   F419    1.361   .     S
C402   C1058   1.416   1_554 S
C403   C1060   1.416   .     S
C404   F420    1.360   .     S
C405   F410    1.361   .     S
C405   C594    1.394   .     S
C406   C225    1.411   1_655 S
C406   C626    1.394   .     S
Cu407  O439    1.957   .     S
Cu407  O440    1.941   .     S
Cu407  O429    1.957   .     S
Cu407  O443    1.930   .     S
Cu407  N427    2.015   .     S
Cu408  N428    2.015   .     S
Cu408  O442    1.930   .     S
Cu408  O441    1.941   .     S
Cu408  O438    1.957   .     S
Cu408  O437    1.957   .     S
Cu408  Cu259   2.682   1_655 S
F414   C239    1.358   1_655 S
H423   O430    1.013   .     S
H424   O432    1.014   .     S
H425   O434    1.014   .     S
H426   O436    1.013   .     S
O437   C234    1.292   1_655 S
O441   C232    1.296   1_655 S
C445   O512    1.289   .     A
C445   C448    1.446   .     S
C445   O577    1.291   .     S
C446   C474    1.486   .     S
C446   C596    1.411   1_455 S
C447   C456    1.446   .     S
C447   C479    1.401   .     A
C447   C628    1.411   1_455 S
C448   C478    1.401   .     A
C448   C520    1.411   .     S
C449   N502    1.366   .     A
C449   C451    1.417   .     A
C449   H495    1.082   .     S
C450   N501    1.366   .     A
C450   C452    1.417   .     A
C450   H496    1.082   .     S
C451   F485    1.353   .     S
C451   N501    1.369   .     A
C452   F486    1.353   .     S
C452   N502    1.369   .     A
C453   O516    1.299   .     A
C453   C455    1.480   .     S
C453   O588    1.300   .     S
C454   O517    1.296   .     A
C454   C457    1.467   .     S
C454   O663    1.296   1_455 S
C455   C462    1.405   .     A
C455   C460    1.405   .     A
C456   O513    1.288   .     A
C456   O659    1.292   1_455 S
C457   C463    1.393   .     A
C457   C461    1.398   .     A
C458   C460    1.393   .     A
C458   C466    1.415   .     A
C458   F564    1.358   .     S
C459   F491    1.357   .     S
C459   C468    1.419   .     A
C459   C461    1.392   .     A
C460   F563    1.358   .     S
C461   F636    1.358   1_455 S
C462   F487    1.360   .     S
C462   C464    1.410   .     A
C463   C465    1.411   .     A
C463   F483    1.360   .     S
C464   C469    1.421   .     A
C464   C466    1.419   .     A
C465   C470    1.424   .     A
C465   C468    1.426   .     A
C466   C1142   1.416   .     S
C467   C470    1.418   .     A
C467   F492    1.359   .     S
C467   C476    1.403   .     A
C468   C1143   1.416   1_554 S
C469   C475    1.415   .     A
C469   C1136   1.411   .     S
C470   C1135   1.411   1_554 S
C471   O504    1.396   .     S
C471   O518    1.223   .     D
C471   C476    1.486   .     S
C472   O505    1.223   .     D
C472   C477    1.479   .     S
C472   O506    1.397   .     S
C473   O507    1.223   .     D
C473   C480    1.487   .     S
C473   O508    1.399   .     S
C474   O510    1.398   .     S
C474   O509    1.223   .     D
C475   C477    1.399   .     A
C475   F493    1.361   .     S
C476   C1132   1.416   1_554 S
C477   C1134   1.416   .     S
C478   F494    1.360   .     S
C479   F484    1.361   .     S
C479   C2      1.394   1_565 S
C480   C521    1.411   .     S
C480   C34     1.394   1_565 S
Cu481  O513    1.957   .     S
Cu481  O514    1.941   .     S
Cu481  O503    1.957   .     S
Cu481  O517    1.930   .     S
Cu481  N501    2.015   .     S
Cu481  Cu630   2.682   1_455 S
Cu482  N502    2.015   .     S
Cu482  O516    1.930   .     S
Cu482  O515    1.941   .     S
Cu482  O512    1.957   .     S
Cu482  O511    1.957   .     S
Cu482  Cu555   2.682   .     S
F488   C535    1.358   .     S
F489   C608    1.358   1_455 S
F490   C606    1.358   1_455 S
H497   O504    1.013   .     S
H498   O506    1.014   .     S
H499   O508    1.014   .     S
H500   O510    1.013   .     S
O503   C593    1.291   1_455 S
O511   C530    1.292   .     S
O514   C601    1.300   1_455 S
O515   C528    1.296   .     S
C519   O586    1.289   .     A
C519   C522    1.446   .     S
C519   O651    1.291   .     S
C520   C548    1.486   .     S
C521   C530    1.446   .     S
C521   C553    1.401   .     A
C522   C552    1.401   .     A
C522   C594    1.411   .     S
C523   N576    1.366   .     A
C523   C525    1.417   .     A
C523   H569    1.082   .     S
C524   N575    1.366   .     A
C524   C526    1.417   .     A
C524   H570    1.082   .     S
C525   F559    1.353   .     S
C525   N575    1.369   .     A
C526   F560    1.353   .     S
C526   N576    1.369   .     A
C527   O590    1.299   .     A
C527   C529    1.480   .     S
C527   O662    1.300   .     S
C528   O591    1.296   .     A
C528   C531    1.467   .     S
C529   C536    1.405   .     A
C529   C534    1.405   .     A
C530   O587    1.288   .     A
C531   C537    1.393   .     A
C531   C535    1.398   .     A
C532   C534    1.393   .     A
C532   C540    1.415   .     A
C532   F638    1.358   .     S
C533   F565    1.357   .     S
C533   C542    1.419   .     A
C533   C535    1.392   .     A
C534   F637    1.358   .     S
C536   F561    1.360   .     S
C536   C538    1.410   .     A
C537   C539    1.411   .     A
C537   F557    1.360   .     S
C538   C543    1.421   .     A
C538   C540    1.419   .     A
C539   C544    1.424   .     A
C539   C542    1.426   .     A
C540   C1216   1.416   .     S
C541   C544    1.418   .     A
C541   F566    1.359   .     S
C541   C550    1.403   .     A
C542   C1217   1.416   1_554 S
C543   C549    1.415   .     A
C543   C1210   1.411   .     S
C544   C1209   1.411   1_554 S
C545   O578    1.396   .     S
C545   O592    1.223   .     D
C545   C550    1.486   .     S
C546   O579    1.223   .     D
C546   C551    1.479   .     S
C546   O580    1.397   .     S
C547   O581    1.223   .     D
C547   C554    1.487   .     S
C547   O582    1.399   .     S
C548   O584    1.398   .     S
C548   O583    1.223   .     D
C549   C551    1.399   .     A
C549   F567    1.361   .     S
C550   C1206   1.416   1_554 S
C551   C1208   1.416   .     S
C552   F568    1.360   .     S
C553   F558    1.361   .     S
C553   C76     1.394   1_565 S
C554   C595    1.411   .     S
C554   C108    1.394   1_565 S
Cu555  O587    1.957   .     S
Cu555  O588    1.941   .     S
Cu555  O577    1.957   .     S
Cu555  O591    1.930   .     S
Cu555  N575    2.015   .     S
Cu556  N576    2.015   .     S
Cu556  O590    1.930   .     S
Cu556  O589    1.941   .     S
Cu556  O586    1.957   .     S
Cu556  O585    1.957   .     S
Cu556  Cu629   2.682   .     S
F562   C609    1.358   .     S
H571   O578    1.013   .     S
H572   O580    1.014   .     S
H573   O582    1.014   .     S
H574   O584    1.013   .     S
O585   C604    1.292   .     S
O589   C602    1.296   .     S
C593   O660    1.289   .     A
C593   C596    1.446   .     S
C593   O503    1.291   1_655 S
C594   C622    1.486   .     S
C595   C604    1.446   .     S
C595   C627    1.401   .     A
C596   C626    1.401   .     A
C596   C446    1.411   1_655 S
C597   N650    1.366   .     A
C597   C599    1.417   .     A
C597   H643    1.082   .     S
C598   N649    1.366   .     A
C598   C600    1.417   .     A
C598   H644    1.082   .     S
C599   F633    1.353   .     S
C599   N649    1.369   .     A
C600   F634    1.353   .     S
C600   N650    1.369   .     A
C601   O664    1.299   .     A
C601   C603    1.480   .     S
C601   O514    1.300   1_655 S
C602   O665    1.296   .     A
C602   C605    1.467   .     S
C603   C610    1.405   .     A
C603   C608    1.405   .     A
C604   O661    1.288   .     A
C605   C611    1.393   .     A
C605   C609    1.398   .     A
C606   C608    1.393   .     A
C606   C614    1.415   .     A
C606   F490    1.358   1_655 S
C607   F639    1.357   .     S
C607   C616    1.419   .     A
C607   C609    1.392   .     A
C608   F489    1.358   1_655 S
C610   F635    1.360   .     S
C610   C612    1.410   .     A
C611   C613    1.411   .     A
C611   F631    1.360   .     S
C612   C617    1.421   .     A
C612   C614    1.419   .     A
C613   C618    1.424   .     A
C613   C616    1.426   .     A
C614   C1290   1.416   .     S
C615   C618    1.418   .     A
C615   F640    1.359   .     S
C615   C624    1.403   .     A
C616   C1291   1.416   1_554 S
C617   C623    1.415   .     A
C617   C1284   1.411   .     S
C618   C1283   1.411   1_554 S
C619   O652    1.396   .     S
C619   O666    1.223   .     D
C619   C624    1.486   .     S
C620   O653    1.223   .     D
C620   C625    1.479   .     S
C620   O654    1.397   .     S
C621   O655    1.223   .     D
C621   C628    1.487   .     S
C621   O656    1.399   .     S
C622   O658    1.398   .     S
C622   O657    1.223   .     D
C623   C625    1.399   .     A
C623   F641    1.361   .     S
C624   C1280   1.416   1_554 S
C625   C1282   1.416   .     S
C626   F642    1.360   .     S
C627   F632    1.361   .     S
C627   C150    1.394   1_565 S
C628   C447    1.411   1_655 S
C628   C182    1.394   1_565 S
Cu629  O661    1.957   .     S
Cu629  O662    1.941   .     S
Cu629  O651    1.957   .     S
Cu629  O665    1.930   .     S
Cu629  N649    2.015   .     S
Cu630  N650    2.015   .     S
Cu630  O664    1.930   .     S
Cu630  O663    1.941   .     S
Cu630  O660    1.957   .     S
Cu630  O659    1.957   .     S
Cu630  Cu481   2.682   1_655 S
F636   C461    1.358   1_655 S
H645   O652    1.013   .     S
H646   O654    1.014   .     S
H647   O656    1.014   .     S
H648   O658    1.013   .     S
O659   C456    1.292   1_655 S
O663   C454    1.296   1_655 S
C667   O734    1.289   .     A
C667   C670    1.446   .     S
C667   O799    1.291   .     S
C668   C696    1.486   .     S
C668   C818    1.411   1_455 S
C668   C1145   1.394   1_545 S
C669   C678    1.446   .     S
C669   C701    1.401   .     A
C669   C850    1.411   1_455 S
C670   C700    1.401   .     A
C670   C742    1.411   .     S
C671   N724    1.366   .     A
C671   C673    1.417   .     A
C671   H717    1.082   .     S
C672   N723    1.366   .     A
C672   C674    1.417   .     A
C672   H718    1.082   .     S
C673   F707    1.353   .     S
C673   N723    1.369   .     A
C674   F708    1.353   .     S
C674   N724    1.369   .     A
C675   O738    1.299   .     A
C675   C677    1.480   .     S
C675   O810    1.300   .     S
C676   O739    1.296   .     A
C676   C679    1.467   .     S
C676   O885    1.296   1_455 S
C677   C684    1.405   .     A
C677   C682    1.405   .     A
C678   O735    1.288   .     A
C678   O881    1.292   1_455 S
C679   C685    1.393   .     A
C679   C683    1.398   .     A
C680   C682    1.393   .     A
C680   C688    1.415   .     A
C680   F786    1.358   .     S
C681   F713    1.357   .     S
C681   C690    1.419   .     A
C681   C683    1.392   .     A
C682   F785    1.358   .     S
C683   F858    1.358   1_455 S
C684   F709    1.360   .     S
C684   C686    1.410   .     A
C685   C687    1.411   .     A
C685   F705    1.360   .     S
C686   C691    1.421   .     A
C686   C688    1.419   .     A
C687   C692    1.424   .     A
C687   C690    1.426   .     A
C688   C32     1.416   1_556 S
C689   C692    1.418   .     A
C689   F714    1.359   .     S
C689   C698    1.403   .     A
C691   C697    1.415   .     A
C691   C26     1.411   1_556 S
C693   O726    1.396   .     S
C693   O740    1.223   .     D
C693   C698    1.486   .     S
C694   O727    1.223   .     D
C694   C699    1.479   .     S
C694   O728    1.397   .     S
C695   O729    1.223   .     D
C695   C702    1.487   .     S
C695   O730    1.399   .     S
C696   O732    1.398   .     S
C696   O731    1.223   .     D
C697   C699    1.399   .     A
C697   F715    1.361   .     S
C699   C24     1.416   1_556 S
C700   F716    1.360   .     S
C700   C1146   1.394   1_545 S
C701   F706    1.361   .     S
C701   C890    1.394   .     S
C702   C743    1.411   .     S
C702   C922    1.394   .     S
Cu703  O735    1.957   .     S
Cu703  O736    1.941   .     S
Cu703  O725    1.957   .     S
Cu703  O739    1.930   .     S
Cu703  N723    2.015   .     S
Cu703  Cu852   2.682   1_455 S
Cu704  N724    2.015   .     S
Cu704  O738    1.930   .     S
Cu704  O737    1.941   .     S
Cu704  O734    1.957   .     S
Cu704  O733    1.957   .     S
Cu704  Cu777   2.682   .     S
F710   C757    1.358   .     S
F711   C830    1.358   1_455 S
F712   C828    1.358   1_455 S
H719   O726    1.013   .     S
H720   O728    1.014   .     S
H721   O730    1.014   .     S
H722   O732    1.013   .     S
O725   C815    1.291   1_455 S
O733   C752    1.292   .     S
O736   C823    1.300   1_455 S
O737   C750    1.296   .     S
C741   O808    1.289   .     A
C741   C744    1.446   .     S
C741   O873    1.291   .     S
C742   C770    1.486   .     S
C742   C1219   1.394   1_545 S
C743   C752    1.446   .     S
C743   C775    1.401   .     A
C744   C774    1.401   .     A
C744   C816    1.411   .     S
C745   N798    1.366   .     A
C745   C747    1.417   .     A
C745   H791    1.082   .     S
C746   N797    1.366   .     A
C746   C748    1.417   .     A
C746   H792    1.082   .     S
C747   F781    1.353   .     S
C747   N797    1.369   .     A
C748   F782    1.353   .     S
C748   N798    1.369   .     A
C749   O812    1.299   .     A
C749   C751    1.480   .     S
C749   O884    1.300   .     S
C750   O813    1.296   .     A
C750   C753    1.467   .     S
C751   C758    1.405   .     A
C751   C756    1.405   .     A
C752   O809    1.288   .     A
C753   C759    1.393   .     A
C753   C757    1.398   .     A
C754   C756    1.393   .     A
C754   C762    1.415   .     A
C754   F860    1.358   .     S
C755   F787    1.357   .     S
C755   C764    1.419   .     A
C755   C757    1.392   .     A
C756   F859    1.358   .     S
C758   F783    1.360   .     S
C758   C760    1.410   .     A
C759   C761    1.411   .     A
C759   F779    1.360   .     S
C760   C765    1.421   .     A
C760   C762    1.419   .     A
C761   C766    1.424   .     A
C761   C764    1.426   .     A
C762   C106    1.416   1_556 S
C763   C766    1.418   .     A
C763   F788    1.359   .     S
C763   C772    1.403   .     A
C765   C771    1.415   .     A
C765   C100    1.411   1_556 S
C767   O800    1.396   .     S
C767   O814    1.223   .     D
C767   C772    1.486   .     S
C768   O801    1.223   .     D
C768   C773    1.479   .     S
C768   O802    1.397   .     S
C769   O803    1.223   .     D
C769   C776    1.487   .     S
C769   O804    1.399   .     S
C770   O806    1.398   .     S
C770   O805    1.223   .     D
C771   C773    1.399   .     A
C771   F789    1.361   .     S
C773   C98     1.416   1_556 S
C774   F790    1.360   .     S
C774   C1220   1.394   1_545 S
C775   F780    1.361   .     S
C775   C964    1.394   .     S
C776   C817    1.411   .     S
C776   C996    1.394   .     S
Cu777  O809    1.957   .     S
Cu777  O810    1.941   .     S
Cu777  O799    1.957   .     S
Cu777  O813    1.930   .     S
Cu777  N797    2.015   .     S
Cu778  N798    2.015   .     S
Cu778  O812    1.930   .     S
Cu778  O811    1.941   .     S
Cu778  O808    1.957   .     S
Cu778  O807    1.957   .     S
Cu778  Cu851   2.682   .     S
F784   C831    1.358   .     S
H793   O800    1.013   .     S
H794   O802    1.014   .     S
H795   O804    1.014   .     S
H796   O806    1.013   .     S
O807   C826    1.292   .     S
O811   C824    1.296   .     S
C815   O882    1.289   .     A
C815   C818    1.446   .     S
C815   O725    1.291   1_655 S
C816   C844    1.486   .     S
C816   C1293   1.394   1_545 S
C817   C826    1.446   .     S
C817   C849    1.401   .     A
C818   C848    1.401   .     A
C818   C668    1.411   1_655 S
C819   N872    1.366   .     A
C819   C821    1.417   .     A
C819   H865    1.082   .     S
C820   N871    1.366   .     A
C820   C822    1.417   .     A
C820   H866    1.082   .     S
C821   F855    1.353   .     S
C821   N871    1.369   .     A
C822   F856    1.353   .     S
C822   N872    1.369   .     A
C823   O886    1.299   .     A
C823   C825    1.480   .     S
C823   O736    1.300   1_655 S
C824   O887    1.296   .     A
C824   C827    1.467   .     S
C825   C832    1.405   .     A
C825   C830    1.405   .     A
C826   O883    1.288   .     A
C827   C833    1.393   .     A
C827   C831    1.398   .     A
C828   C830    1.393   .     A
C828   C836    1.415   .     A
C828   F712    1.358   1_655 S
C829   F861    1.357   .     S
C829   C838    1.419   .     A
C829   C831    1.392   .     A
C830   F711    1.358   1_655 S
C832   F857    1.360   .     S
C832   C834    1.410   .     A
C833   C835    1.411   .     A
C833   F853    1.360   .     S
C834   C839    1.421   .     A
C834   C836    1.419   .     A
C835   C840    1.424   .     A
C835   C838    1.426   .     A
C836   C180    1.416   1_556 S
C837   C840    1.418   .     A
C837   F862    1.359   .     S
C837   C846    1.403   .     A
C839   C845    1.415   .     A
C839   C174    1.411   1_556 S
C841   O874    1.396   .     S
C841   O888    1.223   .     D
C841   C846    1.486   .     S
C842   O875    1.223   .     D
C842   C847    1.479   .     S
C842   O876    1.397   .     S
C843   O877    1.223   .     D
C843   C850    1.487   .     S
C843   O878    1.399   .     S
C844   O880    1.398   .     S
C844   O879    1.223   .     D
C845   C847    1.399   .     A
C845   F863    1.361   .     S
C847   C172    1.416   1_556 S
C848   F864    1.360   .     S
C848   C1294   1.394   1_545 S
C849   F854    1.361   .     S
C849   C1038   1.394   .     S
C850   C669    1.411   1_655 S
C850   C1070   1.394   .     S
Cu851  O883    1.957   .     S
Cu851  O884    1.941   .     S
Cu851  O873    1.957   .     S
Cu851  O887    1.930   .     S
Cu851  N871    2.015   .     S
Cu852  N872    2.015   .     S
Cu852  O886    1.930   .     S
Cu852  O885    1.941   .     S
Cu852  O882    1.957   .     S
Cu852  O881    1.957   .     S
Cu852  Cu703   2.682   1_655 S
F858   C683    1.358   1_655 S
H867   O874    1.013   .     S
H868   O876    1.014   .     S
H869   O878    1.014   .     S
H870   O880    1.013   .     S
O881   C678    1.292   1_655 S
O885   C676    1.296   1_655 S
C889   O956    1.289   .     A
C889   C892    1.446   .     S
C889   O1021   1.291   .     S
C890   C918    1.486   .     S
C890   C1040   1.411   1_455 S
C891   C900    1.446   .     S
C891   C923    1.401   .     A
C891   C1072   1.411   1_455 S
C892   C922    1.401   .     A
C892   C964    1.411   .     S
C893   N946    1.366   .     A
C893   C895    1.417   .     A
C893   H939    1.082   .     S
C894   N945    1.366   .     A
C894   C896    1.417   .     A
C894   H940    1.082   .     S
C895   F929    1.353   .     S
C895   N945    1.369   .     A
C896   F930    1.353   .     S
C896   N946    1.369   .     A
C897   O960    1.299   .     A
C897   C899    1.480   .     S
C897   O1032   1.300   .     S
C898   O961    1.296   .     A
C898   C901    1.467   .     S
C898   O1107   1.296   1_455 S
C899   C906    1.405   .     A
C899   C904    1.405   .     A
C900   O957    1.288   .     A
C900   O1103   1.292   1_455 S
C901   C907    1.393   .     A
C901   C905    1.398   .     A
C902   C904    1.393   .     A
C902   C910    1.415   .     A
C902   F1008   1.358   .     S
C903   F935    1.357   .     S
C903   C912    1.419   .     A
C903   C905    1.392   .     A
C904   F1007   1.358   .     S
C905   F1080   1.358   1_455 S
C906   F931    1.360   .     S
C906   C908    1.410   .     A
C907   C909    1.411   .     A
C907   F927    1.360   .     S
C908   C913    1.421   .     A
C908   C910    1.419   .     A
C909   C914    1.424   .     A
C909   C912    1.426   .     A
C910   C254    1.416   1_556 S
C911   C914    1.418   .     A
C911   F936    1.359   .     S
C911   C920    1.403   .     A
C913   C919    1.415   .     A
C913   C248    1.411   1_556 S
C915   O948    1.396   .     S
C915   O962    1.223   .     D
C915   C920    1.486   .     S
C916   O949    1.223   .     D
C916   C921    1.479   .     S
C916   O950    1.397   .     S
C917   O951    1.223   .     D
C917   C924    1.487   .     S
C917   O952    1.399   .     S
C918   O954    1.398   .     S
C918   O953    1.223   .     D
C919   C921    1.399   .     A
C919   F937    1.361   .     S
C921   C246    1.416   1_556 S
C922   F938    1.360   .     S
C923   F928    1.361   .     S
C923   C1112   1.394   .     S
C924   C965    1.411   .     S
C924   C1144   1.394   .     S
Cu925  O957    1.957   .     S
Cu925  O958    1.941   .     S
Cu925  O947    1.957   .     S
Cu925  O961    1.930   .     S
Cu925  N945    2.015   .     S
Cu925  Cu1074  2.682   1_455 S
Cu926  N946    2.015   .     S
Cu926  O960    1.930   .     S
Cu926  O959    1.941   .     S
Cu926  O956    1.957   .     S
Cu926  O955    1.957   .     S
Cu926  Cu999   2.682   .     S
F932   C979    1.358   .     S
F933   C1052   1.358   1_455 S
F934   C1050   1.358   1_455 S
H941   O948    1.013   .     S
H942   O950    1.014   .     S
H943   O952    1.014   .     S
H944   O954    1.013   .     S
O947   C1037   1.291   1_455 S
O955   C974    1.292   .     S
O958   C1045   1.300   1_455 S
O959   C972    1.296   .     S
C963   O1030   1.289   .     A
C963   C966    1.446   .     S
C963   O1095   1.291   .     S
C964   C992    1.486   .     S
C965   C974    1.446   .     S
C965   C997    1.401   .     A
C966   C996    1.401   .     A
C966   C1038   1.411   .     S
C967   N1020   1.366   .     A
C967   C969    1.417   .     A
C967   H1013   1.082   .     S
C968   N1019   1.366   .     A
C968   C970    1.417   .     A
C968   H1014   1.082   .     S
C969   F1003   1.353   .     S
C969   N1019   1.369   .     A
C970   F1004   1.353   .     S
C970   N1020   1.369   .     A
C971   O1034   1.299   .     A
C971   C973    1.480   .     S
C971   O1106   1.300   .     S
C972   O1035   1.296   .     A
C972   C975    1.467   .     S
C973   C980    1.405   .     A
C973   C978    1.405   .     A
C974   O1031   1.288   .     A
C975   C981    1.393   .     A
C975   C979    1.398   .     A
C976   C978    1.393   .     A
C976   C984    1.415   .     A
C976   F1082   1.358   .     S
C977   F1009   1.357   .     S
C977   C986    1.419   .     A
C977   C979    1.392   .     A
C978   F1081   1.358   .     S
C980   F1005   1.360   .     S
C980   C982    1.410   .     A
C981   C983    1.411   .     A
C981   F1001   1.360   .     S
C982   C987    1.421   .     A
C982   C984    1.419   .     A
C983   C988    1.424   .     A
C983   C986    1.426   .     A
C984   C328    1.416   1_556 S
C985   C988    1.418   .     A
C985   F1010   1.359   .     S
C985   C994    1.403   .     A
C987   C993    1.415   .     A
C987   C322    1.411   1_556 S
C989   O1022   1.396   .     S
C989   O1036   1.223   .     D
C989   C994    1.486   .     S
C990   O1023   1.223   .     D
C990   C995    1.479   .     S
C990   O1024   1.397   .     S
C991   O1025   1.223   .     D
C991   C998    1.487   .     S
C991   O1026   1.399   .     S
C992   O1028   1.398   .     S
C992   O1027   1.223   .     D
C993   C995    1.399   .     A
C993   F1011   1.361   .     S
C995   C320    1.416   1_556 S
C996   F1012   1.360   .     S
C997   F1002   1.361   .     S
C997   C1186   1.394   .     S
C998   C1039   1.411   .     S
C998   C1218   1.394   .     S
Cu999  O1031   1.957   .     S
Cu999  O1032   1.941   .     S
Cu999  O1021   1.957   .     S
Cu999  O1035   1.930   .     S
Cu999  N1019   2.015   .     S
Cu1000 N1020   2.015   .     S
Cu1000 O1034   1.930   .     S
Cu1000 O1033   1.941   .     S
Cu1000 O1030   1.957   .     S
Cu1000 O1029   1.957   .     S
Cu1000 Cu1073  2.682   .     S
F1006  C1053   1.358   .     S
H1015  O1022   1.013   .     S
H1016  O1024   1.014   .     S
H1017  O1026   1.014   .     S
H1018  O1028   1.013   .     S
O1029  C1048   1.292   .     S
O1033  C1046   1.296   .     S
C1037  O1104   1.289   .     A
C1037  C1040   1.446   .     S
C1037  O947    1.291   1_655 S
C1038  C1066   1.486   .     S
C1039  C1048   1.446   .     S
C1039  C1071   1.401   .     A
C1040  C1070   1.401   .     A
C1040  C890    1.411   1_655 S
C1041  N1094   1.366   .     A
C1041  C1043   1.417   .     A
C1041  H1087   1.082   .     S
C1042  N1093   1.366   .     A
C1042  C1044   1.417   .     A
C1042  H1088   1.082   .     S
C1043  F1077   1.353   .     S
C1043  N1093   1.369   .     A
C1044  F1078   1.353   .     S
C1044  N1094   1.369   .     A
C1045  O1108   1.299   .     A
C1045  C1047   1.480   .     S
C1045  O958    1.300   1_655 S
C1046  O1109   1.296   .     A
C1046  C1049   1.467   .     S
C1047  C1054   1.405   .     A
C1047  C1052   1.405   .     A
C1048  O1105   1.288   .     A
C1049  C1055   1.393   .     A
C1049  C1053   1.398   .     A
C1050  C1052   1.393   .     A
C1050  C1058   1.415   .     A
C1050  F934    1.358   1_655 S
C1051  F1083   1.357   .     S
C1051  C1060   1.419   .     A
C1051  C1053   1.392   .     A
C1052  F933    1.358   1_655 S
C1054  F1079   1.360   .     S
C1054  C1056   1.410   .     A
C1055  C1057   1.411   .     A
C1055  F1075   1.360   .     S
C1056  C1061   1.421   .     A
C1056  C1058   1.419   .     A
C1057  C1062   1.424   .     A
C1057  C1060   1.426   .     A
C1058  C402    1.416   1_556 S
C1059  C1062   1.418   .     A
C1059  F1084   1.359   .     S
C1059  C1068   1.403   .     A
C1061  C1067   1.415   .     A
C1061  C396    1.411   1_556 S
C1063  O1096   1.396   .     S
C1063  O1110   1.223   .     D
C1063  C1068   1.486   .     S
C1064  O1097   1.223   .     D
C1064  C1069   1.479   .     S
C1064  O1098   1.397   .     S
C1065  O1099   1.223   .     D
C1065  C1072   1.487   .     S
C1065  O1100   1.399   .     S
C1066  O1102   1.398   .     S
C1066  O1101   1.223   .     D
C1067  C1069   1.399   .     A
C1067  F1085   1.361   .     S
C1069  C394    1.416   1_556 S
C1070  F1086   1.360   .     S
C1071  F1076   1.361   .     S
C1071  C1260   1.394   .     S
C1072  C891    1.411   1_655 S
C1072  C1292   1.394   .     S
Cu1073 O1105   1.957   .     S
Cu1073 O1106   1.941   .     S
Cu1073 O1095   1.957   .     S
Cu1073 O1109   1.930   .     S
Cu1073 N1093   2.015   .     S
Cu1074 N1094   2.015   .     S
Cu1074 O1108   1.930   .     S
Cu1074 O1107   1.941   .     S
Cu1074 O1104   1.957   .     S
Cu1074 O1103   1.957   .     S
Cu1074 Cu925   2.682   1_655 S
F1080  C905    1.358   1_655 S
H1089  O1096   1.013   .     S
H1090  O1098   1.014   .     S
H1091  O1100   1.014   .     S
H1092  O1102   1.013   .     S
O1103  C900    1.292   1_655 S
O1107  C898    1.296   1_655 S
C1111  O1178   1.289   .     A
C1111  C1114   1.446   .     S
C1111  O1243   1.291   .     S
C1112  C1140   1.486   .     S
C1112  C1262   1.411   1_455 S
C1113  C1122   1.446   .     S
C1113  C1145   1.401   .     A
C1113  C1294   1.411   1_455 S
C1114  C1144   1.401   .     A
C1114  C1186   1.411   .     S
C1115  N1168   1.366   .     A
C1115  C1117   1.417   .     A
C1115  H1161   1.082   .     S
C1116  N1167   1.366   .     A
C1116  C1118   1.417   .     A
C1116  H1162   1.082   .     S
C1117  F1151   1.353   .     S
C1117  N1167   1.369   .     A
C1118  F1152   1.353   .     S
C1118  N1168   1.369   .     A
C1119  O1182   1.299   .     A
C1119  C1121   1.480   .     S
C1119  O1254   1.300   .     S
C1120  O1183   1.296   .     A
C1120  C1123   1.467   .     S
C1120  O1329   1.296   1_455 S
C1121  C1128   1.405   .     A
C1121  C1126   1.405   .     A
C1122  O1179   1.288   .     A
C1122  O1325   1.292   1_455 S
C1123  C1129   1.393   .     A
C1123  C1127   1.398   .     A
C1124  C1126   1.393   .     A
C1124  C1132   1.415   .     A
C1124  F1230   1.358   .     S
C1125  F1157   1.357   .     S
C1125  C1134   1.419   .     A
C1125  C1127   1.392   .     A
C1126  F1229   1.358   .     S
C1127  F1302   1.358   1_455 S
C1128  F1153   1.360   .     S
C1128  C1130   1.410   .     A
C1129  C1131   1.411   .     A
C1129  F1149   1.360   .     S
C1130  C1135   1.421   .     A
C1130  C1132   1.419   .     A
C1131  C1136   1.424   .     A
C1131  C1134   1.426   .     A
C1132  C476    1.416   1_556 S
C1133  C1136   1.418   .     A
C1133  F1158   1.359   .     S
C1133  C1142   1.403   .     A
C1135  C1141   1.415   .     A
C1135  C470    1.411   1_556 S
C1137  O1170   1.396   .     S
C1137  O1184   1.223   .     D
C1137  C1142   1.486   .     S
C1138  O1171   1.223   .     D
C1138  C1143   1.479   .     S
C1138  O1172   1.397   .     S
C1139  O1173   1.223   .     D
C1139  C1146   1.487   .     S
C1139  O1174   1.399   .     S
C1140  O1176   1.398   .     S
C1140  O1175   1.223   .     D
C1141  C1143   1.399   .     A
C1141  F1159   1.361   .     S
C1143  C468    1.416   1_556 S
C1144  F1160   1.360   .     S
C1145  F1150   1.361   .     S
C1145  C668    1.394   1_565 S
C1146  C1187   1.411   .     S
C1146  C700    1.394   1_565 S
Cu1147 O1179   1.957   .     S
Cu1147 O1180   1.941   .     S
Cu1147 O1169   1.957   .     S
Cu1147 O1183   1.930   .     S
Cu1147 N1167   2.015   .     S
Cu1147 Cu1296  2.682   1_455 S
Cu1148 N1168   2.015   .     S
Cu1148 O1182   1.930   .     S
Cu1148 O1181   1.941   .     S
Cu1148 O1178   1.957   .     S
Cu1148 O1177   1.957   .     S
Cu1148 Cu1221  2.682   .     S
F1154  C1201   1.358   .     S
F1155  C1274   1.358   1_455 S
F1156  C1272   1.358   1_455 S
H1163  O1170   1.013   .     S
H1164  O1172   1.014   .     S
H1165  O1174   1.014   .     S
H1166  O1176   1.013   .     S
O1169  C1259   1.291   1_455 S
O1177  C1196   1.292   .     S
O1180  C1267   1.300   1_455 S
O1181  C1194   1.296   .     S
C1185  O1252   1.289   .     A
C1185  C1188   1.446   .     S
C1185  O1317   1.291   .     S
C1186  C1214   1.486   .     S
C1187  C1196   1.446   .     S
C1187  C1219   1.401   .     A
C1188  C1218   1.401   .     A
C1188  C1260   1.411   .     S
C1189  N1242   1.366   .     A
C1189  C1191   1.417   .     A
C1189  H1235   1.082   .     S
C1190  N1241   1.366   .     A
C1190  C1192   1.417   .     A
C1190  H1236   1.082   .     S
C1191  F1225   1.353   .     S
C1191  N1241   1.369   .     A
C1192  F1226   1.353   .     S
C1192  N1242   1.369   .     A
C1193  O1256   1.299   .     A
C1193  C1195   1.480   .     S
C1193  O1328   1.300   .     S
C1194  O1257   1.296   .     A
C1194  C1197   1.467   .     S
C1195  C1202   1.405   .     A
C1195  C1200   1.405   .     A
C1196  O1253   1.288   .     A
C1197  C1203   1.393   .     A
C1197  C1201   1.398   .     A
C1198  C1200   1.393   .     A
C1198  C1206   1.415   .     A
C1198  F1304   1.358   .     S
C1199  F1231   1.357   .     S
C1199  C1208   1.419   .     A
C1199  C1201   1.392   .     A
C1200  F1303   1.358   .     S
C1202  F1227   1.360   .     S
C1202  C1204   1.410   .     A
C1203  C1205   1.411   .     A
C1203  F1223   1.360   .     S
C1204  C1209   1.421   .     A
C1204  C1206   1.419   .     A
C1205  C1210   1.424   .     A
C1205  C1208   1.426   .     A
C1206  C550    1.416   1_556 S
C1207  C1210   1.418   .     A
C1207  F1232   1.359   .     S
C1207  C1216   1.403   .     A
C1209  C1215   1.415   .     A
C1209  C544    1.411   1_556 S
C1211  O1244   1.396   .     S
C1211  O1258   1.223   .     D
C1211  C1216   1.486   .     S
C1212  O1245   1.223   .     D
C1212  C1217   1.479   .     S
C1212  O1246   1.397   .     S
C1213  O1247   1.223   .     D
C1213  C1220   1.487   .     S
C1213  O1248   1.399   .     S
C1214  O1250   1.398   .     S
C1214  O1249   1.223   .     D
C1215  C1217   1.399   .     A
C1215  F1233   1.361   .     S
C1217  C542    1.416   1_556 S
C1218  F1234   1.360   .     S
C1219  F1224   1.361   .     S
C1219  C742    1.394   1_565 S
C1220  C1261   1.411   .     S
C1220  C774    1.394   1_565 S
Cu1221 O1253   1.957   .     S
Cu1221 O1254   1.941   .     S
Cu1221 O1243   1.957   .     S
Cu1221 O1257   1.930   .     S
Cu1221 N1241   2.015   .     S
Cu1222 N1242   2.015   .     S
Cu1222 O1256   1.930   .     S
Cu1222 O1255   1.941   .     S
Cu1222 O1252   1.957   .     S
Cu1222 O1251   1.957   .     S
Cu1222 Cu1295  2.682   .     S
F1228  C1275   1.358   .     S
H1237  O1244   1.013   .     S
H1238  O1246   1.014   .     S
H1239  O1248   1.014   .     S
H1240  O1250   1.013   .     S
O1251  C1270   1.292   .     S
O1255  C1268   1.296   .     S
C1259  O1326   1.289   .     A
C1259  C1262   1.446   .     S
C1259  O1169   1.291   1_655 S
C1260  C1288   1.486   .     S
C1261  C1270   1.446   .     S
C1261  C1293   1.401   .     A
C1262  C1292   1.401   .     A
C1262  C1112   1.411   1_655 S
C1263  N1316   1.366   .     A
C1263  C1265   1.417   .     A
C1263  H1309   1.082   .     S
C1264  N1315   1.366   .     A
C1264  C1266   1.417   .     A
C1264  H1310   1.082   .     S
C1265  F1299   1.353   .     S
C1265  N1315   1.369   .     A
C1266  F1300   1.353   .     S
C1266  N1316   1.369   .     A
C1267  O1330   1.299   .     A
C1267  C1269   1.480   .     S
C1267  O1180   1.300   1_655 S
C1268  O1331   1.296   .     A
C1268  C1271   1.467   .     S
C1269  C1276   1.405   .     A
C1269  C1274   1.405   .     A
C1270  O1327   1.288   .     A
C1271  C1277   1.393   .     A
C1271  C1275   1.398   .     A
C1272  C1274   1.393   .     A
C1272  C1280   1.415   .     A
C1272  F1156   1.358   1_655 S
C1273  F1305   1.357   .     S
C1273  C1282   1.419   .     A
C1273  C1275   1.392   .     A
C1274  F1155   1.358   1_655 S
C1276  F1301   1.360   .     S
C1276  C1278   1.410   .     A
C1277  C1279   1.411   .     A
C1277  F1297   1.360   .     S
C1278  C1283   1.421   .     A
C1278  C1280   1.419   .     A
C1279  C1284   1.424   .     A
C1279  C1282   1.426   .     A
C1280  C624    1.416   1_556 S
C1281  C1284   1.418   .     A
C1281  F1306   1.359   .     S
C1281  C1290   1.403   .     A
C1283  C1289   1.415   .     A
C1283  C618    1.411   1_556 S
C1285  O1318   1.396   .     S
C1285  O1332   1.223   .     D
C1285  C1290   1.486   .     S
C1286  O1319   1.223   .     D
C1286  C1291   1.479   .     S
C1286  O1320   1.397   .     S
C1287  O1321   1.223   .     D
C1287  C1294   1.487   .     S
C1287  O1322   1.399   .     S
C1288  O1324   1.398   .     S
C1288  O1323   1.223   .     D
C1289  C1291   1.399   .     A
C1289  F1307   1.361   .     S
C1291  C616    1.416   1_556 S
C1292  F1308   1.360   .     S
C1293  F1298   1.361   .     S
C1293  C816    1.394   1_565 S
C1294  C1113   1.411   1_655 S
C1294  C848    1.394   1_565 S
Cu1295 O1327   1.957   .     S
Cu1295 O1328   1.941   .     S
Cu1295 O1317   1.957   .     S
Cu1295 O1331   1.930   .     S
Cu1295 N1315   2.015   .     S
Cu1296 N1316   2.015   .     S
Cu1296 O1330   1.930   .     S
Cu1296 O1329   1.941   .     S
Cu1296 O1326   1.957   .     S
Cu1296 O1325   1.957   .     S
Cu1296 Cu1147  2.682   1_655 S
F1302  C1127   1.358   1_655 S
H1311  O1318   1.013   .     S
H1312  O1320   1.014   .     S
H1313  O1322   1.014   .     S
H1314  O1324   1.013   .     S
O1325  C1122   1.292   1_655 S
O1329  C1120   1.296   1_655 S
