data_str_m3_o1_o5_pcu_sym.4
_audit_creation_date              2020-01-03
_audit_creation_method            'Materials Studio'
_symmetry_space_group_name_H-M    'P1'
_symmetry_Int_Tables_number       1
_symmetry_cell_setting            triclinic
loop_
_symmetry_equiv_pos_as_xyz
  x,y,z
_cell_length_a                    31.9017
_cell_length_b                    29.8715
_cell_length_c                    26.6609
_cell_angle_alpha                 90.0537
_cell_angle_beta                  91.0578
_cell_angle_gamma                 89.7079
loop_
_atom_site_label
_atom_site_type_symbol
_atom_site_fract_x
_atom_site_fract_y
_atom_site_fract_z
_atom_site_U_iso_or_equiv
_atom_site_adp_type
_atom_site_occupancy
C1     C     0.08697   0.16679   0.16679   0.00000  Uiso   1.00
C2     C     0.02115   0.17571   0.12117   0.00000  Uiso   1.00
C3     C     0.29064   0.16621   0.16662   0.00000  Uiso   1.00
C4     C     0.04269   0.16712   0.16671   0.00000  Uiso   1.00
C5     C     0.18789   0.02393   0.20333   0.00000  Uiso   1.00
C6     C     0.14545   0.30941   0.13000   0.00000  Uiso   1.00
C7     C     0.14547   0.02409   0.12996   0.00000  Uiso   1.00
C8     C     0.18786   0.30924   0.20337   0.00000  Uiso   1.00
C9     C     0.04716   0.15321   0.25971   0.00000  Uiso   1.00
C10    C     0.28617   0.18012   0.07362   0.00000  Uiso   1.00
C11    C     0.28835   0.15062   0.25929   0.00000  Uiso   1.00
C12    C     0.24636   0.16655   0.16654   0.00000  Uiso   1.00
C13    C     0.04499   0.18271   0.07404   0.00000  Uiso   1.00
C14    C     0.21274   0.04867   0.24131   0.00000  Uiso   1.00
C15    C     0.12059   0.28467   0.09202   0.00000  Uiso   1.00
C16    C     0.12095   0.04902   0.09163   0.00000  Uiso   1.00
C17    C     0.21238   0.28431   0.24171   0.00000  Uiso   1.00
C18    C     0.16635   0.16666   0.07301   0.00000  Uiso   1.00
C19    C     0.16698   0.16667   0.26033   0.00000  Uiso   1.00
C20    C     0.16652   0.16666   0.02183   0.00000  Uiso   1.00
C21    C     0.16681   0.16668   0.31150   0.00000  Uiso   1.00
C22    C     0.02251   0.15849   0.21217   0.00000  Uiso   1.00
C23    C     0.31083   0.17485   0.12116   0.00000  Uiso   1.00
C24    C     0.31218   0.15762   0.21216   0.00000  Uiso   1.00
H25    H     0.04346   0.12380   0.28295   0.00000  Uiso   1.00
H26    H     0.28987   0.20953   0.05037   0.00000  Uiso   1.00
H27    H     0.25844   0.16728   0.26431   0.00000  Uiso   1.00
H28    H     0.07490   0.16606   0.06903   0.00000  Uiso   1.00
H29    H     0.23781   0.07038   0.22987   0.00000  Uiso   1.00
H30    H     0.09553   0.26294   0.10346   0.00000  Uiso   1.00
H31    H     0.09607   0.07147   0.10265   0.00000  Uiso   1.00
H32    H     0.23725   0.26185   0.23069   0.00000  Uiso   1.00
N33    N     0.16667   0.28573   0.16667   0.00000  Uiso   1.00
N34    N     0.16667   0.04760   0.16667   0.00000  Uiso   1.00
O35    O     0.10559   0.20487   0.16666   0.00000  Uiso   1.00
O36    O     0.26175   0.15106   0.05996   0.00000  Uiso   1.00
O37    O     0.30091   0.12516   0.29208   0.00000  Uiso   1.00
O38    O     0.03242   0.20817   0.04124   0.00000  Uiso   1.00
O39    O     0.20492   0.04557   0.28581   0.00000  Uiso   1.00
O40    O     0.12841   0.28778   0.04752   0.00000  Uiso   1.00
O41    O     0.12887   0.04527   0.04721   0.00000  Uiso   1.00
O42    O     0.20447   0.28808   0.28613   0.00000  Uiso   1.00
O43    O     0.22774   0.12846   0.16667   0.00000  Uiso   1.00
O44    O     0.22774   0.20487   0.16667   0.00000  Uiso   1.00
O45    O     0.10559   0.12846   0.16666   0.00000  Uiso   1.00
O46    O     0.16667   0.20488   0.09511   0.00000  Uiso   1.00
O47    O     0.16666   0.12845   0.23822   0.00000  Uiso   1.00
O48    O     0.16666   0.20488   0.23822   0.00000  Uiso   1.00
O49    O     0.16667   0.12845   0.09511   0.00000  Uiso   1.00
O50    O     0.07158   0.18227   0.27337   0.00000  Uiso   1.00
Zn51   Zn    0.16667   0.21771   0.16667   0.00000  Uiso   1.00
Zn52   Zn    0.16667   0.11563   0.16667   0.00000  Uiso   1.00
C53    C     0.42031   0.16679   0.16679   0.00000  Uiso   1.00
C54    C     0.35449   0.17571   0.12117   0.00000  Uiso   1.00
C55    C     0.62397   0.16621   0.16662   0.00000  Uiso   1.00
C56    C     0.37603   0.16712   0.16671   0.00000  Uiso   1.00
C57    C     0.52122   0.02393   0.20333   0.00000  Uiso   1.00
C58    C     0.47878   0.30941   0.13000   0.00000  Uiso   1.00
C59    C     0.47881   0.02409   0.12996   0.00000  Uiso   1.00
C60    C     0.52119   0.30924   0.20337   0.00000  Uiso   1.00
C61    C     0.38049   0.15321   0.25971   0.00000  Uiso   1.00
C62    C     0.61951   0.18012   0.07362   0.00000  Uiso   1.00
C63    C     0.62168   0.15062   0.25929   0.00000  Uiso   1.00
C64    C     0.57969   0.16655   0.16654   0.00000  Uiso   1.00
C65    C     0.37832   0.18271   0.07404   0.00000  Uiso   1.00
C66    C     0.54607   0.04867   0.24131   0.00000  Uiso   1.00
C67    C     0.45393   0.28467   0.09202   0.00000  Uiso   1.00
C68    C     0.45428   0.04902   0.09163   0.00000  Uiso   1.00
C69    C     0.54572   0.28431   0.24171   0.00000  Uiso   1.00
C70    C     0.49968   0.16666   0.07301   0.00000  Uiso   1.00
C71    C     0.50032   0.16667   0.26033   0.00000  Uiso   1.00
C72    C     0.49985   0.16666   0.02183   0.00000  Uiso   1.00
C73    C     0.50015   0.16668   0.31150   0.00000  Uiso   1.00
C74    C     0.35584   0.15849   0.21217   0.00000  Uiso   1.00
C75    C     0.64416   0.17485   0.12116   0.00000  Uiso   1.00
C76    C     0.64551   0.15762   0.21216   0.00000  Uiso   1.00
H77    H     0.37679   0.12380   0.28295   0.00000  Uiso   1.00
H78    H     0.62321   0.20953   0.05037   0.00000  Uiso   1.00
H79    H     0.59177   0.16728   0.26431   0.00000  Uiso   1.00
H80    H     0.40823   0.16606   0.06903   0.00000  Uiso   1.00
H81    H     0.57114   0.07038   0.22987   0.00000  Uiso   1.00
H82    H     0.42887   0.26294   0.10346   0.00000  Uiso   1.00
H83    H     0.42940   0.07147   0.10265   0.00000  Uiso   1.00
H84    H     0.57059   0.26185   0.23069   0.00000  Uiso   1.00
N85    N     0.50000   0.28573   0.16667   0.00000  Uiso   1.00
N86    N     0.50000   0.04760   0.16667   0.00000  Uiso   1.00
O87    O     0.43892   0.20487   0.16666   0.00000  Uiso   1.00
O88    O     0.59509   0.15106   0.05996   0.00000  Uiso   1.00
O89    O     0.63424   0.12516   0.29208   0.00000  Uiso   1.00
O90    O     0.36575   0.20817   0.04124   0.00000  Uiso   1.00
O91    O     0.53825   0.04557   0.28581   0.00000  Uiso   1.00
O92    O     0.46174   0.28778   0.04752   0.00000  Uiso   1.00
O93    O     0.46220   0.04527   0.04721   0.00000  Uiso   1.00
O94    O     0.53780   0.28808   0.28613   0.00000  Uiso   1.00
O95    O     0.56108   0.12846   0.16667   0.00000  Uiso   1.00
O96    O     0.56108   0.20487   0.16667   0.00000  Uiso   1.00
O97    O     0.43892   0.12846   0.16666   0.00000  Uiso   1.00
O98    O     0.50000   0.20488   0.09511   0.00000  Uiso   1.00
O99    O     0.50000   0.12845   0.23822   0.00000  Uiso   1.00
O100   O     0.50000   0.20488   0.23822   0.00000  Uiso   1.00
O101   O     0.50000   0.12845   0.09511   0.00000  Uiso   1.00
O102   O     0.40491   0.18227   0.27337   0.00000  Uiso   1.00
Zn103  Zn    0.50000   0.21771   0.16667   0.00000  Uiso   1.00
Zn104  Zn    0.50000   0.11563   0.16667   0.00000  Uiso   1.00
C105   C     0.75364   0.16679   0.16679   0.00000  Uiso   1.00
C106   C     0.68782   0.17571   0.12117   0.00000  Uiso   1.00
C107   C     0.95731   0.16621   0.16662   0.00000  Uiso   1.00
C108   C     0.70936   0.16712   0.16671   0.00000  Uiso   1.00
C109   C     0.85455   0.02393   0.20333   0.00000  Uiso   1.00
C110   C     0.81211   0.30941   0.13000   0.00000  Uiso   1.00
C111   C     0.81214   0.02409   0.12996   0.00000  Uiso   1.00
C112   C     0.85453   0.30924   0.20337   0.00000  Uiso   1.00
C113   C     0.71383   0.15321   0.25971   0.00000  Uiso   1.00
C114   C     0.95284   0.18012   0.07362   0.00000  Uiso   1.00
C115   C     0.95501   0.15062   0.25929   0.00000  Uiso   1.00
C116   C     0.91303   0.16655   0.16654   0.00000  Uiso   1.00
C117   C     0.71165   0.18271   0.07404   0.00000  Uiso   1.00
C118   C     0.87941   0.04867   0.24131   0.00000  Uiso   1.00
C119   C     0.78726   0.28467   0.09202   0.00000  Uiso   1.00
C120   C     0.78761   0.04902   0.09163   0.00000  Uiso   1.00
C121   C     0.87905   0.28431   0.24171   0.00000  Uiso   1.00
C122   C     0.83302   0.16666   0.07301   0.00000  Uiso   1.00
C123   C     0.83365   0.16667   0.26033   0.00000  Uiso   1.00
C124   C     0.83319   0.16666   0.02183   0.00000  Uiso   1.00
C125   C     0.83348   0.16668   0.31150   0.00000  Uiso   1.00
C126   C     0.68917   0.15849   0.21217   0.00000  Uiso   1.00
C127   C     0.97749   0.17485   0.12116   0.00000  Uiso   1.00
C128   C     0.97885   0.15762   0.21216   0.00000  Uiso   1.00
H129   H     0.71013   0.12380   0.28295   0.00000  Uiso   1.00
H130   H     0.95654   0.20953   0.05037   0.00000  Uiso   1.00
H131   H     0.92510   0.16728   0.26431   0.00000  Uiso   1.00
H132   H     0.74157   0.16606   0.06903   0.00000  Uiso   1.00
H133   H     0.90448   0.07038   0.22987   0.00000  Uiso   1.00
H134   H     0.76220   0.26294   0.10346   0.00000  Uiso   1.00
H135   H     0.76273   0.07147   0.10265   0.00000  Uiso   1.00
H136   H     0.90392   0.26185   0.23069   0.00000  Uiso   1.00
N137   N     0.83333   0.28573   0.16667   0.00000  Uiso   1.00
N138   N     0.83333   0.04760   0.16667   0.00000  Uiso   1.00
O139   O     0.77226   0.20487   0.16666   0.00000  Uiso   1.00
O140   O     0.92842   0.15106   0.05996   0.00000  Uiso   1.00
O141   O     0.96758   0.12516   0.29208   0.00000  Uiso   1.00
O142   O     0.69909   0.20817   0.04124   0.00000  Uiso   1.00
O143   O     0.87158   0.04557   0.28581   0.00000  Uiso   1.00
O144   O     0.79507   0.28778   0.04752   0.00000  Uiso   1.00
O145   O     0.79553   0.04527   0.04721   0.00000  Uiso   1.00
O146   O     0.87114   0.28808   0.28613   0.00000  Uiso   1.00
O147   O     0.89441   0.12846   0.16667   0.00000  Uiso   1.00
O148   O     0.89441   0.20487   0.16667   0.00000  Uiso   1.00
O149   O     0.77226   0.12846   0.16666   0.00000  Uiso   1.00
O150   O     0.83334   0.20488   0.09511   0.00000  Uiso   1.00
O151   O     0.83333   0.12845   0.23822   0.00000  Uiso   1.00
O152   O     0.83333   0.20488   0.23822   0.00000  Uiso   1.00
O153   O     0.83334   0.12845   0.09511   0.00000  Uiso   1.00
O154   O     0.73824   0.18227   0.27337   0.00000  Uiso   1.00
Zn155  Zn    0.83333   0.21771   0.16667   0.00000  Uiso   1.00
Zn156  Zn    0.83333   0.11563   0.16667   0.00000  Uiso   1.00
C157   C     0.08697   0.50012   0.16679   0.00000  Uiso   1.00
C158   C     0.02115   0.50904   0.12117   0.00000  Uiso   1.00
C159   C     0.29064   0.49955   0.16662   0.00000  Uiso   1.00
C160   C     0.04269   0.50045   0.16671   0.00000  Uiso   1.00
C161   C     0.18789   0.35726   0.20333   0.00000  Uiso   1.00
C162   C     0.14545   0.64274   0.13000   0.00000  Uiso   1.00
C163   C     0.14547   0.35743   0.12996   0.00000  Uiso   1.00
C164   C     0.18786   0.64257   0.20337   0.00000  Uiso   1.00
C165   C     0.04716   0.48654   0.25971   0.00000  Uiso   1.00
C166   C     0.28617   0.51345   0.07362   0.00000  Uiso   1.00
C167   C     0.28835   0.48395   0.25929   0.00000  Uiso   1.00
C168   C     0.24636   0.49988   0.16654   0.00000  Uiso   1.00
C169   C     0.04499   0.51605   0.07404   0.00000  Uiso   1.00
C170   C     0.21274   0.38200   0.24131   0.00000  Uiso   1.00
C171   C     0.12059   0.61800   0.09202   0.00000  Uiso   1.00
C172   C     0.12095   0.38235   0.09163   0.00000  Uiso   1.00
C173   C     0.21238   0.61765   0.24171   0.00000  Uiso   1.00
C174   C     0.16635   0.49999   0.07301   0.00000  Uiso   1.00
C175   C     0.16698   0.50001   0.26033   0.00000  Uiso   1.00
C176   C     0.16652   0.49999   0.02183   0.00000  Uiso   1.00
C177   C     0.16681   0.50001   0.31150   0.00000  Uiso   1.00
C178   C     0.02251   0.49182   0.21217   0.00000  Uiso   1.00
C179   C     0.31083   0.50818   0.12116   0.00000  Uiso   1.00
C180   C     0.31218   0.49096   0.21216   0.00000  Uiso   1.00
H181   H     0.04346   0.45714   0.28295   0.00000  Uiso   1.00
H182   H     0.28987   0.54286   0.05037   0.00000  Uiso   1.00
H183   H     0.25844   0.50061   0.26431   0.00000  Uiso   1.00
H184   H     0.07490   0.49939   0.06903   0.00000  Uiso   1.00
H185   H     0.23781   0.40371   0.22987   0.00000  Uiso   1.00
H186   H     0.09553   0.59628   0.10346   0.00000  Uiso   1.00
H187   H     0.09607   0.40480   0.10265   0.00000  Uiso   1.00
H188   H     0.23725   0.59518   0.23069   0.00000  Uiso   1.00
N189   N     0.16667   0.61907   0.16667   0.00000  Uiso   1.00
N190   N     0.16667   0.38093   0.16667   0.00000  Uiso   1.00
O191   O     0.10559   0.53821   0.16666   0.00000  Uiso   1.00
O192   O     0.26175   0.48439   0.05996   0.00000  Uiso   1.00
O193   O     0.30091   0.45849   0.29208   0.00000  Uiso   1.00
O194   O     0.03242   0.54150   0.04124   0.00000  Uiso   1.00
O195   O     0.20492   0.37891   0.28581   0.00000  Uiso   1.00
O196   O     0.12841   0.62111   0.04752   0.00000  Uiso   1.00
O197   O     0.12887   0.37860   0.04721   0.00000  Uiso   1.00
O198   O     0.20447   0.62141   0.28613   0.00000  Uiso   1.00
O199   O     0.22774   0.46179   0.16667   0.00000  Uiso   1.00
O200   O     0.22774   0.53821   0.16667   0.00000  Uiso   1.00
O201   O     0.10559   0.46179   0.16666   0.00000  Uiso   1.00
O202   O     0.16667   0.53821   0.09511   0.00000  Uiso   1.00
O203   O     0.16666   0.46179   0.23822   0.00000  Uiso   1.00
O204   O     0.16666   0.53821   0.23822   0.00000  Uiso   1.00
O205   O     0.16667   0.46179   0.09511   0.00000  Uiso   1.00
O206   O     0.07158   0.51560   0.27337   0.00000  Uiso   1.00
Zn207  Zn    0.16667   0.55104   0.16667   0.00000  Uiso   1.00
Zn208  Zn    0.16667   0.44896   0.16667   0.00000  Uiso   1.00
C209   C     0.42031   0.50012   0.16679   0.00000  Uiso   1.00
C210   C     0.35449   0.50904   0.12117   0.00000  Uiso   1.00
C211   C     0.62397   0.49955   0.16662   0.00000  Uiso   1.00
C212   C     0.37603   0.50045   0.16671   0.00000  Uiso   1.00
C213   C     0.52122   0.35726   0.20333   0.00000  Uiso   1.00
C214   C     0.47878   0.64274   0.13000   0.00000  Uiso   1.00
C215   C     0.47881   0.35743   0.12996   0.00000  Uiso   1.00
C216   C     0.52119   0.64257   0.20337   0.00000  Uiso   1.00
C217   C     0.38049   0.48654   0.25971   0.00000  Uiso   1.00
C218   C     0.61951   0.51345   0.07362   0.00000  Uiso   1.00
C219   C     0.62168   0.48395   0.25929   0.00000  Uiso   1.00
C220   C     0.57969   0.49988   0.16654   0.00000  Uiso   1.00
C221   C     0.37832   0.51605   0.07404   0.00000  Uiso   1.00
C222   C     0.54607   0.38200   0.24131   0.00000  Uiso   1.00
C223   C     0.45393   0.61800   0.09202   0.00000  Uiso   1.00
C224   C     0.45428   0.38235   0.09163   0.00000  Uiso   1.00
C225   C     0.54572   0.61765   0.24171   0.00000  Uiso   1.00
C226   C     0.49968   0.49999   0.07301   0.00000  Uiso   1.00
C227   C     0.50032   0.50001   0.26033   0.00000  Uiso   1.00
C228   C     0.49985   0.49999   0.02183   0.00000  Uiso   1.00
C229   C     0.50015   0.50001   0.31150   0.00000  Uiso   1.00
C230   C     0.35584   0.49182   0.21217   0.00000  Uiso   1.00
C231   C     0.64416   0.50818   0.12116   0.00000  Uiso   1.00
C232   C     0.64551   0.49096   0.21216   0.00000  Uiso   1.00
H233   H     0.37679   0.45714   0.28295   0.00000  Uiso   1.00
H234   H     0.62321   0.54286   0.05037   0.00000  Uiso   1.00
H235   H     0.59177   0.50061   0.26431   0.00000  Uiso   1.00
H236   H     0.40823   0.49939   0.06903   0.00000  Uiso   1.00
H237   H     0.57114   0.40371   0.22987   0.00000  Uiso   1.00
H238   H     0.42887   0.59628   0.10346   0.00000  Uiso   1.00
H239   H     0.42940   0.40480   0.10265   0.00000  Uiso   1.00
H240   H     0.57059   0.59518   0.23069   0.00000  Uiso   1.00
N241   N     0.50000   0.61907   0.16667   0.00000  Uiso   1.00
N242   N     0.50000   0.38093   0.16667   0.00000  Uiso   1.00
O243   O     0.43892   0.53821   0.16666   0.00000  Uiso   1.00
O244   O     0.59509   0.48439   0.05996   0.00000  Uiso   1.00
O245   O     0.63424   0.45849   0.29208   0.00000  Uiso   1.00
O246   O     0.36575   0.54150   0.04124   0.00000  Uiso   1.00
O247   O     0.53825   0.37891   0.28581   0.00000  Uiso   1.00
O248   O     0.46174   0.62111   0.04752   0.00000  Uiso   1.00
O249   O     0.46220   0.37860   0.04721   0.00000  Uiso   1.00
O250   O     0.53780   0.62141   0.28613   0.00000  Uiso   1.00
O251   O     0.56108   0.46179   0.16667   0.00000  Uiso   1.00
O252   O     0.56108   0.53821   0.16667   0.00000  Uiso   1.00
O253   O     0.43892   0.46179   0.16666   0.00000  Uiso   1.00
O254   O     0.50000   0.53821   0.09511   0.00000  Uiso   1.00
O255   O     0.50000   0.46179   0.23822   0.00000  Uiso   1.00
O256   O     0.50000   0.53821   0.23822   0.00000  Uiso   1.00
O257   O     0.50000   0.46179   0.09511   0.00000  Uiso   1.00
O258   O     0.40491   0.51560   0.27337   0.00000  Uiso   1.00
Zn259  Zn    0.50000   0.55104   0.16667   0.00000  Uiso   1.00
Zn260  Zn    0.50000   0.44896   0.16667   0.00000  Uiso   1.00
C261   C     0.75364   0.50012   0.16679   0.00000  Uiso   1.00
C262   C     0.68782   0.50904   0.12117   0.00000  Uiso   1.00
C263   C     0.95731   0.49955   0.16662   0.00000  Uiso   1.00
C264   C     0.70936   0.50045   0.16671   0.00000  Uiso   1.00
C265   C     0.85455   0.35726   0.20333   0.00000  Uiso   1.00
C266   C     0.81211   0.64274   0.13000   0.00000  Uiso   1.00
C267   C     0.81214   0.35743   0.12996   0.00000  Uiso   1.00
C268   C     0.85453   0.64257   0.20337   0.00000  Uiso   1.00
C269   C     0.71383   0.48654   0.25971   0.00000  Uiso   1.00
C270   C     0.95284   0.51345   0.07362   0.00000  Uiso   1.00
C271   C     0.95501   0.48395   0.25929   0.00000  Uiso   1.00
C272   C     0.91303   0.49988   0.16654   0.00000  Uiso   1.00
C273   C     0.71165   0.51605   0.07404   0.00000  Uiso   1.00
C274   C     0.87941   0.38200   0.24131   0.00000  Uiso   1.00
C275   C     0.78726   0.61800   0.09202   0.00000  Uiso   1.00
C276   C     0.78761   0.38235   0.09163   0.00000  Uiso   1.00
C277   C     0.87905   0.61765   0.24171   0.00000  Uiso   1.00
C278   C     0.83302   0.49999   0.07301   0.00000  Uiso   1.00
C279   C     0.83365   0.50001   0.26033   0.00000  Uiso   1.00
C280   C     0.83319   0.49999   0.02183   0.00000  Uiso   1.00
C281   C     0.83348   0.50001   0.31150   0.00000  Uiso   1.00
C282   C     0.68917   0.49182   0.21217   0.00000  Uiso   1.00
C283   C     0.97749   0.50818   0.12116   0.00000  Uiso   1.00
C284   C     0.97885   0.49096   0.21216   0.00000  Uiso   1.00
H285   H     0.71013   0.45714   0.28295   0.00000  Uiso   1.00
H286   H     0.95654   0.54286   0.05037   0.00000  Uiso   1.00
H287   H     0.92510   0.50061   0.26431   0.00000  Uiso   1.00
H288   H     0.74157   0.49939   0.06903   0.00000  Uiso   1.00
H289   H     0.90448   0.40371   0.22987   0.00000  Uiso   1.00
H290   H     0.76220   0.59628   0.10346   0.00000  Uiso   1.00
H291   H     0.76273   0.40480   0.10265   0.00000  Uiso   1.00
H292   H     0.90392   0.59518   0.23069   0.00000  Uiso   1.00
N293   N     0.83333   0.61907   0.16667   0.00000  Uiso   1.00
N294   N     0.83333   0.38093   0.16667   0.00000  Uiso   1.00
O295   O     0.77226   0.53821   0.16666   0.00000  Uiso   1.00
O296   O     0.92842   0.48439   0.05996   0.00000  Uiso   1.00
O297   O     0.96758   0.45849   0.29208   0.00000  Uiso   1.00
O298   O     0.69909   0.54150   0.04124   0.00000  Uiso   1.00
O299   O     0.87158   0.37891   0.28581   0.00000  Uiso   1.00
O300   O     0.79507   0.62111   0.04752   0.00000  Uiso   1.00
O301   O     0.79553   0.37860   0.04721   0.00000  Uiso   1.00
O302   O     0.87114   0.62141   0.28613   0.00000  Uiso   1.00
O303   O     0.89441   0.46179   0.16667   0.00000  Uiso   1.00
O304   O     0.89441   0.53821   0.16667   0.00000  Uiso   1.00
O305   O     0.77226   0.46179   0.16666   0.00000  Uiso   1.00
O306   O     0.83334   0.53821   0.09511   0.00000  Uiso   1.00
O307   O     0.83333   0.46179   0.23822   0.00000  Uiso   1.00
O308   O     0.83333   0.53821   0.23822   0.00000  Uiso   1.00
O309   O     0.83334   0.46179   0.09511   0.00000  Uiso   1.00
O310   O     0.73824   0.51560   0.27337   0.00000  Uiso   1.00
Zn311  Zn    0.83333   0.55104   0.16667   0.00000  Uiso   1.00
Zn312  Zn    0.83333   0.44896   0.16667   0.00000  Uiso   1.00
C313   C     0.08697   0.83345   0.16679   0.00000  Uiso   1.00
C314   C     0.02115   0.84238   0.12117   0.00000  Uiso   1.00
C315   C     0.29064   0.83288   0.16662   0.00000  Uiso   1.00
C316   C     0.04269   0.83379   0.16671   0.00000  Uiso   1.00
C317   C     0.18789   0.69059   0.20333   0.00000  Uiso   1.00
C318   C     0.14545   0.97607   0.13000   0.00000  Uiso   1.00
C319   C     0.14547   0.69076   0.12996   0.00000  Uiso   1.00
C320   C     0.18786   0.97591   0.20337   0.00000  Uiso   1.00
C321   C     0.04716   0.81988   0.25971   0.00000  Uiso   1.00
C322   C     0.28617   0.84679   0.07362   0.00000  Uiso   1.00
C323   C     0.28835   0.81729   0.25929   0.00000  Uiso   1.00
C324   C     0.24636   0.83321   0.16654   0.00000  Uiso   1.00
C325   C     0.04499   0.84938   0.07404   0.00000  Uiso   1.00
C326   C     0.21274   0.71533   0.24131   0.00000  Uiso   1.00
C327   C     0.12059   0.95133   0.09202   0.00000  Uiso   1.00
C328   C     0.12095   0.71569   0.09163   0.00000  Uiso   1.00
C329   C     0.21238   0.95098   0.24171   0.00000  Uiso   1.00
C330   C     0.16635   0.83333   0.07301   0.00000  Uiso   1.00
C331   C     0.16698   0.83334   0.26033   0.00000  Uiso   1.00
C332   C     0.16652   0.83332   0.02183   0.00000  Uiso   1.00
C333   C     0.16681   0.83334   0.31150   0.00000  Uiso   1.00
C334   C     0.02251   0.82515   0.21217   0.00000  Uiso   1.00
C335   C     0.31083   0.84151   0.12116   0.00000  Uiso   1.00
C336   C     0.31218   0.82429   0.21216   0.00000  Uiso   1.00
H337   H     0.04346   0.79047   0.28295   0.00000  Uiso   1.00
H338   H     0.28987   0.87619   0.05037   0.00000  Uiso   1.00
H339   H     0.25844   0.83395   0.26431   0.00000  Uiso   1.00
H340   H     0.07490   0.83273   0.06903   0.00000  Uiso   1.00
H341   H     0.23781   0.73704   0.22987   0.00000  Uiso   1.00
H342   H     0.09553   0.92961   0.10346   0.00000  Uiso   1.00
H343   H     0.09607   0.73814   0.10265   0.00000  Uiso   1.00
H344   H     0.23725   0.92852   0.23069   0.00000  Uiso   1.00
N345   N     0.16667   0.95240   0.16667   0.00000  Uiso   1.00
N346   N     0.16667   0.71427   0.16667   0.00000  Uiso   1.00
O347   O     0.10559   0.87154   0.16666   0.00000  Uiso   1.00
O348   O     0.26175   0.81773   0.05996   0.00000  Uiso   1.00
O349   O     0.30091   0.79183   0.29208   0.00000  Uiso   1.00
O350   O     0.03242   0.87483   0.04124   0.00000  Uiso   1.00
O351   O     0.20492   0.71224   0.28581   0.00000  Uiso   1.00
O352   O     0.12841   0.95444   0.04752   0.00000  Uiso   1.00
O353   O     0.12887   0.71194   0.04721   0.00000  Uiso   1.00
O354   O     0.20447   0.95475   0.28613   0.00000  Uiso   1.00
O355   O     0.22774   0.79513   0.16667   0.00000  Uiso   1.00
O356   O     0.22774   0.87154   0.16667   0.00000  Uiso   1.00
O357   O     0.10559   0.79513   0.16666   0.00000  Uiso   1.00
O358   O     0.16667   0.87155   0.09511   0.00000  Uiso   1.00
O359   O     0.16666   0.79512   0.23822   0.00000  Uiso   1.00
O360   O     0.16666   0.87155   0.23822   0.00000  Uiso   1.00
O361   O     0.16667   0.79512   0.09511   0.00000  Uiso   1.00
O362   O     0.07158   0.84894   0.27337   0.00000  Uiso   1.00
Zn363  Zn    0.16667   0.88437   0.16667   0.00000  Uiso   1.00
Zn364  Zn    0.16667   0.78229   0.16667   0.00000  Uiso   1.00
C365   C     0.42031   0.83345   0.16679   0.00000  Uiso   1.00
C366   C     0.35449   0.84238   0.12117   0.00000  Uiso   1.00
C367   C     0.62397   0.83288   0.16662   0.00000  Uiso   1.00
C368   C     0.37603   0.83379   0.16671   0.00000  Uiso   1.00
C369   C     0.52122   0.69059   0.20333   0.00000  Uiso   1.00
C370   C     0.47878   0.97607   0.13000   0.00000  Uiso   1.00
C371   C     0.47881   0.69076   0.12996   0.00000  Uiso   1.00
C372   C     0.52119   0.97591   0.20337   0.00000  Uiso   1.00
C373   C     0.38049   0.81988   0.25971   0.00000  Uiso   1.00
C374   C     0.61951   0.84679   0.07362   0.00000  Uiso   1.00
C375   C     0.62168   0.81729   0.25929   0.00000  Uiso   1.00
C376   C     0.57969   0.83321   0.16654   0.00000  Uiso   1.00
C377   C     0.37832   0.84938   0.07404   0.00000  Uiso   1.00
C378   C     0.54607   0.71533   0.24131   0.00000  Uiso   1.00
C379   C     0.45393   0.95133   0.09202   0.00000  Uiso   1.00
C380   C     0.45428   0.71569   0.09163   0.00000  Uiso   1.00
C381   C     0.54572   0.95098   0.24171   0.00000  Uiso   1.00
C382   C     0.49968   0.83333   0.07301   0.00000  Uiso   1.00
C383   C     0.50032   0.83334   0.26033   0.00000  Uiso   1.00
C384   C     0.49985   0.83332   0.02183   0.00000  Uiso   1.00
C385   C     0.50015   0.83334   0.31150   0.00000  Uiso   1.00
C386   C     0.35584   0.82515   0.21217   0.00000  Uiso   1.00
C387   C     0.64416   0.84151   0.12116   0.00000  Uiso   1.00
C388   C     0.64551   0.82429   0.21216   0.00000  Uiso   1.00
H389   H     0.37679   0.79047   0.28295   0.00000  Uiso   1.00
H390   H     0.62321   0.87619   0.05037   0.00000  Uiso   1.00
H391   H     0.59177   0.83395   0.26431   0.00000  Uiso   1.00
H392   H     0.40823   0.83273   0.06903   0.00000  Uiso   1.00
H393   H     0.57114   0.73704   0.22987   0.00000  Uiso   1.00
H394   H     0.42887   0.92961   0.10346   0.00000  Uiso   1.00
H395   H     0.42940   0.73814   0.10265   0.00000  Uiso   1.00
H396   H     0.57059   0.92852   0.23069   0.00000  Uiso   1.00
N397   N     0.50000   0.95240   0.16667   0.00000  Uiso   1.00
N398   N     0.50000   0.71427   0.16667   0.00000  Uiso   1.00
O399   O     0.43892   0.87154   0.16666   0.00000  Uiso   1.00
O400   O     0.59509   0.81773   0.05996   0.00000  Uiso   1.00
O401   O     0.63424   0.79183   0.29208   0.00000  Uiso   1.00
O402   O     0.36575   0.87483   0.04124   0.00000  Uiso   1.00
O403   O     0.53825   0.71224   0.28581   0.00000  Uiso   1.00
O404   O     0.46174   0.95444   0.04752   0.00000  Uiso   1.00
O405   O     0.46220   0.71194   0.04721   0.00000  Uiso   1.00
O406   O     0.53780   0.95475   0.28613   0.00000  Uiso   1.00
O407   O     0.56108   0.79513   0.16667   0.00000  Uiso   1.00
O408   O     0.56108   0.87154   0.16667   0.00000  Uiso   1.00
O409   O     0.43892   0.79513   0.16666   0.00000  Uiso   1.00
O410   O     0.50000   0.87155   0.09511   0.00000  Uiso   1.00
O411   O     0.50000   0.79512   0.23822   0.00000  Uiso   1.00
O412   O     0.50000   0.87155   0.23822   0.00000  Uiso   1.00
O413   O     0.50000   0.79512   0.09511   0.00000  Uiso   1.00
O414   O     0.40491   0.84894   0.27337   0.00000  Uiso   1.00
Zn415  Zn    0.50000   0.88437   0.16667   0.00000  Uiso   1.00
Zn416  Zn    0.50000   0.78229   0.16667   0.00000  Uiso   1.00
C417   C     0.75364   0.83345   0.16679   0.00000  Uiso   1.00
C418   C     0.68782   0.84238   0.12117   0.00000  Uiso   1.00
C419   C     0.95731   0.83288   0.16662   0.00000  Uiso   1.00
C420   C     0.70936   0.83379   0.16671   0.00000  Uiso   1.00
C421   C     0.85455   0.69059   0.20333   0.00000  Uiso   1.00
C422   C     0.81211   0.97607   0.13000   0.00000  Uiso   1.00
C423   C     0.81214   0.69076   0.12996   0.00000  Uiso   1.00
C424   C     0.85453   0.97591   0.20337   0.00000  Uiso   1.00
C425   C     0.71383   0.81988   0.25971   0.00000  Uiso   1.00
C426   C     0.95284   0.84679   0.07362   0.00000  Uiso   1.00
C427   C     0.95501   0.81729   0.25929   0.00000  Uiso   1.00
C428   C     0.91303   0.83321   0.16654   0.00000  Uiso   1.00
C429   C     0.71165   0.84938   0.07404   0.00000  Uiso   1.00
C430   C     0.87941   0.71533   0.24131   0.00000  Uiso   1.00
C431   C     0.78726   0.95133   0.09202   0.00000  Uiso   1.00
C432   C     0.78761   0.71569   0.09163   0.00000  Uiso   1.00
C433   C     0.87905   0.95098   0.24171   0.00000  Uiso   1.00
C434   C     0.83302   0.83333   0.07301   0.00000  Uiso   1.00
C435   C     0.83365   0.83334   0.26033   0.00000  Uiso   1.00
C436   C     0.83319   0.83332   0.02183   0.00000  Uiso   1.00
C437   C     0.83348   0.83334   0.31150   0.00000  Uiso   1.00
C438   C     0.68917   0.82515   0.21217   0.00000  Uiso   1.00
C439   C     0.97749   0.84151   0.12116   0.00000  Uiso   1.00
C440   C     0.97885   0.82429   0.21216   0.00000  Uiso   1.00
H441   H     0.71013   0.79047   0.28295   0.00000  Uiso   1.00
H442   H     0.95654   0.87619   0.05037   0.00000  Uiso   1.00
H443   H     0.92510   0.83395   0.26431   0.00000  Uiso   1.00
H444   H     0.74157   0.83273   0.06903   0.00000  Uiso   1.00
H445   H     0.90448   0.73704   0.22987   0.00000  Uiso   1.00
H446   H     0.76220   0.92961   0.10346   0.00000  Uiso   1.00
H447   H     0.76273   0.73814   0.10265   0.00000  Uiso   1.00
H448   H     0.90392   0.92852   0.23069   0.00000  Uiso   1.00
N449   N     0.83333   0.95240   0.16667   0.00000  Uiso   1.00
N450   N     0.83333   0.71427   0.16667   0.00000  Uiso   1.00
O451   O     0.77226   0.87154   0.16666   0.00000  Uiso   1.00
O452   O     0.92842   0.81773   0.05996   0.00000  Uiso   1.00
O453   O     0.96758   0.79183   0.29208   0.00000  Uiso   1.00
O454   O     0.69909   0.87483   0.04124   0.00000  Uiso   1.00
O455   O     0.87158   0.71224   0.28581   0.00000  Uiso   1.00
O456   O     0.79507   0.95444   0.04752   0.00000  Uiso   1.00
O457   O     0.79553   0.71194   0.04721   0.00000  Uiso   1.00
O458   O     0.87114   0.95475   0.28613   0.00000  Uiso   1.00
O459   O     0.89441   0.79513   0.16667   0.00000  Uiso   1.00
O460   O     0.89441   0.87154   0.16667   0.00000  Uiso   1.00
O461   O     0.77226   0.79513   0.16666   0.00000  Uiso   1.00
O462   O     0.83334   0.87155   0.09511   0.00000  Uiso   1.00
O463   O     0.83333   0.79512   0.23822   0.00000  Uiso   1.00
O464   O     0.83333   0.87155   0.23822   0.00000  Uiso   1.00
O465   O     0.83334   0.79512   0.09511   0.00000  Uiso   1.00
O466   O     0.73824   0.84894   0.27337   0.00000  Uiso   1.00
Zn467  Zn    0.83333   0.88437   0.16667   0.00000  Uiso   1.00
Zn468  Zn    0.83333   0.78229   0.16667   0.00000  Uiso   1.00
C469   C     0.08697   0.16679   0.50012   0.00000  Uiso   1.00
C470   C     0.02115   0.17571   0.45451   0.00000  Uiso   1.00
C471   C     0.29064   0.16621   0.49996   0.00000  Uiso   1.00
C472   C     0.04269   0.16712   0.50004   0.00000  Uiso   1.00
C473   C     0.18789   0.02393   0.53667   0.00000  Uiso   1.00
C474   C     0.14545   0.30941   0.46333   0.00000  Uiso   1.00
C475   C     0.14547   0.02409   0.46330   0.00000  Uiso   1.00
C476   C     0.18786   0.30924   0.53670   0.00000  Uiso   1.00
C477   C     0.04716   0.15321   0.59304   0.00000  Uiso   1.00
C478   C     0.28617   0.18012   0.40696   0.00000  Uiso   1.00
C479   C     0.28835   0.15062   0.59263   0.00000  Uiso   1.00
C480   C     0.24636   0.16655   0.49988   0.00000  Uiso   1.00
C481   C     0.04499   0.18271   0.40737   0.00000  Uiso   1.00
C482   C     0.21274   0.04867   0.57465   0.00000  Uiso   1.00
C483   C     0.12059   0.28467   0.42535   0.00000  Uiso   1.00
C484   C     0.12095   0.04902   0.42496   0.00000  Uiso   1.00
C485   C     0.21238   0.28431   0.57504   0.00000  Uiso   1.00
C486   C     0.16635   0.16666   0.40634   0.00000  Uiso   1.00
C487   C     0.16698   0.16667   0.59366   0.00000  Uiso   1.00
C488   C     0.16652   0.16666   0.35516   0.00000  Uiso   1.00
C489   C     0.16681   0.16668   0.64484   0.00000  Uiso   1.00
C490   C     0.02251   0.15849   0.54550   0.00000  Uiso   1.00
C491   C     0.31083   0.17485   0.45450   0.00000  Uiso   1.00
C492   C     0.31218   0.15762   0.54549   0.00000  Uiso   1.00
H493   H     0.04346   0.12380   0.61629   0.00000  Uiso   1.00
H494   H     0.28987   0.20953   0.38371   0.00000  Uiso   1.00
H495   H     0.25844   0.16728   0.59764   0.00000  Uiso   1.00
H496   H     0.07490   0.16606   0.40236   0.00000  Uiso   1.00
H497   H     0.23781   0.07038   0.56321   0.00000  Uiso   1.00
H498   H     0.09553   0.26294   0.43679   0.00000  Uiso   1.00
H499   H     0.09607   0.07147   0.43598   0.00000  Uiso   1.00
H500   H     0.23725   0.26185   0.56403   0.00000  Uiso   1.00
N501   N     0.16667   0.28573   0.50000   0.00000  Uiso   1.00
N502   N     0.16667   0.04760   0.50000   0.00000  Uiso   1.00
O503   O     0.10559   0.20487   0.50000   0.00000  Uiso   1.00
O504   O     0.26175   0.15106   0.39330   0.00000  Uiso   1.00
O505   O     0.30091   0.12516   0.62542   0.00000  Uiso   1.00
O506   O     0.03242   0.20817   0.37458   0.00000  Uiso   1.00
O507   O     0.20492   0.04557   0.61914   0.00000  Uiso   1.00
O508   O     0.12841   0.28778   0.38086   0.00000  Uiso   1.00
O509   O     0.12887   0.04527   0.38054   0.00000  Uiso   1.00
O510   O     0.20447   0.28808   0.61947   0.00000  Uiso   1.00
O511   O     0.22774   0.12846   0.50000   0.00000  Uiso   1.00
O512   O     0.22774   0.20487   0.50000   0.00000  Uiso   1.00
O513   O     0.10559   0.12846   0.50000   0.00000  Uiso   1.00
O514   O     0.16667   0.20488   0.42845   0.00000  Uiso   1.00
O515   O     0.16666   0.12845   0.57155   0.00000  Uiso   1.00
O516   O     0.16666   0.20488   0.57155   0.00000  Uiso   1.00
O517   O     0.16667   0.12845   0.42845   0.00000  Uiso   1.00
O518   O     0.07158   0.18227   0.60670   0.00000  Uiso   1.00
Zn519  Zn    0.16667   0.21771   0.50000   0.00000  Uiso   1.00
Zn520  Zn    0.16667   0.11563   0.50000   0.00000  Uiso   1.00
C521   C     0.42031   0.16679   0.50012   0.00000  Uiso   1.00
C522   C     0.35449   0.17571   0.45451   0.00000  Uiso   1.00
C523   C     0.62397   0.16621   0.49996   0.00000  Uiso   1.00
C524   C     0.37603   0.16712   0.50004   0.00000  Uiso   1.00
C525   C     0.52122   0.02393   0.53667   0.00000  Uiso   1.00
C526   C     0.47878   0.30941   0.46333   0.00000  Uiso   1.00
C527   C     0.47881   0.02409   0.46330   0.00000  Uiso   1.00
C528   C     0.52119   0.30924   0.53670   0.00000  Uiso   1.00
C529   C     0.38049   0.15321   0.59304   0.00000  Uiso   1.00
C530   C     0.61951   0.18012   0.40696   0.00000  Uiso   1.00
C531   C     0.62168   0.15062   0.59263   0.00000  Uiso   1.00
C532   C     0.57969   0.16655   0.49988   0.00000  Uiso   1.00
C533   C     0.37832   0.18271   0.40737   0.00000  Uiso   1.00
C534   C     0.54607   0.04867   0.57465   0.00000  Uiso   1.00
C535   C     0.45393   0.28467   0.42535   0.00000  Uiso   1.00
C536   C     0.45428   0.04902   0.42496   0.00000  Uiso   1.00
C537   C     0.54572   0.28431   0.57504   0.00000  Uiso   1.00
C538   C     0.49968   0.16666   0.40634   0.00000  Uiso   1.00
C539   C     0.50032   0.16667   0.59366   0.00000  Uiso   1.00
C540   C     0.49985   0.16666   0.35516   0.00000  Uiso   1.00
C541   C     0.50015   0.16668   0.64484   0.00000  Uiso   1.00
C542   C     0.35584   0.15849   0.54550   0.00000  Uiso   1.00
C543   C     0.64416   0.17485   0.45450   0.00000  Uiso   1.00
C544   C     0.64551   0.15762   0.54549   0.00000  Uiso   1.00
H545   H     0.37679   0.12380   0.61629   0.00000  Uiso   1.00
H546   H     0.62321   0.20953   0.38371   0.00000  Uiso   1.00
H547   H     0.59177   0.16728   0.59764   0.00000  Uiso   1.00
H548   H     0.40823   0.16606   0.40236   0.00000  Uiso   1.00
H549   H     0.57114   0.07038   0.56321   0.00000  Uiso   1.00
H550   H     0.42887   0.26294   0.43679   0.00000  Uiso   1.00
H551   H     0.42940   0.07147   0.43598   0.00000  Uiso   1.00
H552   H     0.57059   0.26185   0.56403   0.00000  Uiso   1.00
N553   N     0.50000   0.28573   0.50000   0.00000  Uiso   1.00
N554   N     0.50000   0.04760   0.50000   0.00000  Uiso   1.00
O555   O     0.43892   0.20487   0.50000   0.00000  Uiso   1.00
O556   O     0.59509   0.15106   0.39330   0.00000  Uiso   1.00
O557   O     0.63424   0.12516   0.62542   0.00000  Uiso   1.00
O558   O     0.36575   0.20817   0.37458   0.00000  Uiso   1.00
O559   O     0.53825   0.04557   0.61914   0.00000  Uiso   1.00
O560   O     0.46174   0.28778   0.38086   0.00000  Uiso   1.00
O561   O     0.46220   0.04527   0.38054   0.00000  Uiso   1.00
O562   O     0.53780   0.28808   0.61947   0.00000  Uiso   1.00
O563   O     0.56108   0.12846   0.50000   0.00000  Uiso   1.00
O564   O     0.56108   0.20487   0.50000   0.00000  Uiso   1.00
O565   O     0.43892   0.12846   0.50000   0.00000  Uiso   1.00
O566   O     0.50000   0.20488   0.42845   0.00000  Uiso   1.00
O567   O     0.50000   0.12845   0.57155   0.00000  Uiso   1.00
O568   O     0.50000   0.20488   0.57155   0.00000  Uiso   1.00
O569   O     0.50000   0.12845   0.42845   0.00000  Uiso   1.00
O570   O     0.40491   0.18227   0.60670   0.00000  Uiso   1.00
Zn571  Zn    0.50000   0.21771   0.50000   0.00000  Uiso   1.00
Zn572  Zn    0.50000   0.11563   0.50000   0.00000  Uiso   1.00
C573   C     0.75364   0.16679   0.50012   0.00000  Uiso   1.00
C574   C     0.68782   0.17571   0.45451   0.00000  Uiso   1.00
C575   C     0.95731   0.16621   0.49996   0.00000  Uiso   1.00
C576   C     0.70936   0.16712   0.50004   0.00000  Uiso   1.00
C577   C     0.85455   0.02393   0.53667   0.00000  Uiso   1.00
C578   C     0.81211   0.30941   0.46333   0.00000  Uiso   1.00
C579   C     0.81214   0.02409   0.46330   0.00000  Uiso   1.00
C580   C     0.85453   0.30924   0.53670   0.00000  Uiso   1.00
C581   C     0.71383   0.15321   0.59304   0.00000  Uiso   1.00
C582   C     0.95284   0.18012   0.40696   0.00000  Uiso   1.00
C583   C     0.95501   0.15062   0.59263   0.00000  Uiso   1.00
C584   C     0.91303   0.16655   0.49988   0.00000  Uiso   1.00
C585   C     0.71165   0.18271   0.40737   0.00000  Uiso   1.00
C586   C     0.87941   0.04867   0.57465   0.00000  Uiso   1.00
C587   C     0.78726   0.28467   0.42535   0.00000  Uiso   1.00
C588   C     0.78761   0.04902   0.42496   0.00000  Uiso   1.00
C589   C     0.87905   0.28431   0.57504   0.00000  Uiso   1.00
C590   C     0.83302   0.16666   0.40634   0.00000  Uiso   1.00
C591   C     0.83365   0.16667   0.59366   0.00000  Uiso   1.00
C592   C     0.83319   0.16666   0.35516   0.00000  Uiso   1.00
C593   C     0.83348   0.16668   0.64484   0.00000  Uiso   1.00
C594   C     0.68917   0.15849   0.54550   0.00000  Uiso   1.00
C595   C     0.97749   0.17485   0.45450   0.00000  Uiso   1.00
C596   C     0.97885   0.15762   0.54549   0.00000  Uiso   1.00
H597   H     0.71013   0.12380   0.61629   0.00000  Uiso   1.00
H598   H     0.95654   0.20953   0.38371   0.00000  Uiso   1.00
H599   H     0.92510   0.16728   0.59764   0.00000  Uiso   1.00
H600   H     0.74157   0.16606   0.40236   0.00000  Uiso   1.00
H601   H     0.90448   0.07038   0.56321   0.00000  Uiso   1.00
H602   H     0.76220   0.26294   0.43679   0.00000  Uiso   1.00
H603   H     0.76273   0.07147   0.43598   0.00000  Uiso   1.00
H604   H     0.90392   0.26185   0.56403   0.00000  Uiso   1.00
N605   N     0.83333   0.28573   0.50000   0.00000  Uiso   1.00
N606   N     0.83333   0.04760   0.50000   0.00000  Uiso   1.00
O607   O     0.77226   0.20487   0.50000   0.00000  Uiso   1.00
O608   O     0.92842   0.15106   0.39330   0.00000  Uiso   1.00
O609   O     0.96758   0.12516   0.62542   0.00000  Uiso   1.00
O610   O     0.69909   0.20817   0.37458   0.00000  Uiso   1.00
O611   O     0.87158   0.04557   0.61914   0.00000  Uiso   1.00
O612   O     0.79507   0.28778   0.38086   0.00000  Uiso   1.00
O613   O     0.79553   0.04527   0.38054   0.00000  Uiso   1.00
O614   O     0.87114   0.28808   0.61947   0.00000  Uiso   1.00
O615   O     0.89441   0.12846   0.50000   0.00000  Uiso   1.00
O616   O     0.89441   0.20487   0.50000   0.00000  Uiso   1.00
O617   O     0.77226   0.12846   0.50000   0.00000  Uiso   1.00
O618   O     0.83334   0.20488   0.42845   0.00000  Uiso   1.00
O619   O     0.83333   0.12845   0.57155   0.00000  Uiso   1.00
O620   O     0.83333   0.20488   0.57155   0.00000  Uiso   1.00
O621   O     0.83334   0.12845   0.42845   0.00000  Uiso   1.00
O622   O     0.73824   0.18227   0.60670   0.00000  Uiso   1.00
Zn623  Zn    0.83333   0.21771   0.50000   0.00000  Uiso   1.00
Zn624  Zn    0.83333   0.11563   0.50000   0.00000  Uiso   1.00
C625   C     0.08697   0.50012   0.50012   0.00000  Uiso   1.00
C626   C     0.02115   0.50904   0.45451   0.00000  Uiso   1.00
C627   C     0.29064   0.49955   0.49996   0.00000  Uiso   1.00
C628   C     0.04269   0.50045   0.50004   0.00000  Uiso   1.00
C629   C     0.18789   0.35726   0.53667   0.00000  Uiso   1.00
C630   C     0.14545   0.64274   0.46333   0.00000  Uiso   1.00
C631   C     0.14547   0.35743   0.46330   0.00000  Uiso   1.00
C632   C     0.18786   0.64257   0.53670   0.00000  Uiso   1.00
C633   C     0.04716   0.48654   0.59304   0.00000  Uiso   1.00
C634   C     0.28617   0.51345   0.40696   0.00000  Uiso   1.00
C635   C     0.28835   0.48395   0.59263   0.00000  Uiso   1.00
C636   C     0.24636   0.49988   0.49988   0.00000  Uiso   1.00
C637   C     0.04499   0.51605   0.40737   0.00000  Uiso   1.00
C638   C     0.21274   0.38200   0.57465   0.00000  Uiso   1.00
C639   C     0.12059   0.61800   0.42535   0.00000  Uiso   1.00
C640   C     0.12095   0.38235   0.42496   0.00000  Uiso   1.00
C641   C     0.21238   0.61765   0.57504   0.00000  Uiso   1.00
C642   C     0.16635   0.49999   0.40634   0.00000  Uiso   1.00
C643   C     0.16698   0.50001   0.59366   0.00000  Uiso   1.00
C644   C     0.16652   0.49999   0.35516   0.00000  Uiso   1.00
C645   C     0.16681   0.50001   0.64484   0.00000  Uiso   1.00
C646   C     0.02251   0.49182   0.54550   0.00000  Uiso   1.00
C647   C     0.31083   0.50818   0.45450   0.00000  Uiso   1.00
C648   C     0.31218   0.49096   0.54549   0.00000  Uiso   1.00
H649   H     0.04346   0.45714   0.61629   0.00000  Uiso   1.00
H650   H     0.28987   0.54286   0.38371   0.00000  Uiso   1.00
H651   H     0.25844   0.50061   0.59764   0.00000  Uiso   1.00
H652   H     0.07490   0.49939   0.40236   0.00000  Uiso   1.00
H653   H     0.23781   0.40371   0.56321   0.00000  Uiso   1.00
H654   H     0.09553   0.59628   0.43679   0.00000  Uiso   1.00
H655   H     0.09607   0.40480   0.43598   0.00000  Uiso   1.00
H656   H     0.23725   0.59518   0.56403   0.00000  Uiso   1.00
N657   N     0.16667   0.61907   0.50000   0.00000  Uiso   1.00
N658   N     0.16667   0.38093   0.50000   0.00000  Uiso   1.00
O659   O     0.10559   0.53821   0.50000   0.00000  Uiso   1.00
O660   O     0.26175   0.48439   0.39330   0.00000  Uiso   1.00
O661   O     0.30091   0.45849   0.62542   0.00000  Uiso   1.00
O662   O     0.03242   0.54150   0.37458   0.00000  Uiso   1.00
O663   O     0.20492   0.37891   0.61914   0.00000  Uiso   1.00
O664   O     0.12841   0.62111   0.38086   0.00000  Uiso   1.00
O665   O     0.12887   0.37860   0.38054   0.00000  Uiso   1.00
O666   O     0.20447   0.62141   0.61947   0.00000  Uiso   1.00
O667   O     0.22774   0.46179   0.50000   0.00000  Uiso   1.00
O668   O     0.22774   0.53821   0.50000   0.00000  Uiso   1.00
O669   O     0.10559   0.46179   0.50000   0.00000  Uiso   1.00
O670   O     0.16667   0.53821   0.42845   0.00000  Uiso   1.00
O671   O     0.16666   0.46179   0.57155   0.00000  Uiso   1.00
O672   O     0.16666   0.53821   0.57155   0.00000  Uiso   1.00
O673   O     0.16667   0.46179   0.42845   0.00000  Uiso   1.00
O674   O     0.07158   0.51560   0.60670   0.00000  Uiso   1.00
Zn675  Zn    0.16667   0.55104   0.50000   0.00000  Uiso   1.00
Zn676  Zn    0.16667   0.44896   0.50000   0.00000  Uiso   1.00
C677   C     0.42031   0.50012   0.50012   0.00000  Uiso   1.00
C678   C     0.35449   0.50904   0.45451   0.00000  Uiso   1.00
C679   C     0.62397   0.49955   0.49996   0.00000  Uiso   1.00
C680   C     0.37603   0.50045   0.50004   0.00000  Uiso   1.00
C681   C     0.52122   0.35726   0.53667   0.00000  Uiso   1.00
C682   C     0.47878   0.64274   0.46333   0.00000  Uiso   1.00
C683   C     0.47881   0.35743   0.46330   0.00000  Uiso   1.00
C684   C     0.52119   0.64257   0.53670   0.00000  Uiso   1.00
C685   C     0.38049   0.48654   0.59304   0.00000  Uiso   1.00
C686   C     0.61951   0.51345   0.40696   0.00000  Uiso   1.00
C687   C     0.62168   0.48395   0.59263   0.00000  Uiso   1.00
C688   C     0.57969   0.49988   0.49988   0.00000  Uiso   1.00
C689   C     0.37832   0.51605   0.40737   0.00000  Uiso   1.00
C690   C     0.54607   0.38200   0.57465   0.00000  Uiso   1.00
C691   C     0.45393   0.61800   0.42535   0.00000  Uiso   1.00
C692   C     0.45428   0.38235   0.42496   0.00000  Uiso   1.00
C693   C     0.54572   0.61765   0.57504   0.00000  Uiso   1.00
C694   C     0.49968   0.49999   0.40634   0.00000  Uiso   1.00
C695   C     0.50032   0.50001   0.59366   0.00000  Uiso   1.00
C696   C     0.49985   0.49999   0.35516   0.00000  Uiso   1.00
C697   C     0.50015   0.50001   0.64484   0.00000  Uiso   1.00
C698   C     0.35584   0.49182   0.54550   0.00000  Uiso   1.00
C699   C     0.64416   0.50818   0.45450   0.00000  Uiso   1.00
C700   C     0.64551   0.49096   0.54549   0.00000  Uiso   1.00
H701   H     0.37679   0.45714   0.61629   0.00000  Uiso   1.00
H702   H     0.62321   0.54286   0.38371   0.00000  Uiso   1.00
H703   H     0.59177   0.50061   0.59764   0.00000  Uiso   1.00
H704   H     0.40823   0.49939   0.40236   0.00000  Uiso   1.00
H705   H     0.57114   0.40371   0.56321   0.00000  Uiso   1.00
H706   H     0.42887   0.59628   0.43679   0.00000  Uiso   1.00
H707   H     0.42940   0.40480   0.43598   0.00000  Uiso   1.00
H708   H     0.57059   0.59518   0.56403   0.00000  Uiso   1.00
N709   N     0.50000   0.61907   0.50000   0.00000  Uiso   1.00
N710   N     0.50000   0.38093   0.50000   0.00000  Uiso   1.00
O711   O     0.43892   0.53821   0.50000   0.00000  Uiso   1.00
O712   O     0.59509   0.48439   0.39330   0.00000  Uiso   1.00
O713   O     0.63424   0.45849   0.62542   0.00000  Uiso   1.00
O714   O     0.36575   0.54150   0.37458   0.00000  Uiso   1.00
O715   O     0.53825   0.37891   0.61914   0.00000  Uiso   1.00
O716   O     0.46174   0.62111   0.38086   0.00000  Uiso   1.00
O717   O     0.46220   0.37860   0.38054   0.00000  Uiso   1.00
O718   O     0.53780   0.62141   0.61947   0.00000  Uiso   1.00
O719   O     0.56108   0.46179   0.50000   0.00000  Uiso   1.00
O720   O     0.56108   0.53821   0.50000   0.00000  Uiso   1.00
O721   O     0.43892   0.46179   0.50000   0.00000  Uiso   1.00
O722   O     0.50000   0.53821   0.42845   0.00000  Uiso   1.00
O723   O     0.50000   0.46179   0.57155   0.00000  Uiso   1.00
O724   O     0.50000   0.53821   0.57155   0.00000  Uiso   1.00
O725   O     0.50000   0.46179   0.42845   0.00000  Uiso   1.00
O726   O     0.40491   0.51560   0.60670   0.00000  Uiso   1.00
Zn727  Zn    0.50000   0.55104   0.50000   0.00000  Uiso   1.00
Zn728  Zn    0.50000   0.44896   0.50000   0.00000  Uiso   1.00
C729   C     0.75364   0.50012   0.50012   0.00000  Uiso   1.00
C730   C     0.68782   0.50904   0.45451   0.00000  Uiso   1.00
C731   C     0.95731   0.49955   0.49996   0.00000  Uiso   1.00
C732   C     0.70936   0.50045   0.50004   0.00000  Uiso   1.00
C733   C     0.85455   0.35726   0.53667   0.00000  Uiso   1.00
C734   C     0.81211   0.64274   0.46333   0.00000  Uiso   1.00
C735   C     0.81214   0.35743   0.46330   0.00000  Uiso   1.00
C736   C     0.85453   0.64257   0.53670   0.00000  Uiso   1.00
C737   C     0.71383   0.48654   0.59304   0.00000  Uiso   1.00
C738   C     0.95284   0.51345   0.40696   0.00000  Uiso   1.00
C739   C     0.95501   0.48395   0.59263   0.00000  Uiso   1.00
C740   C     0.91303   0.49988   0.49988   0.00000  Uiso   1.00
C741   C     0.71165   0.51605   0.40737   0.00000  Uiso   1.00
C742   C     0.87941   0.38200   0.57465   0.00000  Uiso   1.00
C743   C     0.78726   0.61800   0.42535   0.00000  Uiso   1.00
C744   C     0.78761   0.38235   0.42496   0.00000  Uiso   1.00
C745   C     0.87905   0.61765   0.57504   0.00000  Uiso   1.00
C746   C     0.83302   0.49999   0.40634   0.00000  Uiso   1.00
C747   C     0.83365   0.50001   0.59366   0.00000  Uiso   1.00
C748   C     0.83319   0.49999   0.35516   0.00000  Uiso   1.00
C749   C     0.83348   0.50001   0.64484   0.00000  Uiso   1.00
C750   C     0.68917   0.49182   0.54550   0.00000  Uiso   1.00
C751   C     0.97749   0.50818   0.45450   0.00000  Uiso   1.00
C752   C     0.97885   0.49096   0.54549   0.00000  Uiso   1.00
H753   H     0.71013   0.45714   0.61629   0.00000  Uiso   1.00
H754   H     0.95654   0.54286   0.38371   0.00000  Uiso   1.00
H755   H     0.92510   0.50061   0.59764   0.00000  Uiso   1.00
H756   H     0.74157   0.49939   0.40236   0.00000  Uiso   1.00
H757   H     0.90448   0.40371   0.56321   0.00000  Uiso   1.00
H758   H     0.76220   0.59628   0.43679   0.00000  Uiso   1.00
H759   H     0.76273   0.40480   0.43598   0.00000  Uiso   1.00
H760   H     0.90392   0.59518   0.56403   0.00000  Uiso   1.00
N761   N     0.83333   0.61907   0.50000   0.00000  Uiso   1.00
N762   N     0.83333   0.38093   0.50000   0.00000  Uiso   1.00
O763   O     0.77226   0.53821   0.50000   0.00000  Uiso   1.00
O764   O     0.92842   0.48439   0.39330   0.00000  Uiso   1.00
O765   O     0.96758   0.45849   0.62542   0.00000  Uiso   1.00
O766   O     0.69909   0.54150   0.37458   0.00000  Uiso   1.00
O767   O     0.87158   0.37891   0.61914   0.00000  Uiso   1.00
O768   O     0.79507   0.62111   0.38086   0.00000  Uiso   1.00
O769   O     0.79553   0.37860   0.38054   0.00000  Uiso   1.00
O770   O     0.87114   0.62141   0.61947   0.00000  Uiso   1.00
O771   O     0.89441   0.46179   0.50000   0.00000  Uiso   1.00
O772   O     0.89441   0.53821   0.50000   0.00000  Uiso   1.00
O773   O     0.77226   0.46179   0.50000   0.00000  Uiso   1.00
O774   O     0.83334   0.53821   0.42845   0.00000  Uiso   1.00
O775   O     0.83333   0.46179   0.57155   0.00000  Uiso   1.00
O776   O     0.83333   0.53821   0.57155   0.00000  Uiso   1.00
O777   O     0.83334   0.46179   0.42845   0.00000  Uiso   1.00
O778   O     0.73824   0.51560   0.60670   0.00000  Uiso   1.00
Zn779  Zn    0.83333   0.55104   0.50000   0.00000  Uiso   1.00
Zn780  Zn    0.83333   0.44896   0.50000   0.00000  Uiso   1.00
C781   C     0.08697   0.83345   0.50012   0.00000  Uiso   1.00
C782   C     0.02115   0.84238   0.45451   0.00000  Uiso   1.00
C783   C     0.29064   0.83288   0.49996   0.00000  Uiso   1.00
C784   C     0.04269   0.83379   0.50004   0.00000  Uiso   1.00
C785   C     0.18789   0.69059   0.53667   0.00000  Uiso   1.00
C786   C     0.14545   0.97607   0.46333   0.00000  Uiso   1.00
C787   C     0.14547   0.69076   0.46330   0.00000  Uiso   1.00
C788   C     0.18786   0.97591   0.53670   0.00000  Uiso   1.00
C789   C     0.04716   0.81988   0.59304   0.00000  Uiso   1.00
C790   C     0.28617   0.84679   0.40696   0.00000  Uiso   1.00
C791   C     0.28835   0.81729   0.59263   0.00000  Uiso   1.00
C792   C     0.24636   0.83321   0.49988   0.00000  Uiso   1.00
C793   C     0.04499   0.84938   0.40737   0.00000  Uiso   1.00
C794   C     0.21274   0.71533   0.57465   0.00000  Uiso   1.00
C795   C     0.12059   0.95133   0.42535   0.00000  Uiso   1.00
C796   C     0.12095   0.71569   0.42496   0.00000  Uiso   1.00
C797   C     0.21238   0.95098   0.57504   0.00000  Uiso   1.00
C798   C     0.16635   0.83333   0.40634   0.00000  Uiso   1.00
C799   C     0.16698   0.83334   0.59366   0.00000  Uiso   1.00
C800   C     0.16652   0.83332   0.35516   0.00000  Uiso   1.00
C801   C     0.16681   0.83334   0.64484   0.00000  Uiso   1.00
C802   C     0.02251   0.82515   0.54550   0.00000  Uiso   1.00
C803   C     0.31083   0.84151   0.45450   0.00000  Uiso   1.00
C804   C     0.31218   0.82429   0.54549   0.00000  Uiso   1.00
H805   H     0.04346   0.79047   0.61629   0.00000  Uiso   1.00
H806   H     0.28987   0.87619   0.38371   0.00000  Uiso   1.00
H807   H     0.25844   0.83395   0.59764   0.00000  Uiso   1.00
H808   H     0.07490   0.83273   0.40236   0.00000  Uiso   1.00
H809   H     0.23781   0.73704   0.56321   0.00000  Uiso   1.00
H810   H     0.09553   0.92961   0.43679   0.00000  Uiso   1.00
H811   H     0.09607   0.73814   0.43598   0.00000  Uiso   1.00
H812   H     0.23725   0.92852   0.56403   0.00000  Uiso   1.00
N813   N     0.16667   0.95240   0.50000   0.00000  Uiso   1.00
N814   N     0.16667   0.71427   0.50000   0.00000  Uiso   1.00
O815   O     0.10559   0.87154   0.50000   0.00000  Uiso   1.00
O816   O     0.26175   0.81773   0.39330   0.00000  Uiso   1.00
O817   O     0.30091   0.79183   0.62542   0.00000  Uiso   1.00
O818   O     0.03242   0.87483   0.37458   0.00000  Uiso   1.00
O819   O     0.20492   0.71224   0.61914   0.00000  Uiso   1.00
O820   O     0.12841   0.95444   0.38086   0.00000  Uiso   1.00
O821   O     0.12887   0.71194   0.38054   0.00000  Uiso   1.00
O822   O     0.20447   0.95475   0.61947   0.00000  Uiso   1.00
O823   O     0.22774   0.79513   0.50000   0.00000  Uiso   1.00
O824   O     0.22774   0.87154   0.50000   0.00000  Uiso   1.00
O825   O     0.10559   0.79513   0.50000   0.00000  Uiso   1.00
O826   O     0.16667   0.87155   0.42845   0.00000  Uiso   1.00
O827   O     0.16666   0.79512   0.57155   0.00000  Uiso   1.00
O828   O     0.16666   0.87155   0.57155   0.00000  Uiso   1.00
O829   O     0.16667   0.79512   0.42845   0.00000  Uiso   1.00
O830   O     0.07158   0.84894   0.60670   0.00000  Uiso   1.00
Zn831  Zn    0.16667   0.88437   0.50000   0.00000  Uiso   1.00
Zn832  Zn    0.16667   0.78229   0.50000   0.00000  Uiso   1.00
C833   C     0.42031   0.83345   0.50012   0.00000  Uiso   1.00
C834   C     0.35449   0.84238   0.45451   0.00000  Uiso   1.00
C835   C     0.62397   0.83288   0.49996   0.00000  Uiso   1.00
C836   C     0.37603   0.83379   0.50004   0.00000  Uiso   1.00
C837   C     0.52122   0.69059   0.53667   0.00000  Uiso   1.00
C838   C     0.47878   0.97607   0.46333   0.00000  Uiso   1.00
C839   C     0.47881   0.69076   0.46330   0.00000  Uiso   1.00
C840   C     0.52119   0.97591   0.53670   0.00000  Uiso   1.00
C841   C     0.38049   0.81988   0.59304   0.00000  Uiso   1.00
C842   C     0.61951   0.84679   0.40696   0.00000  Uiso   1.00
C843   C     0.62168   0.81729   0.59263   0.00000  Uiso   1.00
C844   C     0.57969   0.83321   0.49988   0.00000  Uiso   1.00
C845   C     0.37832   0.84938   0.40737   0.00000  Uiso   1.00
C846   C     0.54607   0.71533   0.57465   0.00000  Uiso   1.00
C847   C     0.45393   0.95133   0.42535   0.00000  Uiso   1.00
C848   C     0.45428   0.71569   0.42496   0.00000  Uiso   1.00
C849   C     0.54572   0.95098   0.57504   0.00000  Uiso   1.00
C850   C     0.49968   0.83333   0.40634   0.00000  Uiso   1.00
C851   C     0.50032   0.83334   0.59366   0.00000  Uiso   1.00
C852   C     0.49985   0.83332   0.35516   0.00000  Uiso   1.00
C853   C     0.50015   0.83334   0.64484   0.00000  Uiso   1.00
C854   C     0.35584   0.82515   0.54550   0.00000  Uiso   1.00
C855   C     0.64416   0.84151   0.45450   0.00000  Uiso   1.00
C856   C     0.64551   0.82429   0.54549   0.00000  Uiso   1.00
H857   H     0.37679   0.79047   0.61629   0.00000  Uiso   1.00
H858   H     0.62321   0.87619   0.38371   0.00000  Uiso   1.00
H859   H     0.59177   0.83395   0.59764   0.00000  Uiso   1.00
H860   H     0.40823   0.83273   0.40236   0.00000  Uiso   1.00
H861   H     0.57114   0.73704   0.56321   0.00000  Uiso   1.00
H862   H     0.42887   0.92961   0.43679   0.00000  Uiso   1.00
H863   H     0.42940   0.73814   0.43598   0.00000  Uiso   1.00
H864   H     0.57059   0.92852   0.56403   0.00000  Uiso   1.00
N865   N     0.50000   0.95240   0.50000   0.00000  Uiso   1.00
N866   N     0.50000   0.71427   0.50000   0.00000  Uiso   1.00
O867   O     0.43892   0.87154   0.50000   0.00000  Uiso   1.00
O868   O     0.59509   0.81773   0.39330   0.00000  Uiso   1.00
O869   O     0.63424   0.79183   0.62542   0.00000  Uiso   1.00
O870   O     0.36575   0.87483   0.37458   0.00000  Uiso   1.00
O871   O     0.53825   0.71224   0.61914   0.00000  Uiso   1.00
O872   O     0.46174   0.95444   0.38086   0.00000  Uiso   1.00
O873   O     0.46220   0.71194   0.38054   0.00000  Uiso   1.00
O874   O     0.53780   0.95475   0.61947   0.00000  Uiso   1.00
O875   O     0.56108   0.79513   0.50000   0.00000  Uiso   1.00
O876   O     0.56108   0.87154   0.50000   0.00000  Uiso   1.00
O877   O     0.43892   0.79513   0.50000   0.00000  Uiso   1.00
O878   O     0.50000   0.87155   0.42845   0.00000  Uiso   1.00
O879   O     0.50000   0.79512   0.57155   0.00000  Uiso   1.00
O880   O     0.50000   0.87155   0.57155   0.00000  Uiso   1.00
O881   O     0.50000   0.79512   0.42845   0.00000  Uiso   1.00
O882   O     0.40491   0.84894   0.60670   0.00000  Uiso   1.00
Zn883  Zn    0.50000   0.88437   0.50000   0.00000  Uiso   1.00
Zn884  Zn    0.50000   0.78229   0.50000   0.00000  Uiso   1.00
C885   C     0.75364   0.83345   0.50012   0.00000  Uiso   1.00
C886   C     0.68782   0.84238   0.45451   0.00000  Uiso   1.00
C887   C     0.95731   0.83288   0.49996   0.00000  Uiso   1.00
C888   C     0.70936   0.83379   0.50004   0.00000  Uiso   1.00
C889   C     0.85455   0.69059   0.53667   0.00000  Uiso   1.00
C890   C     0.81211   0.97607   0.46333   0.00000  Uiso   1.00
C891   C     0.81214   0.69076   0.46330   0.00000  Uiso   1.00
C892   C     0.85453   0.97591   0.53670   0.00000  Uiso   1.00
C893   C     0.71383   0.81988   0.59304   0.00000  Uiso   1.00
C894   C     0.95284   0.84679   0.40696   0.00000  Uiso   1.00
C895   C     0.95501   0.81729   0.59263   0.00000  Uiso   1.00
C896   C     0.91303   0.83321   0.49988   0.00000  Uiso   1.00
C897   C     0.71165   0.84938   0.40737   0.00000  Uiso   1.00
C898   C     0.87941   0.71533   0.57465   0.00000  Uiso   1.00
C899   C     0.78726   0.95133   0.42535   0.00000  Uiso   1.00
C900   C     0.78761   0.71569   0.42496   0.00000  Uiso   1.00
C901   C     0.87905   0.95098   0.57504   0.00000  Uiso   1.00
C902   C     0.83302   0.83333   0.40634   0.00000  Uiso   1.00
C903   C     0.83365   0.83334   0.59366   0.00000  Uiso   1.00
C904   C     0.83319   0.83332   0.35516   0.00000  Uiso   1.00
C905   C     0.83348   0.83334   0.64484   0.00000  Uiso   1.00
C906   C     0.68917   0.82515   0.54550   0.00000  Uiso   1.00
C907   C     0.97749   0.84151   0.45450   0.00000  Uiso   1.00
C908   C     0.97885   0.82429   0.54549   0.00000  Uiso   1.00
H909   H     0.71013   0.79047   0.61629   0.00000  Uiso   1.00
H910   H     0.95654   0.87619   0.38371   0.00000  Uiso   1.00
H911   H     0.92510   0.83395   0.59764   0.00000  Uiso   1.00
H912   H     0.74157   0.83273   0.40236   0.00000  Uiso   1.00
H913   H     0.90448   0.73704   0.56321   0.00000  Uiso   1.00
H914   H     0.76220   0.92961   0.43679   0.00000  Uiso   1.00
H915   H     0.76273   0.73814   0.43598   0.00000  Uiso   1.00
H916   H     0.90392   0.92852   0.56403   0.00000  Uiso   1.00
N917   N     0.83333   0.95240   0.50000   0.00000  Uiso   1.00
N918   N     0.83333   0.71427   0.50000   0.00000  Uiso   1.00
O919   O     0.77226   0.87154   0.50000   0.00000  Uiso   1.00
O920   O     0.92842   0.81773   0.39330   0.00000  Uiso   1.00
O921   O     0.96758   0.79183   0.62542   0.00000  Uiso   1.00
O922   O     0.69909   0.87483   0.37458   0.00000  Uiso   1.00
O923   O     0.87158   0.71224   0.61914   0.00000  Uiso   1.00
O924   O     0.79507   0.95444   0.38086   0.00000  Uiso   1.00
O925   O     0.79553   0.71194   0.38054   0.00000  Uiso   1.00
O926   O     0.87114   0.95475   0.61947   0.00000  Uiso   1.00
O927   O     0.89441   0.79513   0.50000   0.00000  Uiso   1.00
O928   O     0.89441   0.87154   0.50000   0.00000  Uiso   1.00
O929   O     0.77226   0.79513   0.50000   0.00000  Uiso   1.00
O930   O     0.83334   0.87155   0.42845   0.00000  Uiso   1.00
O931   O     0.83333   0.79512   0.57155   0.00000  Uiso   1.00
O932   O     0.83333   0.87155   0.57155   0.00000  Uiso   1.00
O933   O     0.83334   0.79512   0.42845   0.00000  Uiso   1.00
O934   O     0.73824   0.84894   0.60670   0.00000  Uiso   1.00
Zn935  Zn    0.83333   0.88437   0.50000   0.00000  Uiso   1.00
Zn936  Zn    0.83333   0.78229   0.50000   0.00000  Uiso   1.00
C937   C     0.08697   0.16679   0.83346   0.00000  Uiso   1.00
C938   C     0.02115   0.17571   0.78784   0.00000  Uiso   1.00
C939   C     0.29064   0.16621   0.83329   0.00000  Uiso   1.00
C940   C     0.04269   0.16712   0.83338   0.00000  Uiso   1.00
C941   C     0.18789   0.02393   0.87000   0.00000  Uiso   1.00
C942   C     0.14545   0.30941   0.79667   0.00000  Uiso   1.00
C943   C     0.14547   0.02409   0.79663   0.00000  Uiso   1.00
C944   C     0.18786   0.30924   0.87004   0.00000  Uiso   1.00
C945   C     0.04716   0.15321   0.92638   0.00000  Uiso   1.00
C946   C     0.28617   0.18012   0.74029   0.00000  Uiso   1.00
C947   C     0.28835   0.15062   0.92596   0.00000  Uiso   1.00
C948   C     0.24636   0.16655   0.83321   0.00000  Uiso   1.00
C949   C     0.04499   0.18271   0.74070   0.00000  Uiso   1.00
C950   C     0.21274   0.04867   0.90798   0.00000  Uiso   1.00
C951   C     0.12059   0.28467   0.75869   0.00000  Uiso   1.00
C952   C     0.12095   0.04902   0.75829   0.00000  Uiso   1.00
C953   C     0.21238   0.28431   0.90838   0.00000  Uiso   1.00
C954   C     0.16635   0.16666   0.73967   0.00000  Uiso   1.00
C955   C     0.16698   0.16667   0.92699   0.00000  Uiso   1.00
C956   C     0.16652   0.16666   0.68850   0.00000  Uiso   1.00
C957   C     0.16681   0.16668   0.97817   0.00000  Uiso   1.00
C958   C     0.02251   0.15849   0.87884   0.00000  Uiso   1.00
C959   C     0.31083   0.17485   0.78783   0.00000  Uiso   1.00
C960   C     0.31218   0.15762   0.87882   0.00000  Uiso   1.00
H961   H     0.04346   0.12380   0.94962   0.00000  Uiso   1.00
H962   H     0.28987   0.20953   0.71704   0.00000  Uiso   1.00
H963   H     0.25844   0.16728   0.93097   0.00000  Uiso   1.00
H964   H     0.07490   0.16606   0.73569   0.00000  Uiso   1.00
H965   H     0.23781   0.07038   0.89654   0.00000  Uiso   1.00
H966   H     0.09553   0.26294   0.77012   0.00000  Uiso   1.00
H967   H     0.09607   0.07147   0.76931   0.00000  Uiso   1.00
H968   H     0.23725   0.26185   0.89736   0.00000  Uiso   1.00
N969   N     0.16667   0.28573   0.83333   0.00000  Uiso   1.00
N970   N     0.16667   0.04760   0.83333   0.00000  Uiso   1.00
O971   O     0.10559   0.20487   0.83333   0.00000  Uiso   1.00
O972   O     0.26175   0.15106   0.72663   0.00000  Uiso   1.00
O973   O     0.30091   0.12516   0.95875   0.00000  Uiso   1.00
O974   O     0.03242   0.20817   0.70791   0.00000  Uiso   1.00
O975   O     0.20492   0.04557   0.95247   0.00000  Uiso   1.00
O976   O     0.12841   0.28778   0.71419   0.00000  Uiso   1.00
O977   O     0.12887   0.04527   0.71387   0.00000  Uiso   1.00
O978   O     0.20447   0.28808   0.95280   0.00000  Uiso   1.00
O979   O     0.22774   0.12846   0.83334   0.00000  Uiso   1.00
O980   O     0.22774   0.20487   0.83334   0.00000  Uiso   1.00
O981   O     0.10559   0.12846   0.83333   0.00000  Uiso   1.00
O982   O     0.16667   0.20488   0.76178   0.00000  Uiso   1.00
O983   O     0.16666   0.12845   0.90489   0.00000  Uiso   1.00
O984   O     0.16666   0.20488   0.90489   0.00000  Uiso   1.00
O985   O     0.16667   0.12845   0.76178   0.00000  Uiso   1.00
O986   O     0.07158   0.18227   0.94004   0.00000  Uiso   1.00
Zn987  Zn    0.16667   0.21771   0.83333   0.00000  Uiso   1.00
Zn988  Zn    0.16667   0.11563   0.83333   0.00000  Uiso   1.00
C989   C     0.42031   0.16679   0.83346   0.00000  Uiso   1.00
C990   C     0.35449   0.17571   0.78784   0.00000  Uiso   1.00
C991   C     0.62397   0.16621   0.83329   0.00000  Uiso   1.00
C992   C     0.37603   0.16712   0.83338   0.00000  Uiso   1.00
C993   C     0.52122   0.02393   0.87000   0.00000  Uiso   1.00
C994   C     0.47878   0.30941   0.79667   0.00000  Uiso   1.00
C995   C     0.47881   0.02409   0.79663   0.00000  Uiso   1.00
C996   C     0.52119   0.30924   0.87004   0.00000  Uiso   1.00
C997   C     0.38049   0.15321   0.92638   0.00000  Uiso   1.00
C998   C     0.61951   0.18012   0.74029   0.00000  Uiso   1.00
C999   C     0.62168   0.15062   0.92596   0.00000  Uiso   1.00
C1000  C     0.57969   0.16655   0.83321   0.00000  Uiso   1.00
C1001  C     0.37832   0.18271   0.74070   0.00000  Uiso   1.00
C1002  C     0.54607   0.04867   0.90798   0.00000  Uiso   1.00
C1003  C     0.45393   0.28467   0.75869   0.00000  Uiso   1.00
C1004  C     0.45428   0.04902   0.75829   0.00000  Uiso   1.00
C1005  C     0.54572   0.28431   0.90838   0.00000  Uiso   1.00
C1006  C     0.49968   0.16666   0.73967   0.00000  Uiso   1.00
C1007  C     0.50032   0.16667   0.92699   0.00000  Uiso   1.00
C1008  C     0.49985   0.16666   0.68850   0.00000  Uiso   1.00
C1009  C     0.50015   0.16668   0.97817   0.00000  Uiso   1.00
C1010  C     0.35584   0.15849   0.87884   0.00000  Uiso   1.00
C1011  C     0.64416   0.17485   0.78783   0.00000  Uiso   1.00
C1012  C     0.64551   0.15762   0.87882   0.00000  Uiso   1.00
H1013  H     0.37679   0.12380   0.94962   0.00000  Uiso   1.00
H1014  H     0.62321   0.20953   0.71704   0.00000  Uiso   1.00
H1015  H     0.59177   0.16728   0.93097   0.00000  Uiso   1.00
H1016  H     0.40823   0.16606   0.73569   0.00000  Uiso   1.00
H1017  H     0.57114   0.07038   0.89654   0.00000  Uiso   1.00
H1018  H     0.42887   0.26294   0.77012   0.00000  Uiso   1.00
H1019  H     0.42940   0.07147   0.76931   0.00000  Uiso   1.00
H1020  H     0.57059   0.26185   0.89736   0.00000  Uiso   1.00
N1021  N     0.50000   0.28573   0.83333   0.00000  Uiso   1.00
N1022  N     0.50000   0.04760   0.83333   0.00000  Uiso   1.00
O1023  O     0.43892   0.20487   0.83333   0.00000  Uiso   1.00
O1024  O     0.59509   0.15106   0.72663   0.00000  Uiso   1.00
O1025  O     0.63424   0.12516   0.95875   0.00000  Uiso   1.00
O1026  O     0.36575   0.20817   0.70791   0.00000  Uiso   1.00
O1027  O     0.53825   0.04557   0.95247   0.00000  Uiso   1.00
O1028  O     0.46174   0.28778   0.71419   0.00000  Uiso   1.00
O1029  O     0.46220   0.04527   0.71387   0.00000  Uiso   1.00
O1030  O     0.53780   0.28808   0.95280   0.00000  Uiso   1.00
O1031  O     0.56108   0.12846   0.83334   0.00000  Uiso   1.00
O1032  O     0.56108   0.20487   0.83334   0.00000  Uiso   1.00
O1033  O     0.43892   0.12846   0.83333   0.00000  Uiso   1.00
O1034  O     0.50000   0.20488   0.76178   0.00000  Uiso   1.00
O1035  O     0.50000   0.12845   0.90489   0.00000  Uiso   1.00
O1036  O     0.50000   0.20488   0.90489   0.00000  Uiso   1.00
O1037  O     0.50000   0.12845   0.76178   0.00000  Uiso   1.00
O1038  O     0.40491   0.18227   0.94004   0.00000  Uiso   1.00
Zn1039 Zn    0.50000   0.21771   0.83333   0.00000  Uiso   1.00
Zn1040 Zn    0.50000   0.11563   0.83333   0.00000  Uiso   1.00
C1041  C     0.75364   0.16679   0.83346   0.00000  Uiso   1.00
C1042  C     0.68782   0.17571   0.78784   0.00000  Uiso   1.00
C1043  C     0.95731   0.16621   0.83329   0.00000  Uiso   1.00
C1044  C     0.70936   0.16712   0.83338   0.00000  Uiso   1.00
C1045  C     0.85455   0.02393   0.87000   0.00000  Uiso   1.00
C1046  C     0.81211   0.30941   0.79667   0.00000  Uiso   1.00
C1047  C     0.81214   0.02409   0.79663   0.00000  Uiso   1.00
C1048  C     0.85453   0.30924   0.87004   0.00000  Uiso   1.00
C1049  C     0.71383   0.15321   0.92638   0.00000  Uiso   1.00
C1050  C     0.95284   0.18012   0.74029   0.00000  Uiso   1.00
C1051  C     0.95501   0.15062   0.92596   0.00000  Uiso   1.00
C1052  C     0.91303   0.16655   0.83321   0.00000  Uiso   1.00
C1053  C     0.71165   0.18271   0.74070   0.00000  Uiso   1.00
C1054  C     0.87941   0.04867   0.90798   0.00000  Uiso   1.00
C1055  C     0.78726   0.28467   0.75869   0.00000  Uiso   1.00
C1056  C     0.78761   0.04902   0.75829   0.00000  Uiso   1.00
C1057  C     0.87905   0.28431   0.90838   0.00000  Uiso   1.00
C1058  C     0.83302   0.16666   0.73967   0.00000  Uiso   1.00
C1059  C     0.83365   0.16667   0.92699   0.00000  Uiso   1.00
C1060  C     0.83319   0.16666   0.68850   0.00000  Uiso   1.00
C1061  C     0.83348   0.16668   0.97817   0.00000  Uiso   1.00
C1062  C     0.68917   0.15849   0.87884   0.00000  Uiso   1.00
C1063  C     0.97749   0.17485   0.78783   0.00000  Uiso   1.00
C1064  C     0.97885   0.15762   0.87882   0.00000  Uiso   1.00
H1065  H     0.71013   0.12380   0.94962   0.00000  Uiso   1.00
H1066  H     0.95654   0.20953   0.71704   0.00000  Uiso   1.00
H1067  H     0.92510   0.16728   0.93097   0.00000  Uiso   1.00
H1068  H     0.74157   0.16606   0.73569   0.00000  Uiso   1.00
H1069  H     0.90448   0.07038   0.89654   0.00000  Uiso   1.00
H1070  H     0.76220   0.26294   0.77012   0.00000  Uiso   1.00
H1071  H     0.76273   0.07147   0.76931   0.00000  Uiso   1.00
H1072  H     0.90392   0.26185   0.89736   0.00000  Uiso   1.00
N1073  N     0.83333   0.28573   0.83333   0.00000  Uiso   1.00
N1074  N     0.83333   0.04760   0.83333   0.00000  Uiso   1.00
O1075  O     0.77226   0.20487   0.83333   0.00000  Uiso   1.00
O1076  O     0.92842   0.15106   0.72663   0.00000  Uiso   1.00
O1077  O     0.96758   0.12516   0.95875   0.00000  Uiso   1.00
O1078  O     0.69909   0.20817   0.70791   0.00000  Uiso   1.00
O1079  O     0.87158   0.04557   0.95247   0.00000  Uiso   1.00
O1080  O     0.79507   0.28778   0.71419   0.00000  Uiso   1.00
O1081  O     0.79553   0.04527   0.71387   0.00000  Uiso   1.00
O1082  O     0.87114   0.28808   0.95280   0.00000  Uiso   1.00
O1083  O     0.89441   0.12846   0.83334   0.00000  Uiso   1.00
O1084  O     0.89441   0.20487   0.83334   0.00000  Uiso   1.00
O1085  O     0.77226   0.12846   0.83333   0.00000  Uiso   1.00
O1086  O     0.83334   0.20488   0.76178   0.00000  Uiso   1.00
O1087  O     0.83333   0.12845   0.90489   0.00000  Uiso   1.00
O1088  O     0.83333   0.20488   0.90489   0.00000  Uiso   1.00
O1089  O     0.83334   0.12845   0.76178   0.00000  Uiso   1.00
O1090  O     0.73824   0.18227   0.94004   0.00000  Uiso   1.00
Zn1091 Zn    0.83333   0.21771   0.83333   0.00000  Uiso   1.00
Zn1092 Zn    0.83333   0.11563   0.83333   0.00000  Uiso   1.00
C1093  C     0.08697   0.50012   0.83346   0.00000  Uiso   1.00
C1094  C     0.02115   0.50904   0.78784   0.00000  Uiso   1.00
C1095  C     0.29064   0.49955   0.83329   0.00000  Uiso   1.00
C1096  C     0.04269   0.50045   0.83338   0.00000  Uiso   1.00
C1097  C     0.18789   0.35726   0.87000   0.00000  Uiso   1.00
C1098  C     0.14545   0.64274   0.79667   0.00000  Uiso   1.00
C1099  C     0.14547   0.35743   0.79663   0.00000  Uiso   1.00
C1100  C     0.18786   0.64257   0.87004   0.00000  Uiso   1.00
C1101  C     0.04716   0.48654   0.92638   0.00000  Uiso   1.00
C1102  C     0.28617   0.51345   0.74029   0.00000  Uiso   1.00
C1103  C     0.28835   0.48395   0.92596   0.00000  Uiso   1.00
C1104  C     0.24636   0.49988   0.83321   0.00000  Uiso   1.00
C1105  C     0.04499   0.51605   0.74070   0.00000  Uiso   1.00
C1106  C     0.21274   0.38200   0.90798   0.00000  Uiso   1.00
C1107  C     0.12059   0.61800   0.75869   0.00000  Uiso   1.00
C1108  C     0.12095   0.38235   0.75829   0.00000  Uiso   1.00
C1109  C     0.21238   0.61765   0.90838   0.00000  Uiso   1.00
C1110  C     0.16635   0.49999   0.73967   0.00000  Uiso   1.00
C1111  C     0.16698   0.50001   0.92699   0.00000  Uiso   1.00
C1112  C     0.16652   0.49999   0.68850   0.00000  Uiso   1.00
C1113  C     0.16681   0.50001   0.97817   0.00000  Uiso   1.00
C1114  C     0.02251   0.49182   0.87884   0.00000  Uiso   1.00
C1115  C     0.31083   0.50818   0.78783   0.00000  Uiso   1.00
C1116  C     0.31218   0.49096   0.87882   0.00000  Uiso   1.00
H1117  H     0.04346   0.45714   0.94962   0.00000  Uiso   1.00
H1118  H     0.28987   0.54286   0.71704   0.00000  Uiso   1.00
H1119  H     0.25844   0.50061   0.93097   0.00000  Uiso   1.00
H1120  H     0.07490   0.49939   0.73569   0.00000  Uiso   1.00
H1121  H     0.23781   0.40371   0.89654   0.00000  Uiso   1.00
H1122  H     0.09553   0.59628   0.77012   0.00000  Uiso   1.00
H1123  H     0.09607   0.40480   0.76931   0.00000  Uiso   1.00
H1124  H     0.23725   0.59518   0.89736   0.00000  Uiso   1.00
N1125  N     0.16667   0.61907   0.83333   0.00000  Uiso   1.00
N1126  N     0.16667   0.38093   0.83333   0.00000  Uiso   1.00
O1127  O     0.10559   0.53821   0.83333   0.00000  Uiso   1.00
O1128  O     0.26175   0.48439   0.72663   0.00000  Uiso   1.00
O1129  O     0.30091   0.45849   0.95875   0.00000  Uiso   1.00
O1130  O     0.03242   0.54150   0.70791   0.00000  Uiso   1.00
O1131  O     0.20492   0.37891   0.95247   0.00000  Uiso   1.00
O1132  O     0.12841   0.62111   0.71419   0.00000  Uiso   1.00
O1133  O     0.12887   0.37860   0.71387   0.00000  Uiso   1.00
O1134  O     0.20447   0.62141   0.95280   0.00000  Uiso   1.00
O1135  O     0.22774   0.46179   0.83334   0.00000  Uiso   1.00
O1136  O     0.22774   0.53821   0.83334   0.00000  Uiso   1.00
O1137  O     0.10559   0.46179   0.83333   0.00000  Uiso   1.00
O1138  O     0.16667   0.53821   0.76178   0.00000  Uiso   1.00
O1139  O     0.16666   0.46179   0.90489   0.00000  Uiso   1.00
O1140  O     0.16666   0.53821   0.90489   0.00000  Uiso   1.00
O1141  O     0.16667   0.46179   0.76178   0.00000  Uiso   1.00
O1142  O     0.07158   0.51560   0.94004   0.00000  Uiso   1.00
Zn1143 Zn    0.16667   0.55104   0.83333   0.00000  Uiso   1.00
Zn1144 Zn    0.16667   0.44896   0.83333   0.00000  Uiso   1.00
C1145  C     0.42031   0.50012   0.83346   0.00000  Uiso   1.00
C1146  C     0.35449   0.50904   0.78784   0.00000  Uiso   1.00
C1147  C     0.62397   0.49955   0.83329   0.00000  Uiso   1.00
C1148  C     0.37603   0.50045   0.83338   0.00000  Uiso   1.00
C1149  C     0.52122   0.35726   0.87000   0.00000  Uiso   1.00
C1150  C     0.47878   0.64274   0.79667   0.00000  Uiso   1.00
C1151  C     0.47881   0.35743   0.79663   0.00000  Uiso   1.00
C1152  C     0.52119   0.64257   0.87004   0.00000  Uiso   1.00
C1153  C     0.38049   0.48654   0.92638   0.00000  Uiso   1.00
C1154  C     0.61951   0.51345   0.74029   0.00000  Uiso   1.00
C1155  C     0.62168   0.48395   0.92596   0.00000  Uiso   1.00
C1156  C     0.57969   0.49988   0.83321   0.00000  Uiso   1.00
C1157  C     0.37832   0.51605   0.74070   0.00000  Uiso   1.00
C1158  C     0.54607   0.38200   0.90798   0.00000  Uiso   1.00
C1159  C     0.45393   0.61800   0.75869   0.00000  Uiso   1.00
C1160  C     0.45428   0.38235   0.75829   0.00000  Uiso   1.00
C1161  C     0.54572   0.61765   0.90838   0.00000  Uiso   1.00
C1162  C     0.49968   0.49999   0.73967   0.00000  Uiso   1.00
C1163  C     0.50032   0.50001   0.92699   0.00000  Uiso   1.00
C1164  C     0.49985   0.49999   0.68850   0.00000  Uiso   1.00
C1165  C     0.50015   0.50001   0.97817   0.00000  Uiso   1.00
C1166  C     0.35584   0.49182   0.87884   0.00000  Uiso   1.00
C1167  C     0.64416   0.50818   0.78783   0.00000  Uiso   1.00
C1168  C     0.64551   0.49096   0.87882   0.00000  Uiso   1.00
H1169  H     0.37679   0.45714   0.94962   0.00000  Uiso   1.00
H1170  H     0.62321   0.54286   0.71704   0.00000  Uiso   1.00
H1171  H     0.59177   0.50061   0.93097   0.00000  Uiso   1.00
H1172  H     0.40823   0.49939   0.73569   0.00000  Uiso   1.00
H1173  H     0.57114   0.40371   0.89654   0.00000  Uiso   1.00
H1174  H     0.42887   0.59628   0.77012   0.00000  Uiso   1.00
H1175  H     0.42940   0.40480   0.76931   0.00000  Uiso   1.00
H1176  H     0.57059   0.59518   0.89736   0.00000  Uiso   1.00
N1177  N     0.50000   0.61907   0.83333   0.00000  Uiso   1.00
N1178  N     0.50000   0.38093   0.83333   0.00000  Uiso   1.00
O1179  O     0.43892   0.53821   0.83333   0.00000  Uiso   1.00
O1180  O     0.59509   0.48439   0.72663   0.00000  Uiso   1.00
O1181  O     0.63424   0.45849   0.95875   0.00000  Uiso   1.00
O1182  O     0.36575   0.54150   0.70791   0.00000  Uiso   1.00
O1183  O     0.53825   0.37891   0.95247   0.00000  Uiso   1.00
O1184  O     0.46174   0.62111   0.71419   0.00000  Uiso   1.00
O1185  O     0.46220   0.37860   0.71387   0.00000  Uiso   1.00
O1186  O     0.53780   0.62141   0.95280   0.00000  Uiso   1.00
O1187  O     0.56108   0.46179   0.83334   0.00000  Uiso   1.00
O1188  O     0.56108   0.53821   0.83334   0.00000  Uiso   1.00
O1189  O     0.43892   0.46179   0.83333   0.00000  Uiso   1.00
O1190  O     0.50000   0.53821   0.76178   0.00000  Uiso   1.00
O1191  O     0.50000   0.46179   0.90489   0.00000  Uiso   1.00
O1192  O     0.50000   0.53821   0.90489   0.00000  Uiso   1.00
O1193  O     0.50000   0.46179   0.76178   0.00000  Uiso   1.00
O1194  O     0.40491   0.51560   0.94004   0.00000  Uiso   1.00
Zn1195 Zn    0.50000   0.55104   0.83333   0.00000  Uiso   1.00
Zn1196 Zn    0.50000   0.44896   0.83333   0.00000  Uiso   1.00
C1197  C     0.75364   0.50012   0.83346   0.00000  Uiso   1.00
C1198  C     0.68782   0.50904   0.78784   0.00000  Uiso   1.00
C1199  C     0.95731   0.49955   0.83329   0.00000  Uiso   1.00
C1200  C     0.70936   0.50045   0.83338   0.00000  Uiso   1.00
C1201  C     0.85455   0.35726   0.87000   0.00000  Uiso   1.00
C1202  C     0.81211   0.64274   0.79667   0.00000  Uiso   1.00
C1203  C     0.81214   0.35743   0.79663   0.00000  Uiso   1.00
C1204  C     0.85453   0.64257   0.87004   0.00000  Uiso   1.00
C1205  C     0.71383   0.48654   0.92638   0.00000  Uiso   1.00
C1206  C     0.95284   0.51345   0.74029   0.00000  Uiso   1.00
C1207  C     0.95501   0.48395   0.92596   0.00000  Uiso   1.00
C1208  C     0.91303   0.49988   0.83321   0.00000  Uiso   1.00
C1209  C     0.71165   0.51605   0.74070   0.00000  Uiso   1.00
C1210  C     0.87941   0.38200   0.90798   0.00000  Uiso   1.00
C1211  C     0.78726   0.61800   0.75869   0.00000  Uiso   1.00
C1212  C     0.78761   0.38235   0.75829   0.00000  Uiso   1.00
C1213  C     0.87905   0.61765   0.90838   0.00000  Uiso   1.00
C1214  C     0.83302   0.49999   0.73967   0.00000  Uiso   1.00
C1215  C     0.83365   0.50001   0.92699   0.00000  Uiso   1.00
C1216  C     0.83319   0.49999   0.68850   0.00000  Uiso   1.00
C1217  C     0.83348   0.50001   0.97817   0.00000  Uiso   1.00
C1218  C     0.68917   0.49182   0.87884   0.00000  Uiso   1.00
C1219  C     0.97749   0.50818   0.78783   0.00000  Uiso   1.00
C1220  C     0.97885   0.49096   0.87882   0.00000  Uiso   1.00
H1221  H     0.71013   0.45714   0.94962   0.00000  Uiso   1.00
H1222  H     0.95654   0.54286   0.71704   0.00000  Uiso   1.00
H1223  H     0.92510   0.50061   0.93097   0.00000  Uiso   1.00
H1224  H     0.74157   0.49939   0.73569   0.00000  Uiso   1.00
H1225  H     0.90448   0.40371   0.89654   0.00000  Uiso   1.00
H1226  H     0.76220   0.59628   0.77012   0.00000  Uiso   1.00
H1227  H     0.76273   0.40480   0.76931   0.00000  Uiso   1.00
H1228  H     0.90392   0.59518   0.89736   0.00000  Uiso   1.00
N1229  N     0.83333   0.61907   0.83333   0.00000  Uiso   1.00
N1230  N     0.83333   0.38093   0.83333   0.00000  Uiso   1.00
O1231  O     0.77226   0.53821   0.83333   0.00000  Uiso   1.00
O1232  O     0.92842   0.48439   0.72663   0.00000  Uiso   1.00
O1233  O     0.96758   0.45849   0.95875   0.00000  Uiso   1.00
O1234  O     0.69909   0.54150   0.70791   0.00000  Uiso   1.00
O1235  O     0.87158   0.37891   0.95247   0.00000  Uiso   1.00
O1236  O     0.79507   0.62111   0.71419   0.00000  Uiso   1.00
O1237  O     0.79553   0.37860   0.71387   0.00000  Uiso   1.00
O1238  O     0.87114   0.62141   0.95280   0.00000  Uiso   1.00
O1239  O     0.89441   0.46179   0.83334   0.00000  Uiso   1.00
O1240  O     0.89441   0.53821   0.83334   0.00000  Uiso   1.00
O1241  O     0.77226   0.46179   0.83333   0.00000  Uiso   1.00
O1242  O     0.83334   0.53821   0.76178   0.00000  Uiso   1.00
O1243  O     0.83333   0.46179   0.90489   0.00000  Uiso   1.00
O1244  O     0.83333   0.53821   0.90489   0.00000  Uiso   1.00
O1245  O     0.83334   0.46179   0.76178   0.00000  Uiso   1.00
O1246  O     0.73824   0.51560   0.94004   0.00000  Uiso   1.00
Zn1247 Zn    0.83333   0.55104   0.83333   0.00000  Uiso   1.00
Zn1248 Zn    0.83333   0.44896   0.83333   0.00000  Uiso   1.00
C1249  C     0.08697   0.83345   0.83346   0.00000  Uiso   1.00
C1250  C     0.02115   0.84238   0.78784   0.00000  Uiso   1.00
C1251  C     0.29064   0.83288   0.83329   0.00000  Uiso   1.00
C1252  C     0.04269   0.83379   0.83338   0.00000  Uiso   1.00
C1253  C     0.18789   0.69059   0.87000   0.00000  Uiso   1.00
C1254  C     0.14545   0.97607   0.79667   0.00000  Uiso   1.00
C1255  C     0.14547   0.69076   0.79663   0.00000  Uiso   1.00
C1256  C     0.18786   0.97591   0.87004   0.00000  Uiso   1.00
C1257  C     0.04716   0.81988   0.92638   0.00000  Uiso   1.00
C1258  C     0.28617   0.84679   0.74029   0.00000  Uiso   1.00
C1259  C     0.28835   0.81729   0.92596   0.00000  Uiso   1.00
C1260  C     0.24636   0.83321   0.83321   0.00000  Uiso   1.00
C1261  C     0.04499   0.84938   0.74070   0.00000  Uiso   1.00
C1262  C     0.21274   0.71533   0.90798   0.00000  Uiso   1.00
C1263  C     0.12059   0.95133   0.75869   0.00000  Uiso   1.00
C1264  C     0.12095   0.71569   0.75829   0.00000  Uiso   1.00
C1265  C     0.21238   0.95098   0.90838   0.00000  Uiso   1.00
C1266  C     0.16635   0.83333   0.73967   0.00000  Uiso   1.00
C1267  C     0.16698   0.83334   0.92699   0.00000  Uiso   1.00
C1268  C     0.16652   0.83332   0.68850   0.00000  Uiso   1.00
C1269  C     0.16681   0.83334   0.97817   0.00000  Uiso   1.00
C1270  C     0.02251   0.82515   0.87884   0.00000  Uiso   1.00
C1271  C     0.31083   0.84151   0.78783   0.00000  Uiso   1.00
C1272  C     0.31218   0.82429   0.87882   0.00000  Uiso   1.00
H1273  H     0.04346   0.79047   0.94962   0.00000  Uiso   1.00
H1274  H     0.28987   0.87619   0.71704   0.00000  Uiso   1.00
H1275  H     0.25844   0.83395   0.93097   0.00000  Uiso   1.00
H1276  H     0.07490   0.83273   0.73569   0.00000  Uiso   1.00
H1277  H     0.23781   0.73704   0.89654   0.00000  Uiso   1.00
H1278  H     0.09553   0.92961   0.77012   0.00000  Uiso   1.00
H1279  H     0.09607   0.73814   0.76931   0.00000  Uiso   1.00
H1280  H     0.23725   0.92852   0.89736   0.00000  Uiso   1.00
N1281  N     0.16667   0.95240   0.83333   0.00000  Uiso   1.00
N1282  N     0.16667   0.71427   0.83333   0.00000  Uiso   1.00
O1283  O     0.10559   0.87154   0.83333   0.00000  Uiso   1.00
O1284  O     0.26175   0.81773   0.72663   0.00000  Uiso   1.00
O1285  O     0.30091   0.79183   0.95875   0.00000  Uiso   1.00
O1286  O     0.03242   0.87483   0.70791   0.00000  Uiso   1.00
O1287  O     0.20492   0.71224   0.95247   0.00000  Uiso   1.00
O1288  O     0.12841   0.95444   0.71419   0.00000  Uiso   1.00
O1289  O     0.12887   0.71194   0.71387   0.00000  Uiso   1.00
O1290  O     0.20447   0.95475   0.95280   0.00000  Uiso   1.00
O1291  O     0.22774   0.79513   0.83334   0.00000  Uiso   1.00
O1292  O     0.22774   0.87154   0.83334   0.00000  Uiso   1.00
O1293  O     0.10559   0.79513   0.83333   0.00000  Uiso   1.00
O1294  O     0.16667   0.87155   0.76178   0.00000  Uiso   1.00
O1295  O     0.16666   0.79512   0.90489   0.00000  Uiso   1.00
O1296  O     0.16666   0.87155   0.90489   0.00000  Uiso   1.00
O1297  O     0.16667   0.79512   0.76178   0.00000  Uiso   1.00
O1298  O     0.07158   0.84894   0.94004   0.00000  Uiso   1.00
Zn1299 Zn    0.16667   0.88437   0.83333   0.00000  Uiso   1.00
Zn1300 Zn    0.16667   0.78229   0.83333   0.00000  Uiso   1.00
C1301  C     0.42031   0.83345   0.83346   0.00000  Uiso   1.00
C1302  C     0.35449   0.84238   0.78784   0.00000  Uiso   1.00
C1303  C     0.62397   0.83288   0.83329   0.00000  Uiso   1.00
C1304  C     0.37603   0.83379   0.83338   0.00000  Uiso   1.00
C1305  C     0.52122   0.69059   0.87000   0.00000  Uiso   1.00
C1306  C     0.47878   0.97607   0.79667   0.00000  Uiso   1.00
C1307  C     0.47881   0.69076   0.79663   0.00000  Uiso   1.00
C1308  C     0.52119   0.97591   0.87004   0.00000  Uiso   1.00
C1309  C     0.38049   0.81988   0.92638   0.00000  Uiso   1.00
C1310  C     0.61951   0.84679   0.74029   0.00000  Uiso   1.00
C1311  C     0.62168   0.81729   0.92596   0.00000  Uiso   1.00
C1312  C     0.57969   0.83321   0.83321   0.00000  Uiso   1.00
C1313  C     0.37832   0.84938   0.74070   0.00000  Uiso   1.00
C1314  C     0.54607   0.71533   0.90798   0.00000  Uiso   1.00
C1315  C     0.45393   0.95133   0.75869   0.00000  Uiso   1.00
C1316  C     0.45428   0.71569   0.75829   0.00000  Uiso   1.00
C1317  C     0.54572   0.95098   0.90838   0.00000  Uiso   1.00
C1318  C     0.49968   0.83333   0.73967   0.00000  Uiso   1.00
C1319  C     0.50032   0.83334   0.92699   0.00000  Uiso   1.00
C1320  C     0.49985   0.83332   0.68850   0.00000  Uiso   1.00
C1321  C     0.50015   0.83334   0.97817   0.00000  Uiso   1.00
C1322  C     0.35584   0.82515   0.87884   0.00000  Uiso   1.00
C1323  C     0.64416   0.84151   0.78783   0.00000  Uiso   1.00
C1324  C     0.64551   0.82429   0.87882   0.00000  Uiso   1.00
H1325  H     0.37679   0.79047   0.94962   0.00000  Uiso   1.00
H1326  H     0.62321   0.87619   0.71704   0.00000  Uiso   1.00
H1327  H     0.59177   0.83395   0.93097   0.00000  Uiso   1.00
H1328  H     0.40823   0.83273   0.73569   0.00000  Uiso   1.00
H1329  H     0.57114   0.73704   0.89654   0.00000  Uiso   1.00
H1330  H     0.42887   0.92961   0.77012   0.00000  Uiso   1.00
H1331  H     0.42940   0.73814   0.76931   0.00000  Uiso   1.00
H1332  H     0.57059   0.92852   0.89736   0.00000  Uiso   1.00
N1333  N     0.50000   0.95240   0.83333   0.00000  Uiso   1.00
N1334  N     0.50000   0.71427   0.83333   0.00000  Uiso   1.00
O1335  O     0.43892   0.87154   0.83333   0.00000  Uiso   1.00
O1336  O     0.59509   0.81773   0.72663   0.00000  Uiso   1.00
O1337  O     0.63424   0.79183   0.95875   0.00000  Uiso   1.00
O1338  O     0.36575   0.87483   0.70791   0.00000  Uiso   1.00
O1339  O     0.53825   0.71224   0.95247   0.00000  Uiso   1.00
O1340  O     0.46174   0.95444   0.71419   0.00000  Uiso   1.00
O1341  O     0.46220   0.71194   0.71387   0.00000  Uiso   1.00
O1342  O     0.53780   0.95475   0.95280   0.00000  Uiso   1.00
O1343  O     0.56108   0.79513   0.83334   0.00000  Uiso   1.00
O1344  O     0.56108   0.87154   0.83334   0.00000  Uiso   1.00
O1345  O     0.43892   0.79513   0.83333   0.00000  Uiso   1.00
O1346  O     0.50000   0.87155   0.76178   0.00000  Uiso   1.00
O1347  O     0.50000   0.79512   0.90489   0.00000  Uiso   1.00
O1348  O     0.50000   0.87155   0.90489   0.00000  Uiso   1.00
O1349  O     0.50000   0.79512   0.76178   0.00000  Uiso   1.00
O1350  O     0.40491   0.84894   0.94004   0.00000  Uiso   1.00
Zn1351 Zn    0.50000   0.88437   0.83333   0.00000  Uiso   1.00
Zn1352 Zn    0.50000   0.78229   0.83333   0.00000  Uiso   1.00
C1353  C     0.75364   0.83345   0.83346   0.00000  Uiso   1.00
C1354  C     0.68782   0.84238   0.78784   0.00000  Uiso   1.00
C1355  C     0.95731   0.83288   0.83329   0.00000  Uiso   1.00
C1356  C     0.70936   0.83379   0.83338   0.00000  Uiso   1.00
C1357  C     0.85455   0.69059   0.87000   0.00000  Uiso   1.00
C1358  C     0.81211   0.97607   0.79667   0.00000  Uiso   1.00
C1359  C     0.81214   0.69076   0.79663   0.00000  Uiso   1.00
C1360  C     0.85453   0.97591   0.87004   0.00000  Uiso   1.00
C1361  C     0.71383   0.81988   0.92638   0.00000  Uiso   1.00
C1362  C     0.95284   0.84679   0.74029   0.00000  Uiso   1.00
C1363  C     0.95501   0.81729   0.92596   0.00000  Uiso   1.00
C1364  C     0.91303   0.83321   0.83321   0.00000  Uiso   1.00
C1365  C     0.71165   0.84938   0.74070   0.00000  Uiso   1.00
C1366  C     0.87941   0.71533   0.90798   0.00000  Uiso   1.00
C1367  C     0.78726   0.95133   0.75869   0.00000  Uiso   1.00
C1368  C     0.78761   0.71569   0.75829   0.00000  Uiso   1.00
C1369  C     0.87905   0.95098   0.90838   0.00000  Uiso   1.00
C1370  C     0.83302   0.83333   0.73967   0.00000  Uiso   1.00
C1371  C     0.83365   0.83334   0.92699   0.00000  Uiso   1.00
C1372  C     0.83319   0.83332   0.68850   0.00000  Uiso   1.00
C1373  C     0.83348   0.83334   0.97817   0.00000  Uiso   1.00
C1374  C     0.68917   0.82515   0.87884   0.00000  Uiso   1.00
C1375  C     0.97749   0.84151   0.78783   0.00000  Uiso   1.00
C1376  C     0.97885   0.82429   0.87882   0.00000  Uiso   1.00
H1377  H     0.71013   0.79047   0.94962   0.00000  Uiso   1.00
H1378  H     0.95654   0.87619   0.71704   0.00000  Uiso   1.00
H1379  H     0.92510   0.83395   0.93097   0.00000  Uiso   1.00
H1380  H     0.74157   0.83273   0.73569   0.00000  Uiso   1.00
H1381  H     0.90448   0.73704   0.89654   0.00000  Uiso   1.00
H1382  H     0.76220   0.92961   0.77012   0.00000  Uiso   1.00
H1383  H     0.76273   0.73814   0.76931   0.00000  Uiso   1.00
H1384  H     0.90392   0.92852   0.89736   0.00000  Uiso   1.00
N1385  N     0.83333   0.95240   0.83333   0.00000  Uiso   1.00
N1386  N     0.83333   0.71427   0.83333   0.00000  Uiso   1.00
O1387  O     0.77226   0.87154   0.83333   0.00000  Uiso   1.00
O1388  O     0.92842   0.81773   0.72663   0.00000  Uiso   1.00
O1389  O     0.96758   0.79183   0.95875   0.00000  Uiso   1.00
O1390  O     0.69909   0.87483   0.70791   0.00000  Uiso   1.00
O1391  O     0.87158   0.71224   0.95247   0.00000  Uiso   1.00
O1392  O     0.79507   0.95444   0.71419   0.00000  Uiso   1.00
O1393  O     0.79553   0.71194   0.71387   0.00000  Uiso   1.00
O1394  O     0.87114   0.95475   0.95280   0.00000  Uiso   1.00
O1395  O     0.89441   0.79513   0.83334   0.00000  Uiso   1.00
O1396  O     0.89441   0.87154   0.83334   0.00000  Uiso   1.00
O1397  O     0.77226   0.79513   0.83333   0.00000  Uiso   1.00
O1398  O     0.83334   0.87155   0.76178   0.00000  Uiso   1.00
O1399  O     0.83333   0.79512   0.90489   0.00000  Uiso   1.00
O1400  O     0.83333   0.87155   0.90489   0.00000  Uiso   1.00
O1401  O     0.83334   0.79512   0.76178   0.00000  Uiso   1.00
O1402  O     0.73824   0.84894   0.94004   0.00000  Uiso   1.00
Zn1403 Zn    0.83333   0.88437   0.83333   0.00000  Uiso   1.00
Zn1404 Zn    0.83333   0.78229   0.83333   0.00000  Uiso   1.00
loop_
_geom_bond_atom_site_label_1
_geom_bond_atom_site_label_2
_geom_bond_distance
_geom_bond_site_symmetry_2
_ccdc_geom_bond_type
C1     O45     1.287   .     A
C1     C4      1.413   .     S
C1     O35     1.286   .     A
C2     C4      1.407   .     A
C2     C13     1.496   .     S
C2     C127    1.393   1_455 S
C3     C23     1.408   .     A
C3     C24     1.407   .     A
C3     C12     1.413   .     S
C4     C22     1.408   .     A
C5     N34     1.373   .     A
C5     C14     1.475   .     S
C5     C320    1.434   1_545 S
C6     N33     1.373   .     A
C6     C15     1.475   .     S
C6     C163    1.434   .     S
C7     C16     1.476   .     S
C7     N34     1.374   .     A
C7     C318    1.434   1_545 S
C8     C17     1.476   .     S
C8     N33     1.374   .     A
C8     C161    1.434   .     S
C9     H25     1.084   .     S
C9     C22     1.487   .     S
C9     O50     1.220   .     D
C10    C23     1.487   .     S
C10    H26     1.084   .     S
C10    O36     1.220   .     D
C11    H27     1.084   .     S
C11    C24     1.496   .     S
C11    O37     1.220   .     D
C12    O44     1.287   .     A
C12    O43     1.286   .     A
C13    H28     1.084   .     S
C13    O38     1.220   .     D
C14    H29     1.081   .     S
C14    O39     1.220   .     D
C15    O40     1.220   .     D
C15    H30     1.081   .     S
C16    H31     1.081   .     S
C16    O41     1.220   .     D
C17    H32     1.081   .     S
C17    O42     1.220   .     D
C18    O46     1.284   .     A
C18    C20     1.365   .     S
C18    O49     1.285   .     A
C19    C21     1.365   .     S
C19    O47     1.284   .     A
C19    O48     1.285   .     A
C20    C957    1.164   1_554 S
C21    C488    1.164   .     S
C22    C128    1.393   1_455 S
C23    C54     1.393   .     S
C24    C74     1.393   .     S
N33    Zn51    2.032   .     S
N34    Zn52    2.032   .     S
O35    Zn51    1.988   .     S
O43    Zn52    1.988   .     S
O44    Zn51    1.984   .     S
O45    Zn52    1.984   .     S
O46    Zn51    1.945   .     S
O47    Zn52    1.945   .     S
O48    Zn51    1.946   .     S
O49    Zn52    1.946   .     S
C53    O97     1.287   .     A
C53    C56     1.413   .     S
C53    O87     1.286   .     A
C54    C56     1.407   .     A
C54    C65     1.496   .     S
C55    C75     1.408   .     A
C55    C76     1.407   .     A
C55    C64     1.413   .     S
C56    C74     1.408   .     A
C57    N86     1.373   .     A
C57    C66     1.475   .     S
C57    C372    1.434   1_545 S
C58    N85     1.373   .     A
C58    C67     1.475   .     S
C58    C215    1.434   .     S
C59    C68     1.476   .     S
C59    N86     1.374   .     A
C59    C370    1.434   1_545 S
C60    C69     1.476   .     S
C60    N85     1.374   .     A
C60    C213    1.434   .     S
C61    H77     1.084   .     S
C61    C74     1.487   .     S
C61    O102    1.220   .     D
C62    C75     1.487   .     S
C62    H78     1.084   .     S
C62    O88     1.220   .     D
C63    H79     1.084   .     S
C63    C76     1.496   .     S
C63    O89     1.220   .     D
C64    O96     1.287   .     A
C64    O95     1.286   .     A
C65    H80     1.084   .     S
C65    O90     1.220   .     D
C66    H81     1.081   .     S
C66    O91     1.220   .     D
C67    O92     1.220   .     D
C67    H82     1.081   .     S
C68    H83     1.081   .     S
C68    O93     1.220   .     D
C69    H84     1.081   .     S
C69    O94     1.220   .     D
C70    O98     1.284   .     A
C70    C72     1.365   .     S
C70    O101    1.285   .     A
C71    C73     1.365   .     S
C71    O99     1.284   .     A
C71    O100    1.285   .     A
C72    C1009   1.164   1_554 S
C73    C540    1.164   .     S
C75    C106    1.393   .     S
C76    C126    1.393   .     S
N85    Zn103   2.032   .     S
N86    Zn104   2.032   .     S
O87    Zn103   1.988   .     S
O95    Zn104   1.988   .     S
O96    Zn103   1.984   .     S
O97    Zn104   1.984   .     S
O98    Zn103   1.945   .     S
O99    Zn104   1.945   .     S
O100   Zn103   1.946   .     S
O101   Zn104   1.946   .     S
C105   O149    1.287   .     A
C105   C108    1.413   .     S
C105   O139    1.286   .     A
C106   C108    1.407   .     A
C106   C117    1.496   .     S
C107   C127    1.408   .     A
C107   C128    1.407   .     A
C107   C116    1.413   .     S
C108   C126    1.408   .     A
C109   N138    1.373   .     A
C109   C118    1.475   .     S
C109   C424    1.434   1_545 S
C110   N137    1.373   .     A
C110   C119    1.475   .     S
C110   C267    1.434   .     S
C111   C120    1.476   .     S
C111   N138    1.374   .     A
C111   C422    1.434   1_545 S
C112   C121    1.476   .     S
C112   N137    1.374   .     A
C112   C265    1.434   .     S
C113   H129    1.084   .     S
C113   C126    1.487   .     S
C113   O154    1.220   .     D
C114   C127    1.487   .     S
C114   H130    1.084   .     S
C114   O140    1.220   .     D
C115   H131    1.084   .     S
C115   C128    1.496   .     S
C115   O141    1.220   .     D
C116   O148    1.287   .     A
C116   O147    1.286   .     A
C117   H132    1.084   .     S
C117   O142    1.220   .     D
C118   H133    1.081   .     S
C118   O143    1.220   .     D
C119   O144    1.220   .     D
C119   H134    1.081   .     S
C120   H135    1.081   .     S
C120   O145    1.220   .     D
C121   H136    1.081   .     S
C121   O146    1.220   .     D
C122   O150    1.284   .     A
C122   C124    1.365   .     S
C122   O153    1.285   .     A
C123   C125    1.365   .     S
C123   O151    1.284   .     A
C123   O152    1.285   .     A
C124   C1061   1.164   1_554 S
C125   C592    1.164   .     S
C127   C2      1.393   1_655 S
C128   C22     1.393   1_655 S
N137   Zn155   2.032   .     S
N138   Zn156   2.032   .     S
O139   Zn155   1.988   .     S
O147   Zn156   1.988   .     S
O148   Zn155   1.984   .     S
O149   Zn156   1.984   .     S
O150   Zn155   1.945   .     S
O151   Zn156   1.945   .     S
O152   Zn155   1.946   .     S
O153   Zn156   1.946   .     S
C157   O201    1.287   .     A
C157   C160    1.413   .     S
C157   O191    1.286   .     A
C158   C160    1.407   .     A
C158   C169    1.496   .     S
C158   C283    1.393   1_455 S
C159   C179    1.408   .     A
C159   C180    1.407   .     A
C159   C168    1.413   .     S
C160   C178    1.408   .     A
C161   N190    1.373   .     A
C161   C170    1.475   .     S
C162   N189    1.373   .     A
C162   C171    1.475   .     S
C162   C319    1.434   .     S
C163   C172    1.476   .     S
C163   N190    1.374   .     A
C164   C173    1.476   .     S
C164   N189    1.374   .     A
C164   C317    1.434   .     S
C165   H181    1.084   .     S
C165   C178    1.487   .     S
C165   O206    1.220   .     D
C166   C179    1.487   .     S
C166   H182    1.084   .     S
C166   O192    1.220   .     D
C167   H183    1.084   .     S
C167   C180    1.496   .     S
C167   O193    1.220   .     D
C168   O200    1.287   .     A
C168   O199    1.286   .     A
C169   H184    1.084   .     S
C169   O194    1.220   .     D
C170   H185    1.081   .     S
C170   O195    1.220   .     D
C171   O196    1.220   .     D
C171   H186    1.081   .     S
C172   H187    1.081   .     S
C172   O197    1.220   .     D
C173   H188    1.081   .     S
C173   O198    1.220   .     D
C174   O202    1.284   .     A
C174   C176    1.365   .     S
C174   O205    1.285   .     A
C175   C177    1.365   .     S
C175   O203    1.284   .     A
C175   O204    1.285   .     A
C176   C1113   1.164   1_554 S
C177   C644    1.164   .     S
C178   C284    1.393   1_455 S
C179   C210    1.393   .     S
C180   C230    1.393   .     S
N189   Zn207   2.032   .     S
N190   Zn208   2.032   .     S
O191   Zn207   1.988   .     S
O199   Zn208   1.988   .     S
O200   Zn207   1.984   .     S
O201   Zn208   1.984   .     S
O202   Zn207   1.945   .     S
O203   Zn208   1.945   .     S
O204   Zn207   1.946   .     S
O205   Zn208   1.946   .     S
C209   O253    1.287   .     A
C209   C212    1.413   .     S
C209   O243    1.286   .     A
C210   C212    1.407   .     A
C210   C221    1.496   .     S
C211   C231    1.408   .     A
C211   C232    1.407   .     A
C211   C220    1.413   .     S
C212   C230    1.408   .     A
C213   N242    1.373   .     A
C213   C222    1.475   .     S
C214   N241    1.373   .     A
C214   C223    1.475   .     S
C214   C371    1.434   .     S
C215   C224    1.476   .     S
C215   N242    1.374   .     A
C216   C225    1.476   .     S
C216   N241    1.374   .     A
C216   C369    1.434   .     S
C217   H233    1.084   .     S
C217   C230    1.487   .     S
C217   O258    1.220   .     D
C218   C231    1.487   .     S
C218   H234    1.084   .     S
C218   O244    1.220   .     D
C219   H235    1.084   .     S
C219   C232    1.496   .     S
C219   O245    1.220   .     D
C220   O252    1.287   .     A
C220   O251    1.286   .     A
C221   H236    1.084   .     S
C221   O246    1.220   .     D
C222   H237    1.081   .     S
C222   O247    1.220   .     D
C223   O248    1.220   .     D
C223   H238    1.081   .     S
C224   H239    1.081   .     S
C224   O249    1.220   .     D
C225   H240    1.081   .     S
C225   O250    1.220   .     D
C226   O254    1.284   .     A
C226   C228    1.365   .     S
C226   O257    1.285   .     A
C227   C229    1.365   .     S
C227   O255    1.284   .     A
C227   O256    1.285   .     A
C228   C1165   1.164   1_554 S
C229   C696    1.164   .     S
C231   C262    1.393   .     S
C232   C282    1.393   .     S
N241   Zn259   2.032   .     S
N242   Zn260   2.032   .     S
O243   Zn259   1.988   .     S
O251   Zn260   1.988   .     S
O252   Zn259   1.984   .     S
O253   Zn260   1.984   .     S
O254   Zn259   1.945   .     S
O255   Zn260   1.945   .     S
O256   Zn259   1.946   .     S
O257   Zn260   1.946   .     S
C261   O305    1.287   .     A
C261   C264    1.413   .     S
C261   O295    1.286   .     A
C262   C264    1.407   .     A
C262   C273    1.496   .     S
C263   C283    1.408   .     A
C263   C284    1.407   .     A
C263   C272    1.413   .     S
C264   C282    1.408   .     A
C265   N294    1.373   .     A
C265   C274    1.475   .     S
C266   N293    1.373   .     A
C266   C275    1.475   .     S
C266   C423    1.434   .     S
C267   C276    1.476   .     S
C267   N294    1.374   .     A
C268   C277    1.476   .     S
C268   N293    1.374   .     A
C268   C421    1.434   .     S
C269   H285    1.084   .     S
C269   C282    1.487   .     S
C269   O310    1.220   .     D
C270   C283    1.487   .     S
C270   H286    1.084   .     S
C270   O296    1.220   .     D
C271   H287    1.084   .     S
C271   C284    1.496   .     S
C271   O297    1.220   .     D
C272   O304    1.287   .     A
C272   O303    1.286   .     A
C273   H288    1.084   .     S
C273   O298    1.220   .     D
C274   H289    1.081   .     S
C274   O299    1.220   .     D
C275   O300    1.220   .     D
C275   H290    1.081   .     S
C276   H291    1.081   .     S
C276   O301    1.220   .     D
C277   H292    1.081   .     S
C277   O302    1.220   .     D
C278   O306    1.284   .     A
C278   C280    1.365   .     S
C278   O309    1.285   .     A
C279   C281    1.365   .     S
C279   O307    1.284   .     A
C279   O308    1.285   .     A
C280   C1217   1.164   1_554 S
C281   C748    1.164   .     S
C283   C158    1.393   1_655 S
C284   C178    1.393   1_655 S
N293   Zn311   2.032   .     S
N294   Zn312   2.032   .     S
O295   Zn311   1.988   .     S
O303   Zn312   1.988   .     S
O304   Zn311   1.984   .     S
O305   Zn312   1.984   .     S
O306   Zn311   1.945   .     S
O307   Zn312   1.945   .     S
O308   Zn311   1.946   .     S
O309   Zn312   1.946   .     S
C313   O357    1.287   .     A
C313   C316    1.413   .     S
C313   O347    1.286   .     A
C314   C316    1.407   .     A
C314   C325    1.496   .     S
C314   C439    1.393   1_455 S
C315   C335    1.408   .     A
C315   C336    1.407   .     A
C315   C324    1.413   .     S
C316   C334    1.408   .     A
C317   N346    1.373   .     A
C317   C326    1.475   .     S
C318   N345    1.373   .     A
C318   C327    1.475   .     S
C318   C7      1.434   1_565 S
C319   C328    1.476   .     S
C319   N346    1.374   .     A
C320   C329    1.476   .     S
C320   N345    1.374   .     A
C320   C5      1.434   1_565 S
C321   H337    1.084   .     S
C321   C334    1.487   .     S
C321   O362    1.220   .     D
C322   C335    1.487   .     S
C322   H338    1.084   .     S
C322   O348    1.220   .     D
C323   H339    1.084   .     S
C323   C336    1.496   .     S
C323   O349    1.220   .     D
C324   O356    1.287   .     A
C324   O355    1.286   .     A
C325   H340    1.084   .     S
C325   O350    1.220   .     D
C326   H341    1.081   .     S
C326   O351    1.220   .     D
C327   O352    1.220   .     D
C327   H342    1.081   .     S
C328   H343    1.081   .     S
C328   O353    1.220   .     D
C329   H344    1.081   .     S
C329   O354    1.220   .     D
C330   O358    1.284   .     A
C330   C332    1.365   .     S
C330   O361    1.285   .     A
C331   C333    1.365   .     S
C331   O359    1.284   .     A
C331   O360    1.285   .     A
C332   C1269   1.164   1_554 S
C333   C800    1.164   .     S
C334   C440    1.393   1_455 S
C335   C366    1.393   .     S
C336   C386    1.393   .     S
N345   Zn363   2.032   .     S
N346   Zn364   2.032   .     S
O347   Zn363   1.988   .     S
O355   Zn364   1.988   .     S
O356   Zn363   1.984   .     S
O357   Zn364   1.984   .     S
O358   Zn363   1.945   .     S
O359   Zn364   1.945   .     S
O360   Zn363   1.946   .     S
O361   Zn364   1.946   .     S
C365   O409    1.287   .     A
C365   C368    1.413   .     S
C365   O399    1.286   .     A
C366   C368    1.407   .     A
C366   C377    1.496   .     S
C367   C387    1.408   .     A
C367   C388    1.407   .     A
C367   C376    1.413   .     S
C368   C386    1.408   .     A
C369   N398    1.373   .     A
C369   C378    1.475   .     S
C370   N397    1.373   .     A
C370   C379    1.475   .     S
C370   C59     1.434   1_565 S
C371   C380    1.476   .     S
C371   N398    1.374   .     A
C372   C381    1.476   .     S
C372   N397    1.374   .     A
C372   C57     1.434   1_565 S
C373   H389    1.084   .     S
C373   C386    1.487   .     S
C373   O414    1.220   .     D
C374   C387    1.487   .     S
C374   H390    1.084   .     S
C374   O400    1.220   .     D
C375   H391    1.084   .     S
C375   C388    1.496   .     S
C375   O401    1.220   .     D
C376   O408    1.287   .     A
C376   O407    1.286   .     A
C377   H392    1.084   .     S
C377   O402    1.220   .     D
C378   H393    1.081   .     S
C378   O403    1.220   .     D
C379   O404    1.220   .     D
C379   H394    1.081   .     S
C380   H395    1.081   .     S
C380   O405    1.220   .     D
C381   H396    1.081   .     S
C381   O406    1.220   .     D
C382   O410    1.284   .     A
C382   C384    1.365   .     S
C382   O413    1.285   .     A
C383   C385    1.365   .     S
C383   O411    1.284   .     A
C383   O412    1.285   .     A
C384   C1321   1.164   1_554 S
C385   C852    1.164   .     S
C387   C418    1.393   .     S
C388   C438    1.393   .     S
N397   Zn415   2.032   .     S
N398   Zn416   2.032   .     S
O399   Zn415   1.988   .     S
O407   Zn416   1.988   .     S
O408   Zn415   1.984   .     S
O409   Zn416   1.984   .     S
O410   Zn415   1.945   .     S
O411   Zn416   1.945   .     S
O412   Zn415   1.946   .     S
O413   Zn416   1.946   .     S
C417   O461    1.287   .     A
C417   C420    1.413   .     S
C417   O451    1.286   .     A
C418   C420    1.407   .     A
C418   C429    1.496   .     S
C419   C439    1.408   .     A
C419   C440    1.407   .     A
C419   C428    1.413   .     S
C420   C438    1.408   .     A
C421   N450    1.373   .     A
C421   C430    1.475   .     S
C422   N449    1.373   .     A
C422   C431    1.475   .     S
C422   C111    1.434   1_565 S
C423   C432    1.476   .     S
C423   N450    1.374   .     A
C424   C433    1.476   .     S
C424   N449    1.374   .     A
C424   C109    1.434   1_565 S
C425   H441    1.084   .     S
C425   C438    1.487   .     S
C425   O466    1.220   .     D
C426   C439    1.487   .     S
C426   H442    1.084   .     S
C426   O452    1.220   .     D
C427   H443    1.084   .     S
C427   C440    1.496   .     S
C427   O453    1.220   .     D
C428   O460    1.287   .     A
C428   O459    1.286   .     A
C429   H444    1.084   .     S
C429   O454    1.220   .     D
C430   H445    1.081   .     S
C430   O455    1.220   .     D
C431   O456    1.220   .     D
C431   H446    1.081   .     S
C432   H447    1.081   .     S
C432   O457    1.220   .     D
C433   H448    1.081   .     S
C433   O458    1.220   .     D
C434   O462    1.284   .     A
C434   C436    1.365   .     S
C434   O465    1.285   .     A
C435   C437    1.365   .     S
C435   O463    1.284   .     A
C435   O464    1.285   .     A
C436   C1373   1.164   1_554 S
C437   C904    1.164   .     S
C439   C314    1.393   1_655 S
C440   C334    1.393   1_655 S
N449   Zn467   2.032   .     S
N450   Zn468   2.032   .     S
O451   Zn467   1.988   .     S
O459   Zn468   1.988   .     S
O460   Zn467   1.984   .     S
O461   Zn468   1.984   .     S
O462   Zn467   1.945   .     S
O463   Zn468   1.945   .     S
O464   Zn467   1.946   .     S
O465   Zn468   1.946   .     S
C469   O513    1.287   .     A
C469   C472    1.413   .     S
C469   O503    1.286   .     A
C470   C472    1.407   .     A
C470   C481    1.496   .     S
C470   C595    1.393   1_455 S
C471   C491    1.408   .     A
C471   C492    1.407   .     A
C471   C480    1.413   .     S
C472   C490    1.408   .     A
C473   N502    1.373   .     A
C473   C482    1.475   .     S
C473   C788    1.434   1_545 S
C474   N501    1.373   .     A
C474   C483    1.475   .     S
C474   C631    1.434   .     S
C475   C484    1.476   .     S
C475   N502    1.374   .     A
C475   C786    1.434   1_545 S
C476   C485    1.476   .     S
C476   N501    1.374   .     A
C476   C629    1.434   .     S
C477   H493    1.084   .     S
C477   C490    1.487   .     S
C477   O518    1.220   .     D
C478   C491    1.487   .     S
C478   H494    1.084   .     S
C478   O504    1.220   .     D
C479   H495    1.084   .     S
C479   C492    1.496   .     S
C479   O505    1.220   .     D
C480   O512    1.287   .     A
C480   O511    1.286   .     A
C481   H496    1.084   .     S
C481   O506    1.220   .     D
C482   H497    1.081   .     S
C482   O507    1.220   .     D
C483   O508    1.220   .     D
C483   H498    1.081   .     S
C484   H499    1.081   .     S
C484   O509    1.220   .     D
C485   H500    1.081   .     S
C485   O510    1.220   .     D
C486   O514    1.284   .     A
C486   C488    1.365   .     S
C486   O517    1.285   .     A
C487   C489    1.365   .     S
C487   O515    1.284   .     A
C487   O516    1.285   .     A
C489   C956    1.164   .     S
C490   C596    1.393   1_455 S
C491   C522    1.393   .     S
C492   C542    1.393   .     S
N501   Zn519   2.032   .     S
N502   Zn520   2.032   .     S
O503   Zn519   1.988   .     S
O511   Zn520   1.988   .     S
O512   Zn519   1.984   .     S
O513   Zn520   1.984   .     S
O514   Zn519   1.945   .     S
O515   Zn520   1.945   .     S
O516   Zn519   1.946   .     S
O517   Zn520   1.946   .     S
C521   O565    1.287   .     A
C521   C524    1.413   .     S
C521   O555    1.286   .     A
C522   C524    1.407   .     A
C522   C533    1.496   .     S
C523   C543    1.408   .     A
C523   C544    1.407   .     A
C523   C532    1.413   .     S
C524   C542    1.408   .     A
C525   N554    1.373   .     A
C525   C534    1.475   .     S
C525   C840    1.434   1_545 S
C526   N553    1.373   .     A
C526   C535    1.475   .     S
C526   C683    1.434   .     S
C527   C536    1.476   .     S
C527   N554    1.374   .     A
C527   C838    1.434   1_545 S
C528   C537    1.476   .     S
C528   N553    1.374   .     A
C528   C681    1.434   .     S
C529   H545    1.084   .     S
C529   C542    1.487   .     S
C529   O570    1.220   .     D
C530   C543    1.487   .     S
C530   H546    1.084   .     S
C530   O556    1.220   .     D
C531   H547    1.084   .     S
C531   C544    1.496   .     S
C531   O557    1.220   .     D
C532   O564    1.287   .     A
C532   O563    1.286   .     A
C533   H548    1.084   .     S
C533   O558    1.220   .     D
C534   H549    1.081   .     S
C534   O559    1.220   .     D
C535   O560    1.220   .     D
C535   H550    1.081   .     S
C536   H551    1.081   .     S
C536   O561    1.220   .     D
C537   H552    1.081   .     S
C537   O562    1.220   .     D
C538   O566    1.284   .     A
C538   C540    1.365   .     S
C538   O569    1.285   .     A
C539   C541    1.365   .     S
C539   O567    1.284   .     A
C539   O568    1.285   .     A
C541   C1008   1.164   .     S
C543   C574    1.393   .     S
C544   C594    1.393   .     S
N553   Zn571   2.032   .     S
N554   Zn572   2.032   .     S
O555   Zn571   1.988   .     S
O563   Zn572   1.988   .     S
O564   Zn571   1.984   .     S
O565   Zn572   1.984   .     S
O566   Zn571   1.945   .     S
O567   Zn572   1.945   .     S
O568   Zn571   1.946   .     S
O569   Zn572   1.946   .     S
C573   O617    1.287   .     A
C573   C576    1.413   .     S
C573   O607    1.286   .     A
C574   C576    1.407   .     A
C574   C585    1.496   .     S
C575   C595    1.408   .     A
C575   C596    1.407   .     A
C575   C584    1.413   .     S
C576   C594    1.408   .     A
C577   N606    1.373   .     A
C577   C586    1.475   .     S
C577   C892    1.434   1_545 S
C578   N605    1.373   .     A
C578   C587    1.475   .     S
C578   C735    1.434   .     S
C579   C588    1.476   .     S
C579   N606    1.374   .     A
C579   C890    1.434   1_545 S
C580   C589    1.476   .     S
C580   N605    1.374   .     A
C580   C733    1.434   .     S
C581   H597    1.084   .     S
C581   C594    1.487   .     S
C581   O622    1.220   .     D
C582   C595    1.487   .     S
C582   H598    1.084   .     S
C582   O608    1.220   .     D
C583   H599    1.084   .     S
C583   C596    1.496   .     S
C583   O609    1.220   .     D
C584   O616    1.287   .     A
C584   O615    1.286   .     A
C585   H600    1.084   .     S
C585   O610    1.220   .     D
C586   H601    1.081   .     S
C586   O611    1.220   .     D
C587   O612    1.220   .     D
C587   H602    1.081   .     S
C588   H603    1.081   .     S
C588   O613    1.220   .     D
C589   H604    1.081   .     S
C589   O614    1.220   .     D
C590   O618    1.284   .     A
C590   C592    1.365   .     S
C590   O621    1.285   .     A
C591   C593    1.365   .     S
C591   O619    1.284   .     A
C591   O620    1.285   .     A
C593   C1060   1.164   .     S
C595   C470    1.393   1_655 S
C596   C490    1.393   1_655 S
N605   Zn623   2.032   .     S
N606   Zn624   2.032   .     S
O607   Zn623   1.988   .     S
O615   Zn624   1.988   .     S
O616   Zn623   1.984   .     S
O617   Zn624   1.984   .     S
O618   Zn623   1.945   .     S
O619   Zn624   1.945   .     S
O620   Zn623   1.946   .     S
O621   Zn624   1.946   .     S
C625   O669    1.287   .     A
C625   C628    1.413   .     S
C625   O659    1.286   .     A
C626   C628    1.407   .     A
C626   C637    1.496   .     S
C626   C751    1.393   1_455 S
C627   C647    1.408   .     A
C627   C648    1.407   .     A
C627   C636    1.413   .     S
C628   C646    1.408   .     A
C629   N658    1.373   .     A
C629   C638    1.475   .     S
C630   N657    1.373   .     A
C630   C639    1.475   .     S
C630   C787    1.434   .     S
C631   C640    1.476   .     S
C631   N658    1.374   .     A
C632   C641    1.476   .     S
C632   N657    1.374   .     A
C632   C785    1.434   .     S
C633   H649    1.084   .     S
C633   C646    1.487   .     S
C633   O674    1.220   .     D
C634   C647    1.487   .     S
C634   H650    1.084   .     S
C634   O660    1.220   .     D
C635   H651    1.084   .     S
C635   C648    1.496   .     S
C635   O661    1.220   .     D
C636   O668    1.287   .     A
C636   O667    1.286   .     A
C637   H652    1.084   .     S
C637   O662    1.220   .     D
C638   H653    1.081   .     S
C638   O663    1.220   .     D
C639   O664    1.220   .     D
C639   H654    1.081   .     S
C640   H655    1.081   .     S
C640   O665    1.220   .     D
C641   H656    1.081   .     S
C641   O666    1.220   .     D
C642   O670    1.284   .     A
C642   C644    1.365   .     S
C642   O673    1.285   .     A
C643   C645    1.365   .     S
C643   O671    1.284   .     A
C643   O672    1.285   .     A
C645   C1112   1.164   .     S
C646   C752    1.393   1_455 S
C647   C678    1.393   .     S
C648   C698    1.393   .     S
N657   Zn675   2.032   .     S
N658   Zn676   2.032   .     S
O659   Zn675   1.988   .     S
O667   Zn676   1.988   .     S
O668   Zn675   1.984   .     S
O669   Zn676   1.984   .     S
O670   Zn675   1.945   .     S
O671   Zn676   1.945   .     S
O672   Zn675   1.946   .     S
O673   Zn676   1.946   .     S
C677   O721    1.287   .     A
C677   C680    1.413   .     S
C677   O711    1.286   .     A
C678   C680    1.407   .     A
C678   C689    1.496   .     S
C679   C699    1.408   .     A
C679   C700    1.407   .     A
C679   C688    1.413   .     S
C680   C698    1.408   .     A
C681   N710    1.373   .     A
C681   C690    1.475   .     S
C682   N709    1.373   .     A
C682   C691    1.475   .     S
C682   C839    1.434   .     S
C683   C692    1.476   .     S
C683   N710    1.374   .     A
C684   C693    1.476   .     S
C684   N709    1.374   .     A
C684   C837    1.434   .     S
C685   H701    1.084   .     S
C685   C698    1.487   .     S
C685   O726    1.220   .     D
C686   C699    1.487   .     S
C686   H702    1.084   .     S
C686   O712    1.220   .     D
C687   H703    1.084   .     S
C687   C700    1.496   .     S
C687   O713    1.220   .     D
C688   O720    1.287   .     A
C688   O719    1.286   .     A
C689   H704    1.084   .     S
C689   O714    1.220   .     D
C690   H705    1.081   .     S
C690   O715    1.220   .     D
C691   O716    1.220   .     D
C691   H706    1.081   .     S
C692   H707    1.081   .     S
C692   O717    1.220   .     D
C693   H708    1.081   .     S
C693   O718    1.220   .     D
C694   O722    1.284   .     A
C694   C696    1.365   .     S
C694   O725    1.285   .     A
C695   C697    1.365   .     S
C695   O723    1.284   .     A
C695   O724    1.285   .     A
C697   C1164   1.164   .     S
C699   C730    1.393   .     S
C700   C750    1.393   .     S
N709   Zn727   2.032   .     S
N710   Zn728   2.032   .     S
O711   Zn727   1.988   .     S
O719   Zn728   1.988   .     S
O720   Zn727   1.984   .     S
O721   Zn728   1.984   .     S
O722   Zn727   1.945   .     S
O723   Zn728   1.945   .     S
O724   Zn727   1.946   .     S
O725   Zn728   1.946   .     S
C729   O773    1.287   .     A
C729   C732    1.413   .     S
C729   O763    1.286   .     A
C730   C732    1.407   .     A
C730   C741    1.496   .     S
C731   C751    1.408   .     A
C731   C752    1.407   .     A
C731   C740    1.413   .     S
C732   C750    1.408   .     A
C733   N762    1.373   .     A
C733   C742    1.475   .     S
C734   N761    1.373   .     A
C734   C743    1.475   .     S
C734   C891    1.434   .     S
C735   C744    1.476   .     S
C735   N762    1.374   .     A
C736   C745    1.476   .     S
C736   N761    1.374   .     A
C736   C889    1.434   .     S
C737   H753    1.084   .     S
C737   C750    1.487   .     S
C737   O778    1.220   .     D
C738   C751    1.487   .     S
C738   H754    1.084   .     S
C738   O764    1.220   .     D
C739   H755    1.084   .     S
C739   C752    1.496   .     S
C739   O765    1.220   .     D
C740   O772    1.287   .     A
C740   O771    1.286   .     A
C741   H756    1.084   .     S
C741   O766    1.220   .     D
C742   H757    1.081   .     S
C742   O767    1.220   .     D
C743   O768    1.220   .     D
C743   H758    1.081   .     S
C744   H759    1.081   .     S
C744   O769    1.220   .     D
C745   H760    1.081   .     S
C745   O770    1.220   .     D
C746   O774    1.284   .     A
C746   C748    1.365   .     S
C746   O777    1.285   .     A
C747   C749    1.365   .     S
C747   O775    1.284   .     A
C747   O776    1.285   .     A
C749   C1216   1.164   .     S
C751   C626    1.393   1_655 S
C752   C646    1.393   1_655 S
N761   Zn779   2.032   .     S
N762   Zn780   2.032   .     S
O763   Zn779   1.988   .     S
O771   Zn780   1.988   .     S
O772   Zn779   1.984   .     S
O773   Zn780   1.984   .     S
O774   Zn779   1.945   .     S
O775   Zn780   1.945   .     S
O776   Zn779   1.946   .     S
O777   Zn780   1.946   .     S
C781   O825    1.287   .     A
C781   C784    1.413   .     S
C781   O815    1.286   .     A
C782   C784    1.407   .     A
C782   C793    1.496   .     S
C782   C907    1.393   1_455 S
C783   C803    1.408   .     A
C783   C804    1.407   .     A
C783   C792    1.413   .     S
C784   C802    1.408   .     A
C785   N814    1.373   .     A
C785   C794    1.475   .     S
C786   N813    1.373   .     A
C786   C795    1.475   .     S
C786   C475    1.434   1_565 S
C787   C796    1.476   .     S
C787   N814    1.374   .     A
C788   C797    1.476   .     S
C788   N813    1.374   .     A
C788   C473    1.434   1_565 S
C789   H805    1.084   .     S
C789   C802    1.487   .     S
C789   O830    1.220   .     D
C790   C803    1.487   .     S
C790   H806    1.084   .     S
C790   O816    1.220   .     D
C791   H807    1.084   .     S
C791   C804    1.496   .     S
C791   O817    1.220   .     D
C792   O824    1.287   .     A
C792   O823    1.286   .     A
C793   H808    1.084   .     S
C793   O818    1.220   .     D
C794   H809    1.081   .     S
C794   O819    1.220   .     D
C795   O820    1.220   .     D
C795   H810    1.081   .     S
C796   H811    1.081   .     S
C796   O821    1.220   .     D
C797   H812    1.081   .     S
C797   O822    1.220   .     D
C798   O826    1.284   .     A
C798   C800    1.365   .     S
C798   O829    1.285   .     A
C799   C801    1.365   .     S
C799   O827    1.284   .     A
C799   O828    1.285   .     A
C801   C1268   1.164   .     S
C802   C908    1.393   1_455 S
C803   C834    1.393   .     S
C804   C854    1.393   .     S
N813   Zn831   2.032   .     S
N814   Zn832   2.032   .     S
O815   Zn831   1.988   .     S
O823   Zn832   1.988   .     S
O824   Zn831   1.984   .     S
O825   Zn832   1.984   .     S
O826   Zn831   1.945   .     S
O827   Zn832   1.945   .     S
O828   Zn831   1.946   .     S
O829   Zn832   1.946   .     S
C833   O877    1.287   .     A
C833   C836    1.413   .     S
C833   O867    1.286   .     A
C834   C836    1.407   .     A
C834   C845    1.496   .     S
C835   C855    1.408   .     A
C835   C856    1.407   .     A
C835   C844    1.413   .     S
C836   C854    1.408   .     A
C837   N866    1.373   .     A
C837   C846    1.475   .     S
C838   N865    1.373   .     A
C838   C847    1.475   .     S
C838   C527    1.434   1_565 S
C839   C848    1.476   .     S
C839   N866    1.374   .     A
C840   C849    1.476   .     S
C840   N865    1.374   .     A
C840   C525    1.434   1_565 S
C841   H857    1.084   .     S
C841   C854    1.487   .     S
C841   O882    1.220   .     D
C842   C855    1.487   .     S
C842   H858    1.084   .     S
C842   O868    1.220   .     D
C843   H859    1.084   .     S
C843   C856    1.496   .     S
C843   O869    1.220   .     D
C844   O876    1.287   .     A
C844   O875    1.286   .     A
C845   H860    1.084   .     S
C845   O870    1.220   .     D
C846   H861    1.081   .     S
C846   O871    1.220   .     D
C847   O872    1.220   .     D
C847   H862    1.081   .     S
C848   H863    1.081   .     S
C848   O873    1.220   .     D
C849   H864    1.081   .     S
C849   O874    1.220   .     D
C850   O878    1.284   .     A
C850   C852    1.365   .     S
C850   O881    1.285   .     A
C851   C853    1.365   .     S
C851   O879    1.284   .     A
C851   O880    1.285   .     A
C853   C1320   1.164   .     S
C855   C886    1.393   .     S
C856   C906    1.393   .     S
N865   Zn883   2.032   .     S
N866   Zn884   2.032   .     S
O867   Zn883   1.988   .     S
O875   Zn884   1.988   .     S
O876   Zn883   1.984   .     S
O877   Zn884   1.984   .     S
O878   Zn883   1.945   .     S
O879   Zn884   1.945   .     S
O880   Zn883   1.946   .     S
O881   Zn884   1.946   .     S
C885   O929    1.287   .     A
C885   C888    1.413   .     S
C885   O919    1.286   .     A
C886   C888    1.407   .     A
C886   C897    1.496   .     S
C887   C907    1.408   .     A
C887   C908    1.407   .     A
C887   C896    1.413   .     S
C888   C906    1.408   .     A
C889   N918    1.373   .     A
C889   C898    1.475   .     S
C890   N917    1.373   .     A
C890   C899    1.475   .     S
C890   C579    1.434   1_565 S
C891   C900    1.476   .     S
C891   N918    1.374   .     A
C892   C901    1.476   .     S
C892   N917    1.374   .     A
C892   C577    1.434   1_565 S
C893   H909    1.084   .     S
C893   C906    1.487   .     S
C893   O934    1.220   .     D
C894   C907    1.487   .     S
C894   H910    1.084   .     S
C894   O920    1.220   .     D
C895   H911    1.084   .     S
C895   C908    1.496   .     S
C895   O921    1.220   .     D
C896   O928    1.287   .     A
C896   O927    1.286   .     A
C897   H912    1.084   .     S
C897   O922    1.220   .     D
C898   H913    1.081   .     S
C898   O923    1.220   .     D
C899   O924    1.220   .     D
C899   H914    1.081   .     S
C900   H915    1.081   .     S
C900   O925    1.220   .     D
C901   H916    1.081   .     S
C901   O926    1.220   .     D
C902   O930    1.284   .     A
C902   C904    1.365   .     S
C902   O933    1.285   .     A
C903   C905    1.365   .     S
C903   O931    1.284   .     A
C903   O932    1.285   .     A
C905   C1372   1.164   .     S
C907   C782    1.393   1_655 S
C908   C802    1.393   1_655 S
N917   Zn935   2.032   .     S
N918   Zn936   2.032   .     S
O919   Zn935   1.988   .     S
O927   Zn936   1.988   .     S
O928   Zn935   1.984   .     S
O929   Zn936   1.984   .     S
O930   Zn935   1.945   .     S
O931   Zn936   1.945   .     S
O932   Zn935   1.946   .     S
O933   Zn936   1.946   .     S
C937   O981    1.287   .     A
C937   C940    1.413   .     S
C937   O971    1.286   .     A
C938   C940    1.407   .     A
C938   C949    1.496   .     S
C938   C1063   1.393   1_455 S
C939   C959    1.408   .     A
C939   C960    1.407   .     A
C939   C948    1.413   .     S
C940   C958    1.408   .     A
C941   N970    1.373   .     A
C941   C950    1.475   .     S
C941   C1256   1.434   1_545 S
C942   N969    1.373   .     A
C942   C951    1.475   .     S
C942   C1099   1.434   .     S
C943   C952    1.476   .     S
C943   N970    1.374   .     A
C943   C1254   1.434   1_545 S
C944   C953    1.476   .     S
C944   N969    1.374   .     A
C944   C1097   1.434   .     S
C945   H961    1.084   .     S
C945   C958    1.487   .     S
C945   O986    1.220   .     D
C946   C959    1.487   .     S
C946   H962    1.084   .     S
C946   O972    1.220   .     D
C947   H963    1.084   .     S
C947   C960    1.496   .     S
C947   O973    1.220   .     D
C948   O980    1.287   .     A
C948   O979    1.286   .     A
C949   H964    1.084   .     S
C949   O974    1.220   .     D
C950   H965    1.081   .     S
C950   O975    1.220   .     D
C951   O976    1.220   .     D
C951   H966    1.081   .     S
C952   H967    1.081   .     S
C952   O977    1.220   .     D
C953   H968    1.081   .     S
C953   O978    1.220   .     D
C954   O982    1.284   .     A
C954   C956    1.365   .     S
C954   O985    1.285   .     A
C955   C957    1.365   .     S
C955   O983    1.284   .     A
C955   O984    1.285   .     A
C957   C20     1.164   1_556 S
C958   C1064   1.393   1_455 S
C959   C990    1.393   .     S
C960   C1010   1.393   .     S
N969   Zn987   2.032   .     S
N970   Zn988   2.032   .     S
O971   Zn987   1.988   .     S
O979   Zn988   1.988   .     S
O980   Zn987   1.984   .     S
O981   Zn988   1.984   .     S
O982   Zn987   1.945   .     S
O983   Zn988   1.945   .     S
O984   Zn987   1.946   .     S
O985   Zn988   1.946   .     S
C989   O1033   1.287   .     A
C989   C992    1.413   .     S
C989   O1023   1.286   .     A
C990   C992    1.407   .     A
C990   C1001   1.496   .     S
C991   C1011   1.408   .     A
C991   C1012   1.407   .     A
C991   C1000   1.413   .     S
C992   C1010   1.408   .     A
C993   N1022   1.373   .     A
C993   C1002   1.475   .     S
C993   C1308   1.434   1_545 S
C994   N1021   1.373   .     A
C994   C1003   1.475   .     S
C994   C1151   1.434   .     S
C995   C1004   1.476   .     S
C995   N1022   1.374   .     A
C995   C1306   1.434   1_545 S
C996   C1005   1.476   .     S
C996   N1021   1.374   .     A
C996   C1149   1.434   .     S
C997   H1013   1.084   .     S
C997   C1010   1.487   .     S
C997   O1038   1.220   .     D
C998   C1011   1.487   .     S
C998   H1014   1.084   .     S
C998   O1024   1.220   .     D
C999   H1015   1.084   .     S
C999   C1012   1.496   .     S
C999   O1025   1.220   .     D
C1000  O1032   1.287   .     A
C1000  O1031   1.286   .     A
C1001  H1016   1.084   .     S
C1001  O1026   1.220   .     D
C1002  H1017   1.081   .     S
C1002  O1027   1.220   .     D
C1003  O1028   1.220   .     D
C1003  H1018   1.081   .     S
C1004  H1019   1.081   .     S
C1004  O1029   1.220   .     D
C1005  H1020   1.081   .     S
C1005  O1030   1.220   .     D
C1006  O1034   1.284   .     A
C1006  C1008   1.365   .     S
C1006  O1037   1.285   .     A
C1007  C1009   1.365   .     S
C1007  O1035   1.284   .     A
C1007  O1036   1.285   .     A
C1009  C72     1.164   1_556 S
C1011  C1042   1.393   .     S
C1012  C1062   1.393   .     S
N1021  Zn1039  2.032   .     S
N1022  Zn1040  2.032   .     S
O1023  Zn1039  1.988   .     S
O1031  Zn1040  1.988   .     S
O1032  Zn1039  1.984   .     S
O1033  Zn1040  1.984   .     S
O1034  Zn1039  1.945   .     S
O1035  Zn1040  1.945   .     S
O1036  Zn1039  1.946   .     S
O1037  Zn1040  1.946   .     S
C1041  O1085   1.287   .     A
C1041  C1044   1.413   .     S
C1041  O1075   1.286   .     A
C1042  C1044   1.407   .     A
C1042  C1053   1.496   .     S
C1043  C1063   1.408   .     A
C1043  C1064   1.407   .     A
C1043  C1052   1.413   .     S
C1044  C1062   1.408   .     A
C1045  N1074   1.373   .     A
C1045  C1054   1.475   .     S
C1045  C1360   1.434   1_545 S
C1046  N1073   1.373   .     A
C1046  C1055   1.475   .     S
C1046  C1203   1.434   .     S
C1047  C1056   1.476   .     S
C1047  N1074   1.374   .     A
C1047  C1358   1.434   1_545 S
C1048  C1057   1.476   .     S
C1048  N1073   1.374   .     A
C1048  C1201   1.434   .     S
C1049  H1065   1.084   .     S
C1049  C1062   1.487   .     S
C1049  O1090   1.220   .     D
C1050  C1063   1.487   .     S
C1050  H1066   1.084   .     S
C1050  O1076   1.220   .     D
C1051  H1067   1.084   .     S
C1051  C1064   1.496   .     S
C1051  O1077   1.220   .     D
C1052  O1084   1.287   .     A
C1052  O1083   1.286   .     A
C1053  H1068   1.084   .     S
C1053  O1078   1.220   .     D
C1054  H1069   1.081   .     S
C1054  O1079   1.220   .     D
C1055  O1080   1.220   .     D
C1055  H1070   1.081   .     S
C1056  H1071   1.081   .     S
C1056  O1081   1.220   .     D
C1057  H1072   1.081   .     S
C1057  O1082   1.220   .     D
C1058  O1086   1.284   .     A
C1058  C1060   1.365   .     S
C1058  O1089   1.285   .     A
C1059  C1061   1.365   .     S
C1059  O1087   1.284   .     A
C1059  O1088   1.285   .     A
C1061  C124    1.164   1_556 S
C1063  C938    1.393   1_655 S
C1064  C958    1.393   1_655 S
N1073  Zn1091  2.032   .     S
N1074  Zn1092  2.032   .     S
O1075  Zn1091  1.988   .     S
O1083  Zn1092  1.988   .     S
O1084  Zn1091  1.984   .     S
O1085  Zn1092  1.984   .     S
O1086  Zn1091  1.945   .     S
O1087  Zn1092  1.945   .     S
O1088  Zn1091  1.946   .     S
O1089  Zn1092  1.946   .     S
C1093  O1137   1.287   .     A
C1093  C1096   1.413   .     S
C1093  O1127   1.286   .     A
C1094  C1096   1.407   .     A
C1094  C1105   1.496   .     S
C1094  C1219   1.393   1_455 S
C1095  C1115   1.408   .     A
C1095  C1116   1.407   .     A
C1095  C1104   1.413   .     S
C1096  C1114   1.408   .     A
C1097  N1126   1.373   .     A
C1097  C1106   1.475   .     S
C1098  N1125   1.373   .     A
C1098  C1107   1.475   .     S
C1098  C1255   1.434   .     S
C1099  C1108   1.476   .     S
C1099  N1126   1.374   .     A
C1100  C1109   1.476   .     S
C1100  N1125   1.374   .     A
C1100  C1253   1.434   .     S
C1101  H1117   1.084   .     S
C1101  C1114   1.487   .     S
C1101  O1142   1.220   .     D
C1102  C1115   1.487   .     S
C1102  H1118   1.084   .     S
C1102  O1128   1.220   .     D
C1103  H1119   1.084   .     S
C1103  C1116   1.496   .     S
C1103  O1129   1.220   .     D
C1104  O1136   1.287   .     A
C1104  O1135   1.286   .     A
C1105  H1120   1.084   .     S
C1105  O1130   1.220   .     D
C1106  H1121   1.081   .     S
C1106  O1131   1.220   .     D
C1107  O1132   1.220   .     D
C1107  H1122   1.081   .     S
C1108  H1123   1.081   .     S
C1108  O1133   1.220   .     D
C1109  H1124   1.081   .     S
C1109  O1134   1.220   .     D
C1110  O1138   1.284   .     A
C1110  C1112   1.365   .     S
C1110  O1141   1.285   .     A
C1111  C1113   1.365   .     S
C1111  O1139   1.284   .     A
C1111  O1140   1.285   .     A
C1113  C176    1.164   1_556 S
C1114  C1220   1.393   1_455 S
C1115  C1146   1.393   .     S
C1116  C1166   1.393   .     S
N1125  Zn1143  2.032   .     S
N1126  Zn1144  2.032   .     S
O1127  Zn1143  1.988   .     S
O1135  Zn1144  1.988   .     S
O1136  Zn1143  1.984   .     S
O1137  Zn1144  1.984   .     S
O1138  Zn1143  1.945   .     S
O1139  Zn1144  1.945   .     S
O1140  Zn1143  1.946   .     S
O1141  Zn1144  1.946   .     S
C1145  O1189   1.287   .     A
C1145  C1148   1.413   .     S
C1145  O1179   1.286   .     A
C1146  C1148   1.407   .     A
C1146  C1157   1.496   .     S
C1147  C1167   1.408   .     A
C1147  C1168   1.407   .     A
C1147  C1156   1.413   .     S
C1148  C1166   1.408   .     A
C1149  N1178   1.373   .     A
C1149  C1158   1.475   .     S
C1150  N1177   1.373   .     A
C1150  C1159   1.475   .     S
C1150  C1307   1.434   .     S
C1151  C1160   1.476   .     S
C1151  N1178   1.374   .     A
C1152  C1161   1.476   .     S
C1152  N1177   1.374   .     A
C1152  C1305   1.434   .     S
C1153  H1169   1.084   .     S
C1153  C1166   1.487   .     S
C1153  O1194   1.220   .     D
C1154  C1167   1.487   .     S
C1154  H1170   1.084   .     S
C1154  O1180   1.220   .     D
C1155  H1171   1.084   .     S
C1155  C1168   1.496   .     S
C1155  O1181   1.220   .     D
C1156  O1188   1.287   .     A
C1156  O1187   1.286   .     A
C1157  H1172   1.084   .     S
C1157  O1182   1.220   .     D
C1158  H1173   1.081   .     S
C1158  O1183   1.220   .     D
C1159  O1184   1.220   .     D
C1159  H1174   1.081   .     S
C1160  H1175   1.081   .     S
C1160  O1185   1.220   .     D
C1161  H1176   1.081   .     S
C1161  O1186   1.220   .     D
C1162  O1190   1.284   .     A
C1162  C1164   1.365   .     S
C1162  O1193   1.285   .     A
C1163  C1165   1.365   .     S
C1163  O1191   1.284   .     A
C1163  O1192   1.285   .     A
C1165  C228    1.164   1_556 S
C1167  C1198   1.393   .     S
C1168  C1218   1.393   .     S
N1177  Zn1195  2.032   .     S
N1178  Zn1196  2.032   .     S
O1179  Zn1195  1.988   .     S
O1187  Zn1196  1.988   .     S
O1188  Zn1195  1.984   .     S
O1189  Zn1196  1.984   .     S
O1190  Zn1195  1.945   .     S
O1191  Zn1196  1.945   .     S
O1192  Zn1195  1.946   .     S
O1193  Zn1196  1.946   .     S
C1197  O1241   1.287   .     A
C1197  C1200   1.413   .     S
C1197  O1231   1.286   .     A
C1198  C1200   1.407   .     A
C1198  C1209   1.496   .     S
C1199  C1219   1.408   .     A
C1199  C1220   1.407   .     A
C1199  C1208   1.413   .     S
C1200  C1218   1.408   .     A
C1201  N1230   1.373   .     A
C1201  C1210   1.475   .     S
C1202  N1229   1.373   .     A
C1202  C1211   1.475   .     S
C1202  C1359   1.434   .     S
C1203  C1212   1.476   .     S
C1203  N1230   1.374   .     A
C1204  C1213   1.476   .     S
C1204  N1229   1.374   .     A
C1204  C1357   1.434   .     S
C1205  H1221   1.084   .     S
C1205  C1218   1.487   .     S
C1205  O1246   1.220   .     D
C1206  C1219   1.487   .     S
C1206  H1222   1.084   .     S
C1206  O1232   1.220   .     D
C1207  H1223   1.084   .     S
C1207  C1220   1.496   .     S
C1207  O1233   1.220   .     D
C1208  O1240   1.287   .     A
C1208  O1239   1.286   .     A
C1209  H1224   1.084   .     S
C1209  O1234   1.220   .     D
C1210  H1225   1.081   .     S
C1210  O1235   1.220   .     D
C1211  O1236   1.220   .     D
C1211  H1226   1.081   .     S
C1212  H1227   1.081   .     S
C1212  O1237   1.220   .     D
C1213  H1228   1.081   .     S
C1213  O1238   1.220   .     D
C1214  O1242   1.284   .     A
C1214  C1216   1.365   .     S
C1214  O1245   1.285   .     A
C1215  C1217   1.365   .     S
C1215  O1243   1.284   .     A
C1215  O1244   1.285   .     A
C1217  C280    1.164   1_556 S
C1219  C1094   1.393   1_655 S
C1220  C1114   1.393   1_655 S
N1229  Zn1247  2.032   .     S
N1230  Zn1248  2.032   .     S
O1231  Zn1247  1.988   .     S
O1239  Zn1248  1.988   .     S
O1240  Zn1247  1.984   .     S
O1241  Zn1248  1.984   .     S
O1242  Zn1247  1.945   .     S
O1243  Zn1248  1.945   .     S
O1244  Zn1247  1.946   .     S
O1245  Zn1248  1.946   .     S
C1249  O1293   1.287   .     A
C1249  C1252   1.413   .     S
C1249  O1283   1.286   .     A
C1250  C1252   1.407   .     A
C1250  C1261   1.496   .     S
C1250  C1375   1.393   1_455 S
C1251  C1271   1.408   .     A
C1251  C1272   1.407   .     A
C1251  C1260   1.413   .     S
C1252  C1270   1.408   .     A
C1253  N1282   1.373   .     A
C1253  C1262   1.475   .     S
C1254  N1281   1.373   .     A
C1254  C1263   1.475   .     S
C1254  C943    1.434   1_565 S
C1255  C1264   1.476   .     S
C1255  N1282   1.374   .     A
C1256  C1265   1.476   .     S
C1256  N1281   1.374   .     A
C1256  C941    1.434   1_565 S
C1257  H1273   1.084   .     S
C1257  C1270   1.487   .     S
C1257  O1298   1.220   .     D
C1258  C1271   1.487   .     S
C1258  H1274   1.084   .     S
C1258  O1284   1.220   .     D
C1259  H1275   1.084   .     S
C1259  C1272   1.496   .     S
C1259  O1285   1.220   .     D
C1260  O1292   1.287   .     A
C1260  O1291   1.286   .     A
C1261  H1276   1.084   .     S
C1261  O1286   1.220   .     D
C1262  H1277   1.081   .     S
C1262  O1287   1.220   .     D
C1263  O1288   1.220   .     D
C1263  H1278   1.081   .     S
C1264  H1279   1.081   .     S
C1264  O1289   1.220   .     D
C1265  H1280   1.081   .     S
C1265  O1290   1.220   .     D
C1266  O1294   1.284   .     A
C1266  C1268   1.365   .     S
C1266  O1297   1.285   .     A
C1267  C1269   1.365   .     S
C1267  O1295   1.284   .     A
C1267  O1296   1.285   .     A
C1269  C332    1.164   1_556 S
C1270  C1376   1.393   1_455 S
C1271  C1302   1.393   .     S
C1272  C1322   1.393   .     S
N1281  Zn1299  2.032   .     S
N1282  Zn1300  2.032   .     S
O1283  Zn1299  1.988   .     S
O1291  Zn1300  1.988   .     S
O1292  Zn1299  1.984   .     S
O1293  Zn1300  1.984   .     S
O1294  Zn1299  1.945   .     S
O1295  Zn1300  1.945   .     S
O1296  Zn1299  1.946   .     S
O1297  Zn1300  1.946   .     S
C1301  O1345   1.287   .     A
C1301  C1304   1.413   .     S
C1301  O1335   1.286   .     A
C1302  C1304   1.407   .     A
C1302  C1313   1.496   .     S
C1303  C1323   1.408   .     A
C1303  C1324   1.407   .     A
C1303  C1312   1.413   .     S
C1304  C1322   1.408   .     A
C1305  N1334   1.373   .     A
C1305  C1314   1.475   .     S
C1306  N1333   1.373   .     A
C1306  C1315   1.475   .     S
C1306  C995    1.434   1_565 S
C1307  C1316   1.476   .     S
C1307  N1334   1.374   .     A
C1308  C1317   1.476   .     S
C1308  N1333   1.374   .     A
C1308  C993    1.434   1_565 S
C1309  H1325   1.084   .     S
C1309  C1322   1.487   .     S
C1309  O1350   1.220   .     D
C1310  C1323   1.487   .     S
C1310  H1326   1.084   .     S
C1310  O1336   1.220   .     D
C1311  H1327   1.084   .     S
C1311  C1324   1.496   .     S
C1311  O1337   1.220   .     D
C1312  O1344   1.287   .     A
C1312  O1343   1.286   .     A
C1313  H1328   1.084   .     S
C1313  O1338   1.220   .     D
C1314  H1329   1.081   .     S
C1314  O1339   1.220   .     D
C1315  O1340   1.220   .     D
C1315  H1330   1.081   .     S
C1316  H1331   1.081   .     S
C1316  O1341   1.220   .     D
C1317  H1332   1.081   .     S
C1317  O1342   1.220   .     D
C1318  O1346   1.284   .     A
C1318  C1320   1.365   .     S
C1318  O1349   1.285   .     A
C1319  C1321   1.365   .     S
C1319  O1347   1.284   .     A
C1319  O1348   1.285   .     A
C1321  C384    1.164   1_556 S
C1323  C1354   1.393   .     S
C1324  C1374   1.393   .     S
N1333  Zn1351  2.032   .     S
N1334  Zn1352  2.032   .     S
O1335  Zn1351  1.988   .     S
O1343  Zn1352  1.988   .     S
O1344  Zn1351  1.984   .     S
O1345  Zn1352  1.984   .     S
O1346  Zn1351  1.945   .     S
O1347  Zn1352  1.945   .     S
O1348  Zn1351  1.946   .     S
O1349  Zn1352  1.946   .     S
C1353  O1397   1.287   .     A
C1353  C1356   1.413   .     S
C1353  O1387   1.286   .     A
C1354  C1356   1.407   .     A
C1354  C1365   1.496   .     S
C1355  C1375   1.408   .     A
C1355  C1376   1.407   .     A
C1355  C1364   1.413   .     S
C1356  C1374   1.408   .     A
C1357  N1386   1.373   .     A
C1357  C1366   1.475   .     S
C1358  N1385   1.373   .     A
C1358  C1367   1.475   .     S
C1358  C1047   1.434   1_565 S
C1359  C1368   1.476   .     S
C1359  N1386   1.374   .     A
C1360  C1369   1.476   .     S
C1360  N1385   1.374   .     A
C1360  C1045   1.434   1_565 S
C1361  H1377   1.084   .     S
C1361  C1374   1.487   .     S
C1361  O1402   1.220   .     D
C1362  C1375   1.487   .     S
C1362  H1378   1.084   .     S
C1362  O1388   1.220   .     D
C1363  H1379   1.084   .     S
C1363  C1376   1.496   .     S
C1363  O1389   1.220   .     D
C1364  O1396   1.287   .     A
C1364  O1395   1.286   .     A
C1365  H1380   1.084   .     S
C1365  O1390   1.220   .     D
C1366  H1381   1.081   .     S
C1366  O1391   1.220   .     D
C1367  O1392   1.220   .     D
C1367  H1382   1.081   .     S
C1368  H1383   1.081   .     S
C1368  O1393   1.220   .     D
C1369  H1384   1.081   .     S
C1369  O1394   1.220   .     D
C1370  O1398   1.284   .     A
C1370  C1372   1.365   .     S
C1370  O1401   1.285   .     A
C1371  C1373   1.365   .     S
C1371  O1399   1.284   .     A
C1371  O1400   1.285   .     A
C1373  C436    1.164   1_556 S
C1375  C1250   1.393   1_655 S
C1376  C1270   1.393   1_655 S
N1385  Zn1403  2.032   .     S
N1386  Zn1404  2.032   .     S
O1387  Zn1403  1.988   .     S
O1395  Zn1404  1.988   .     S
O1396  Zn1403  1.984   .     S
O1397  Zn1404  1.984   .     S
O1398  Zn1403  1.945   .     S
O1399  Zn1404  1.945   .     S
O1400  Zn1403  1.946   .     S
O1401  Zn1404  1.946   .     S
