data_str_m2_o1_o16_pcu_sym.79
_audit_creation_date              2020-01-03
_audit_creation_method            'Materials Studio'
_symmetry_space_group_name_H-M    'P1'
_symmetry_Int_Tables_number       1
_symmetry_cell_setting            triclinic
loop_
_symmetry_equiv_pos_as_xyz
  x,y,z
_cell_length_a                    28.8468
_cell_length_b                    32.4753
_cell_length_c                    26.7910
_cell_angle_alpha                 90.9007
_cell_angle_beta                  73.2406
_cell_angle_gamma                 90.3169
loop_
_atom_site_label
_atom_site_type_symbol
_atom_site_fract_x
_atom_site_fract_y
_atom_site_fract_z
_atom_site_U_iso_or_equiv
_atom_site_adp_type
_atom_site_occupancy
Br1    Br    0.07217   0.09908   0.17449   0.00000  Uiso   1.00
Br2    Br    0.21001   0.25105   0.37107   0.00000  Uiso   1.00
C3     C     0.16673   0.24587   0.25010   0.00000  Uiso   1.00
C4     C     0.12473   0.18041   0.40674   0.00000  Uiso   1.00
C5     C     0.20968   0.31221   0.24642   0.00000  Uiso   1.00
C6     C     0.14070   0.17111   0.34976   0.00000  Uiso   1.00
C7     C     0.20960   0.02148   0.24636   0.00000  Uiso   1.00
C8     C     0.16651   0.04278   0.25032   0.00000  Uiso   1.00
C9     C     0.12347   0.02110   0.25460   0.00000  Uiso   1.00
C10    C     0.12357   0.31184   0.25455   0.00000  Uiso   1.00
C11    C     0.16669   0.29054   0.25036   0.00000  Uiso   1.00
C12    C     0.30231   0.19653   0.27569   0.00000  Uiso   1.00
C13    C     0.01782   0.19595   0.27700   0.00000  Uiso   1.00
C14    C     0.14396   0.18200   0.48972   0.00000  Uiso   1.00
C15    C     0.03161   0.13817   0.22111   0.00000  Uiso   1.00
C16    C     0.31543   0.13779   0.22230   0.00000  Uiso   1.00
C17    C     0.16656   0.08745   0.25010   0.00000  Uiso   1.00
C18    C     0.19246   0.16575   0.14998   0.00000  Uiso   1.00
C19    C     0.26564   0.16949   0.00813   0.00000  Uiso   1.00
C20    C     0.20624   0.16634   0.09274   0.00000  Uiso   1.00
C21    C     0.07520   0.18197   0.43403   0.00000  Uiso   1.00
C22    C     0.06073   0.18661   0.48824   0.00000  Uiso   1.00
C23    C     0.09419   0.18384   0.01612   0.00000  Uiso   1.00
C24    C     0.15842   0.18702   0.43519   0.00000  Uiso   1.00
C25    C     0.18026   0.17722   0.01511   0.00000  Uiso   1.00
C26    C     0.22943   0.17929   0.48540   0.00000  Uiso   1.00
C27    C     0.24156   0.19453   0.43472   0.00000  Uiso   1.00
C28    C     0.20491   0.20243   0.41203   0.00000  Uiso   1.00
C29    C     0.16947   0.17014   0.06860   0.00000  Uiso   1.00
C30    C     0.25455   0.16409   0.06195   0.00000  Uiso   1.00
Cu31   Cu    0.11978   0.16666   0.25000   0.00000  Uiso   1.00
Cu32   Cu    0.21355   0.16667   0.25000   0.00000  Uiso   1.00
H33    H     0.28346   0.15874   0.07939   0.00000  Uiso   1.00
H34    H     0.13252   0.16830   0.09243   0.00000  Uiso   1.00
H35    H     0.04786   0.18052   0.41359   0.00000  Uiso   1.00
H36    H     0.08005   0.18534   0.05798   0.00000  Uiso   1.00
H37    H     0.02367   0.19191   0.00987   0.00000  Uiso   1.00
H38    H     0.24338   0.29634   0.24319   0.00000  Uiso   1.00
H39    H     0.24330   0.03762   0.24303   0.00000  Uiso   1.00
H40    H     0.08972   0.03694   0.25813   0.00000  Uiso   1.00
H41    H     0.08987   0.29569   0.25791   0.00000  Uiso   1.00
H42    H     0.27987   0.22167   0.29404   0.00000  Uiso   1.00
H43    H     0.03052   0.21968   0.29865   0.00000  Uiso   1.00
H44    H     0.30253   0.11489   0.19970   0.00000  Uiso   1.00
H45    H     0.27833   0.20406   0.41528   0.00000  Uiso   1.00
H46    H     0.30209   0.16617   0.48340   0.00000  Uiso   1.00
N47    N     0.04931   0.16666   0.24998   0.00000  Uiso   1.00
N48    N     0.28402   0.16669   0.24999   0.00000  Uiso   1.00
O49    O     0.12708   0.22678   0.25000   0.00000  Uiso   1.00
O50    O     0.20627   0.22679   0.25000   0.00000  Uiso   1.00
O51    O     0.10775   0.16665   0.32549   0.00000  Uiso   1.00
O52    O     0.18694   0.16666   0.32549   0.00000  Uiso   1.00
O53    O     0.12706   0.10654   0.24999   0.00000  Uiso   1.00
O54    O     0.20625   0.10655   0.24999   0.00000  Uiso   1.00
O55    O     0.14640   0.16667   0.17451   0.00000  Uiso   1.00
O56    O     0.22559   0.16668   0.17451   0.00000  Uiso   1.00
Br57   Br    0.40551   0.09908   0.17449   0.00000  Uiso   1.00
Br58   Br    0.54335   0.25105   0.37107   0.00000  Uiso   1.00
C59    C     0.50006   0.24587   0.25010   0.00000  Uiso   1.00
C60    C     0.45807   0.18041   0.40674   0.00000  Uiso   1.00
C61    C     0.54301   0.31221   0.24642   0.00000  Uiso   1.00
C62    C     0.47403   0.17111   0.34976   0.00000  Uiso   1.00
C63    C     0.54294   0.02148   0.24636   0.00000  Uiso   1.00
C64    C     0.49985   0.04278   0.25032   0.00000  Uiso   1.00
C65    C     0.45681   0.02110   0.25460   0.00000  Uiso   1.00
C66    C     0.45690   0.31184   0.25455   0.00000  Uiso   1.00
C67    C     0.50003   0.29054   0.25036   0.00000  Uiso   1.00
C68    C     0.63564   0.19653   0.27569   0.00000  Uiso   1.00
C69    C     0.35115   0.19595   0.27700   0.00000  Uiso   1.00
C70    C     0.47729   0.18200   0.48972   0.00000  Uiso   1.00
C71    C     0.36494   0.13817   0.22111   0.00000  Uiso   1.00
C72    C     0.64877   0.13779   0.22230   0.00000  Uiso   1.00
C73    C     0.49989   0.08745   0.25010   0.00000  Uiso   1.00
C74    C     0.52579   0.16575   0.14998   0.00000  Uiso   1.00
C75    C     0.59897   0.16949   0.00813   0.00000  Uiso   1.00
C76    C     0.53958   0.16634   0.09274   0.00000  Uiso   1.00
C77    C     0.40853   0.18197   0.43403   0.00000  Uiso   1.00
C78    C     0.39407   0.18661   0.48824   0.00000  Uiso   1.00
C79    C     0.42752   0.18384   0.01612   0.00000  Uiso   1.00
C80    C     0.49176   0.18702   0.43519   0.00000  Uiso   1.00
C81    C     0.51360   0.17722   0.01511   0.00000  Uiso   1.00
C82    C     0.56277   0.17929   0.48540   0.00000  Uiso   1.00
C83    C     0.57489   0.19453   0.43472   0.00000  Uiso   1.00
C84    C     0.53825   0.20243   0.41203   0.00000  Uiso   1.00
C85    C     0.50280   0.17014   0.06860   0.00000  Uiso   1.00
C86    C     0.58789   0.16409   0.06195   0.00000  Uiso   1.00
Cu87   Cu    0.45311   0.16666   0.25000   0.00000  Uiso   1.00
Cu88   Cu    0.54689   0.16667   0.25000   0.00000  Uiso   1.00
H89    H     0.61680   0.15874   0.07939   0.00000  Uiso   1.00
H90    H     0.46585   0.16830   0.09243   0.00000  Uiso   1.00
H91    H     0.38119   0.18052   0.41359   0.00000  Uiso   1.00
H92    H     0.41338   0.18534   0.05798   0.00000  Uiso   1.00
H93    H     0.35701   0.19191   0.00987   0.00000  Uiso   1.00
H94    H     0.57671   0.29634   0.24319   0.00000  Uiso   1.00
H95    H     0.57663   0.03762   0.24303   0.00000  Uiso   1.00
H96    H     0.42305   0.03694   0.25813   0.00000  Uiso   1.00
H97    H     0.42320   0.29569   0.25791   0.00000  Uiso   1.00
H98    H     0.61321   0.22167   0.29404   0.00000  Uiso   1.00
H99    H     0.36386   0.21968   0.29865   0.00000  Uiso   1.00
H100   H     0.63587   0.11489   0.19970   0.00000  Uiso   1.00
H101   H     0.61167   0.20406   0.41528   0.00000  Uiso   1.00
H102   H     0.63542   0.16617   0.48340   0.00000  Uiso   1.00
N103   N     0.38265   0.16666   0.24998   0.00000  Uiso   1.00
N104   N     0.61735   0.16669   0.24999   0.00000  Uiso   1.00
O105   O     0.46042   0.22678   0.25000   0.00000  Uiso   1.00
O106   O     0.53961   0.22679   0.25000   0.00000  Uiso   1.00
O107   O     0.44108   0.16665   0.32549   0.00000  Uiso   1.00
O108   O     0.52027   0.16666   0.32549   0.00000  Uiso   1.00
O109   O     0.46039   0.10654   0.24999   0.00000  Uiso   1.00
O110   O     0.53958   0.10655   0.24999   0.00000  Uiso   1.00
O111   O     0.47973   0.16667   0.17451   0.00000  Uiso   1.00
O112   O     0.55892   0.16668   0.17451   0.00000  Uiso   1.00
Br113  Br    0.73884   0.09908   0.17449   0.00000  Uiso   1.00
Br114  Br    0.87668   0.25105   0.37107   0.00000  Uiso   1.00
C115   C     0.83339   0.24587   0.25010   0.00000  Uiso   1.00
C116   C     0.79140   0.18041   0.40674   0.00000  Uiso   1.00
C117   C     0.87635   0.31221   0.24642   0.00000  Uiso   1.00
C118   C     0.80737   0.17111   0.34976   0.00000  Uiso   1.00
C119   C     0.87627   0.02148   0.24636   0.00000  Uiso   1.00
C120   C     0.83318   0.04278   0.25032   0.00000  Uiso   1.00
C121   C     0.79014   0.02110   0.25460   0.00000  Uiso   1.00
C122   C     0.79024   0.31184   0.25455   0.00000  Uiso   1.00
C123   C     0.83336   0.29054   0.25036   0.00000  Uiso   1.00
C124   C     0.96897   0.19653   0.27569   0.00000  Uiso   1.00
C125   C     0.68449   0.19595   0.27700   0.00000  Uiso   1.00
C126   C     0.81062   0.18200   0.48972   0.00000  Uiso   1.00
C127   C     0.69828   0.13817   0.22111   0.00000  Uiso   1.00
C128   C     0.98210   0.13779   0.22230   0.00000  Uiso   1.00
C129   C     0.83323   0.08745   0.25010   0.00000  Uiso   1.00
C130   C     0.85913   0.16575   0.14998   0.00000  Uiso   1.00
C131   C     0.93231   0.16949   0.00813   0.00000  Uiso   1.00
C132   C     0.87291   0.16634   0.09274   0.00000  Uiso   1.00
C133   C     0.74186   0.18197   0.43403   0.00000  Uiso   1.00
C134   C     0.72740   0.18661   0.48824   0.00000  Uiso   1.00
C135   C     0.76086   0.18384   0.01612   0.00000  Uiso   1.00
C136   C     0.82509   0.18702   0.43519   0.00000  Uiso   1.00
C137   C     0.84693   0.17722   0.01511   0.00000  Uiso   1.00
C138   C     0.89610   0.17929   0.48540   0.00000  Uiso   1.00
C139   C     0.90823   0.19453   0.43472   0.00000  Uiso   1.00
C140   C     0.87158   0.20243   0.41203   0.00000  Uiso   1.00
C141   C     0.83613   0.17014   0.06860   0.00000  Uiso   1.00
C142   C     0.92122   0.16409   0.06195   0.00000  Uiso   1.00
Cu143  Cu    0.78645   0.16666   0.25000   0.00000  Uiso   1.00
Cu144  Cu    0.88022   0.16667   0.25000   0.00000  Uiso   1.00
H145   H     0.95013   0.15874   0.07939   0.00000  Uiso   1.00
H146   H     0.79918   0.16830   0.09243   0.00000  Uiso   1.00
H147   H     0.71452   0.18052   0.41359   0.00000  Uiso   1.00
H148   H     0.74671   0.18534   0.05798   0.00000  Uiso   1.00
H149   H     0.69034   0.19191   0.00987   0.00000  Uiso   1.00
H150   H     0.91004   0.29634   0.24319   0.00000  Uiso   1.00
H151   H     0.90996   0.03762   0.24303   0.00000  Uiso   1.00
H152   H     0.75638   0.03694   0.25813   0.00000  Uiso   1.00
H153   H     0.75654   0.29569   0.25791   0.00000  Uiso   1.00
H154   H     0.94654   0.22167   0.29404   0.00000  Uiso   1.00
H155   H     0.69719   0.21968   0.29865   0.00000  Uiso   1.00
H156   H     0.96920   0.11489   0.19970   0.00000  Uiso   1.00
H157   H     0.94500   0.20406   0.41528   0.00000  Uiso   1.00
H158   H     0.96875   0.16617   0.48340   0.00000  Uiso   1.00
N159   N     0.71598   0.16666   0.24998   0.00000  Uiso   1.00
N160   N     0.95069   0.16669   0.24999   0.00000  Uiso   1.00
O161   O     0.79375   0.22678   0.25000   0.00000  Uiso   1.00
O162   O     0.87294   0.22679   0.25000   0.00000  Uiso   1.00
O163   O     0.77441   0.16665   0.32549   0.00000  Uiso   1.00
O164   O     0.85360   0.16666   0.32549   0.00000  Uiso   1.00
O165   O     0.79373   0.10654   0.24999   0.00000  Uiso   1.00
O166   O     0.87292   0.10655   0.24999   0.00000  Uiso   1.00
O167   O     0.81306   0.16667   0.17451   0.00000  Uiso   1.00
O168   O     0.89225   0.16668   0.17451   0.00000  Uiso   1.00
Br169  Br    0.07217   0.43241   0.17449   0.00000  Uiso   1.00
Br170  Br    0.21001   0.58439   0.37107   0.00000  Uiso   1.00
C171   C     0.16673   0.57921   0.25010   0.00000  Uiso   1.00
C172   C     0.12473   0.51374   0.40674   0.00000  Uiso   1.00
C173   C     0.20968   0.64554   0.24642   0.00000  Uiso   1.00
C174   C     0.14070   0.50444   0.34976   0.00000  Uiso   1.00
C175   C     0.20960   0.35481   0.24636   0.00000  Uiso   1.00
C176   C     0.16651   0.37611   0.25032   0.00000  Uiso   1.00
C177   C     0.12347   0.35444   0.25460   0.00000  Uiso   1.00
C178   C     0.12357   0.64517   0.25455   0.00000  Uiso   1.00
C179   C     0.16669   0.62387   0.25036   0.00000  Uiso   1.00
C180   C     0.30231   0.52986   0.27569   0.00000  Uiso   1.00
C181   C     0.01782   0.52928   0.27700   0.00000  Uiso   1.00
C182   C     0.14396   0.51533   0.48972   0.00000  Uiso   1.00
C183   C     0.03161   0.47150   0.22111   0.00000  Uiso   1.00
C184   C     0.31543   0.47113   0.22230   0.00000  Uiso   1.00
C185   C     0.16656   0.42079   0.25010   0.00000  Uiso   1.00
C186   C     0.19246   0.49909   0.14998   0.00000  Uiso   1.00
C187   C     0.26564   0.50282   0.00813   0.00000  Uiso   1.00
C188   C     0.20624   0.49967   0.09274   0.00000  Uiso   1.00
C189   C     0.07520   0.51530   0.43403   0.00000  Uiso   1.00
C190   C     0.06073   0.51994   0.48824   0.00000  Uiso   1.00
C191   C     0.09419   0.51717   0.01612   0.00000  Uiso   1.00
C192   C     0.15842   0.52035   0.43519   0.00000  Uiso   1.00
C193   C     0.18026   0.51055   0.01511   0.00000  Uiso   1.00
C194   C     0.22943   0.51262   0.48540   0.00000  Uiso   1.00
C195   C     0.24156   0.52787   0.43472   0.00000  Uiso   1.00
C196   C     0.20491   0.53577   0.41203   0.00000  Uiso   1.00
C197   C     0.16947   0.50347   0.06860   0.00000  Uiso   1.00
C198   C     0.25455   0.49742   0.06195   0.00000  Uiso   1.00
Cu199  Cu    0.11978   0.49999   0.25000   0.00000  Uiso   1.00
Cu200  Cu    0.21355   0.50001   0.25000   0.00000  Uiso   1.00
H201   H     0.28346   0.49208   0.07939   0.00000  Uiso   1.00
H202   H     0.13252   0.50163   0.09243   0.00000  Uiso   1.00
H203   H     0.04786   0.51385   0.41359   0.00000  Uiso   1.00
H204   H     0.08005   0.51867   0.05798   0.00000  Uiso   1.00
H205   H     0.02367   0.52524   0.00987   0.00000  Uiso   1.00
H206   H     0.24338   0.62967   0.24319   0.00000  Uiso   1.00
H207   H     0.24330   0.37096   0.24303   0.00000  Uiso   1.00
H208   H     0.08972   0.37028   0.25813   0.00000  Uiso   1.00
H209   H     0.08987   0.62902   0.25791   0.00000  Uiso   1.00
H210   H     0.27987   0.55501   0.29404   0.00000  Uiso   1.00
H211   H     0.03052   0.55302   0.29865   0.00000  Uiso   1.00
H212   H     0.30253   0.44823   0.19970   0.00000  Uiso   1.00
H213   H     0.27833   0.53739   0.41528   0.00000  Uiso   1.00
H214   H     0.30209   0.49951   0.48340   0.00000  Uiso   1.00
N215   N     0.04931   0.49999   0.24998   0.00000  Uiso   1.00
N216   N     0.28402   0.50002   0.24999   0.00000  Uiso   1.00
O217   O     0.12708   0.56011   0.25000   0.00000  Uiso   1.00
O218   O     0.20627   0.56012   0.25000   0.00000  Uiso   1.00
O219   O     0.10775   0.49998   0.32549   0.00000  Uiso   1.00
O220   O     0.18694   0.49999   0.32549   0.00000  Uiso   1.00
O221   O     0.12706   0.43988   0.24999   0.00000  Uiso   1.00
O222   O     0.20625   0.43989   0.24999   0.00000  Uiso   1.00
O223   O     0.14640   0.50001   0.17451   0.00000  Uiso   1.00
O224   O     0.22559   0.50002   0.17451   0.00000  Uiso   1.00
Br225  Br    0.40551   0.43241   0.17449   0.00000  Uiso   1.00
Br226  Br    0.54335   0.58439   0.37107   0.00000  Uiso   1.00
C227   C     0.50006   0.57921   0.25010   0.00000  Uiso   1.00
C228   C     0.45807   0.51374   0.40674   0.00000  Uiso   1.00
C229   C     0.54301   0.64554   0.24642   0.00000  Uiso   1.00
C230   C     0.47403   0.50444   0.34976   0.00000  Uiso   1.00
C231   C     0.54294   0.35481   0.24636   0.00000  Uiso   1.00
C232   C     0.49985   0.37611   0.25032   0.00000  Uiso   1.00
C233   C     0.45681   0.35444   0.25460   0.00000  Uiso   1.00
C234   C     0.45690   0.64517   0.25455   0.00000  Uiso   1.00
C235   C     0.50003   0.62387   0.25036   0.00000  Uiso   1.00
C236   C     0.63564   0.52986   0.27569   0.00000  Uiso   1.00
C237   C     0.35115   0.52928   0.27700   0.00000  Uiso   1.00
C238   C     0.47729   0.51533   0.48972   0.00000  Uiso   1.00
C239   C     0.36494   0.47150   0.22111   0.00000  Uiso   1.00
C240   C     0.64877   0.47113   0.22230   0.00000  Uiso   1.00
C241   C     0.49989   0.42079   0.25010   0.00000  Uiso   1.00
C242   C     0.52579   0.49909   0.14998   0.00000  Uiso   1.00
C243   C     0.59897   0.50282   0.00813   0.00000  Uiso   1.00
C244   C     0.53958   0.49967   0.09274   0.00000  Uiso   1.00
C245   C     0.40853   0.51530   0.43403   0.00000  Uiso   1.00
C246   C     0.39407   0.51994   0.48824   0.00000  Uiso   1.00
C247   C     0.42752   0.51717   0.01612   0.00000  Uiso   1.00
C248   C     0.49176   0.52035   0.43519   0.00000  Uiso   1.00
C249   C     0.51360   0.51055   0.01511   0.00000  Uiso   1.00
C250   C     0.56277   0.51262   0.48540   0.00000  Uiso   1.00
C251   C     0.57489   0.52787   0.43472   0.00000  Uiso   1.00
C252   C     0.53825   0.53577   0.41203   0.00000  Uiso   1.00
C253   C     0.50280   0.50347   0.06860   0.00000  Uiso   1.00
C254   C     0.58789   0.49742   0.06195   0.00000  Uiso   1.00
Cu255  Cu    0.45311   0.49999   0.25000   0.00000  Uiso   1.00
Cu256  Cu    0.54689   0.50001   0.25000   0.00000  Uiso   1.00
H257   H     0.61680   0.49208   0.07939   0.00000  Uiso   1.00
H258   H     0.46585   0.50163   0.09243   0.00000  Uiso   1.00
H259   H     0.38119   0.51385   0.41359   0.00000  Uiso   1.00
H260   H     0.41338   0.51867   0.05798   0.00000  Uiso   1.00
H261   H     0.35701   0.52524   0.00987   0.00000  Uiso   1.00
H262   H     0.57671   0.62967   0.24319   0.00000  Uiso   1.00
H263   H     0.57663   0.37096   0.24303   0.00000  Uiso   1.00
H264   H     0.42305   0.37028   0.25813   0.00000  Uiso   1.00
H265   H     0.42320   0.62902   0.25791   0.00000  Uiso   1.00
H266   H     0.61321   0.55501   0.29404   0.00000  Uiso   1.00
H267   H     0.36386   0.55302   0.29865   0.00000  Uiso   1.00
H268   H     0.63587   0.44823   0.19970   0.00000  Uiso   1.00
H269   H     0.61167   0.53739   0.41528   0.00000  Uiso   1.00
H270   H     0.63542   0.49951   0.48340   0.00000  Uiso   1.00
N271   N     0.38265   0.49999   0.24998   0.00000  Uiso   1.00
N272   N     0.61735   0.50002   0.24999   0.00000  Uiso   1.00
O273   O     0.46042   0.56011   0.25000   0.00000  Uiso   1.00
O274   O     0.53961   0.56012   0.25000   0.00000  Uiso   1.00
O275   O     0.44108   0.49998   0.32549   0.00000  Uiso   1.00
O276   O     0.52027   0.49999   0.32549   0.00000  Uiso   1.00
O277   O     0.46039   0.43988   0.24999   0.00000  Uiso   1.00
O278   O     0.53958   0.43989   0.24999   0.00000  Uiso   1.00
O279   O     0.47973   0.50001   0.17451   0.00000  Uiso   1.00
O280   O     0.55892   0.50002   0.17451   0.00000  Uiso   1.00
Br281  Br    0.73884   0.43241   0.17449   0.00000  Uiso   1.00
Br282  Br    0.87668   0.58439   0.37107   0.00000  Uiso   1.00
C283   C     0.83339   0.57921   0.25010   0.00000  Uiso   1.00
C284   C     0.79140   0.51374   0.40674   0.00000  Uiso   1.00
C285   C     0.87635   0.64554   0.24642   0.00000  Uiso   1.00
C286   C     0.80737   0.50444   0.34976   0.00000  Uiso   1.00
C287   C     0.87627   0.35481   0.24636   0.00000  Uiso   1.00
C288   C     0.83318   0.37611   0.25032   0.00000  Uiso   1.00
C289   C     0.79014   0.35444   0.25460   0.00000  Uiso   1.00
C290   C     0.79024   0.64517   0.25455   0.00000  Uiso   1.00
C291   C     0.83336   0.62387   0.25036   0.00000  Uiso   1.00
C292   C     0.96897   0.52986   0.27569   0.00000  Uiso   1.00
C293   C     0.68449   0.52928   0.27700   0.00000  Uiso   1.00
C294   C     0.81062   0.51533   0.48972   0.00000  Uiso   1.00
C295   C     0.69828   0.47150   0.22111   0.00000  Uiso   1.00
C296   C     0.98210   0.47113   0.22230   0.00000  Uiso   1.00
C297   C     0.83323   0.42079   0.25010   0.00000  Uiso   1.00
C298   C     0.85913   0.49909   0.14998   0.00000  Uiso   1.00
C299   C     0.93231   0.50282   0.00813   0.00000  Uiso   1.00
C300   C     0.87291   0.49967   0.09274   0.00000  Uiso   1.00
C301   C     0.74186   0.51530   0.43403   0.00000  Uiso   1.00
C302   C     0.72740   0.51994   0.48824   0.00000  Uiso   1.00
C303   C     0.76086   0.51717   0.01612   0.00000  Uiso   1.00
C304   C     0.82509   0.52035   0.43519   0.00000  Uiso   1.00
C305   C     0.84693   0.51055   0.01511   0.00000  Uiso   1.00
C306   C     0.89610   0.51262   0.48540   0.00000  Uiso   1.00
C307   C     0.90823   0.52787   0.43472   0.00000  Uiso   1.00
C308   C     0.87158   0.53577   0.41203   0.00000  Uiso   1.00
C309   C     0.83613   0.50347   0.06860   0.00000  Uiso   1.00
C310   C     0.92122   0.49742   0.06195   0.00000  Uiso   1.00
Cu311  Cu    0.78645   0.49999   0.25000   0.00000  Uiso   1.00
Cu312  Cu    0.88022   0.50001   0.25000   0.00000  Uiso   1.00
H313   H     0.95013   0.49208   0.07939   0.00000  Uiso   1.00
H314   H     0.79918   0.50163   0.09243   0.00000  Uiso   1.00
H315   H     0.71452   0.51385   0.41359   0.00000  Uiso   1.00
H316   H     0.74671   0.51867   0.05798   0.00000  Uiso   1.00
H317   H     0.69034   0.52524   0.00987   0.00000  Uiso   1.00
H318   H     0.91004   0.62967   0.24319   0.00000  Uiso   1.00
H319   H     0.90996   0.37096   0.24303   0.00000  Uiso   1.00
H320   H     0.75638   0.37028   0.25813   0.00000  Uiso   1.00
H321   H     0.75654   0.62902   0.25791   0.00000  Uiso   1.00
H322   H     0.94654   0.55501   0.29404   0.00000  Uiso   1.00
H323   H     0.69719   0.55302   0.29865   0.00000  Uiso   1.00
H324   H     0.96920   0.44823   0.19970   0.00000  Uiso   1.00
H325   H     0.94500   0.53739   0.41528   0.00000  Uiso   1.00
H326   H     0.96875   0.49951   0.48340   0.00000  Uiso   1.00
N327   N     0.71598   0.49999   0.24998   0.00000  Uiso   1.00
N328   N     0.95069   0.50002   0.24999   0.00000  Uiso   1.00
O329   O     0.79375   0.56011   0.25000   0.00000  Uiso   1.00
O330   O     0.87294   0.56012   0.25000   0.00000  Uiso   1.00
O331   O     0.77441   0.49998   0.32549   0.00000  Uiso   1.00
O332   O     0.85360   0.49999   0.32549   0.00000  Uiso   1.00
O333   O     0.79373   0.43988   0.24999   0.00000  Uiso   1.00
O334   O     0.87292   0.43989   0.24999   0.00000  Uiso   1.00
O335   O     0.81306   0.50001   0.17451   0.00000  Uiso   1.00
O336   O     0.89225   0.50002   0.17451   0.00000  Uiso   1.00
Br337  Br    0.07217   0.76575   0.17449   0.00000  Uiso   1.00
Br338  Br    0.21001   0.91772   0.37107   0.00000  Uiso   1.00
C339   C     0.16673   0.91254   0.25010   0.00000  Uiso   1.00
C340   C     0.12473   0.84707   0.40674   0.00000  Uiso   1.00
C341   C     0.20968   0.97887   0.24642   0.00000  Uiso   1.00
C342   C     0.14070   0.83778   0.34976   0.00000  Uiso   1.00
C343   C     0.20960   0.68814   0.24636   0.00000  Uiso   1.00
C344   C     0.16651   0.70945   0.25032   0.00000  Uiso   1.00
C345   C     0.12347   0.68777   0.25460   0.00000  Uiso   1.00
C346   C     0.12357   0.97850   0.25455   0.00000  Uiso   1.00
C347   C     0.16669   0.95721   0.25036   0.00000  Uiso   1.00
C348   C     0.30231   0.86320   0.27569   0.00000  Uiso   1.00
C349   C     0.01782   0.86262   0.27700   0.00000  Uiso   1.00
C350   C     0.14396   0.84866   0.48972   0.00000  Uiso   1.00
C351   C     0.03161   0.80484   0.22111   0.00000  Uiso   1.00
C352   C     0.31543   0.80446   0.22230   0.00000  Uiso   1.00
C353   C     0.16656   0.75412   0.25010   0.00000  Uiso   1.00
C354   C     0.19246   0.83242   0.14998   0.00000  Uiso   1.00
C355   C     0.26564   0.83615   0.00813   0.00000  Uiso   1.00
C356   C     0.20624   0.83300   0.09274   0.00000  Uiso   1.00
C357   C     0.07520   0.84863   0.43403   0.00000  Uiso   1.00
C358   C     0.06073   0.85328   0.48824   0.00000  Uiso   1.00
C359   C     0.09419   0.85050   0.01612   0.00000  Uiso   1.00
C360   C     0.15842   0.85368   0.43519   0.00000  Uiso   1.00
C361   C     0.18026   0.84388   0.01511   0.00000  Uiso   1.00
C362   C     0.22943   0.84595   0.48540   0.00000  Uiso   1.00
C363   C     0.24156   0.86120   0.43472   0.00000  Uiso   1.00
C364   C     0.20491   0.86910   0.41203   0.00000  Uiso   1.00
C365   C     0.16947   0.83681   0.06860   0.00000  Uiso   1.00
C366   C     0.25455   0.83076   0.06195   0.00000  Uiso   1.00
Cu367  Cu    0.11978   0.83333   0.25000   0.00000  Uiso   1.00
Cu368  Cu    0.21355   0.83334   0.25000   0.00000  Uiso   1.00
H369   H     0.28346   0.82541   0.07939   0.00000  Uiso   1.00
H370   H     0.13252   0.83496   0.09243   0.00000  Uiso   1.00
H371   H     0.04786   0.84718   0.41359   0.00000  Uiso   1.00
H372   H     0.08005   0.85201   0.05798   0.00000  Uiso   1.00
H373   H     0.02367   0.85857   0.00987   0.00000  Uiso   1.00
H374   H     0.24338   0.96300   0.24319   0.00000  Uiso   1.00
H375   H     0.24330   0.70429   0.24303   0.00000  Uiso   1.00
H376   H     0.08972   0.70361   0.25813   0.00000  Uiso   1.00
H377   H     0.08987   0.96236   0.25791   0.00000  Uiso   1.00
H378   H     0.27987   0.88834   0.29404   0.00000  Uiso   1.00
H379   H     0.03052   0.88635   0.29865   0.00000  Uiso   1.00
H380   H     0.30253   0.78156   0.19970   0.00000  Uiso   1.00
H381   H     0.27833   0.87073   0.41528   0.00000  Uiso   1.00
H382   H     0.30209   0.83284   0.48340   0.00000  Uiso   1.00
N383   N     0.04931   0.83332   0.24998   0.00000  Uiso   1.00
N384   N     0.28402   0.83335   0.24999   0.00000  Uiso   1.00
O385   O     0.12708   0.89345   0.25000   0.00000  Uiso   1.00
O386   O     0.20627   0.89346   0.25000   0.00000  Uiso   1.00
O387   O     0.10775   0.83332   0.32549   0.00000  Uiso   1.00
O388   O     0.18694   0.83333   0.32549   0.00000  Uiso   1.00
O389   O     0.12706   0.77321   0.24999   0.00000  Uiso   1.00
O390   O     0.20625   0.77322   0.24999   0.00000  Uiso   1.00
O391   O     0.14640   0.83334   0.17451   0.00000  Uiso   1.00
O392   O     0.22559   0.83335   0.17451   0.00000  Uiso   1.00
Br393  Br    0.40551   0.76575   0.17449   0.00000  Uiso   1.00
Br394  Br    0.54335   0.91772   0.37107   0.00000  Uiso   1.00
C395   C     0.50006   0.91254   0.25010   0.00000  Uiso   1.00
C396   C     0.45807   0.84707   0.40674   0.00000  Uiso   1.00
C397   C     0.54301   0.97887   0.24642   0.00000  Uiso   1.00
C398   C     0.47403   0.83778   0.34976   0.00000  Uiso   1.00
C399   C     0.54294   0.68814   0.24636   0.00000  Uiso   1.00
C400   C     0.49985   0.70945   0.25032   0.00000  Uiso   1.00
C401   C     0.45681   0.68777   0.25460   0.00000  Uiso   1.00
C402   C     0.45690   0.97850   0.25455   0.00000  Uiso   1.00
C403   C     0.50003   0.95721   0.25036   0.00000  Uiso   1.00
C404   C     0.63564   0.86320   0.27569   0.00000  Uiso   1.00
C405   C     0.35115   0.86262   0.27700   0.00000  Uiso   1.00
C406   C     0.47729   0.84866   0.48972   0.00000  Uiso   1.00
C407   C     0.36494   0.80484   0.22111   0.00000  Uiso   1.00
C408   C     0.64877   0.80446   0.22230   0.00000  Uiso   1.00
C409   C     0.49989   0.75412   0.25010   0.00000  Uiso   1.00
C410   C     0.52579   0.83242   0.14998   0.00000  Uiso   1.00
C411   C     0.59897   0.83615   0.00813   0.00000  Uiso   1.00
C412   C     0.53958   0.83300   0.09274   0.00000  Uiso   1.00
C413   C     0.40853   0.84863   0.43403   0.00000  Uiso   1.00
C414   C     0.39407   0.85328   0.48824   0.00000  Uiso   1.00
C415   C     0.42752   0.85050   0.01612   0.00000  Uiso   1.00
C416   C     0.49176   0.85368   0.43519   0.00000  Uiso   1.00
C417   C     0.51360   0.84388   0.01511   0.00000  Uiso   1.00
C418   C     0.56277   0.84595   0.48540   0.00000  Uiso   1.00
C419   C     0.57489   0.86120   0.43472   0.00000  Uiso   1.00
C420   C     0.53825   0.86910   0.41203   0.00000  Uiso   1.00
C421   C     0.50280   0.83681   0.06860   0.00000  Uiso   1.00
C422   C     0.58789   0.83076   0.06195   0.00000  Uiso   1.00
Cu423  Cu    0.45311   0.83333   0.25000   0.00000  Uiso   1.00
Cu424  Cu    0.54689   0.83334   0.25000   0.00000  Uiso   1.00
H425   H     0.61680   0.82541   0.07939   0.00000  Uiso   1.00
H426   H     0.46585   0.83496   0.09243   0.00000  Uiso   1.00
H427   H     0.38119   0.84718   0.41359   0.00000  Uiso   1.00
H428   H     0.41338   0.85201   0.05798   0.00000  Uiso   1.00
H429   H     0.35701   0.85857   0.00987   0.00000  Uiso   1.00
H430   H     0.57671   0.96300   0.24319   0.00000  Uiso   1.00
H431   H     0.57663   0.70429   0.24303   0.00000  Uiso   1.00
H432   H     0.42305   0.70361   0.25813   0.00000  Uiso   1.00
H433   H     0.42320   0.96236   0.25791   0.00000  Uiso   1.00
H434   H     0.61321   0.88834   0.29404   0.00000  Uiso   1.00
H435   H     0.36386   0.88635   0.29865   0.00000  Uiso   1.00
H436   H     0.63587   0.78156   0.19970   0.00000  Uiso   1.00
H437   H     0.61167   0.87073   0.41528   0.00000  Uiso   1.00
H438   H     0.63542   0.83284   0.48340   0.00000  Uiso   1.00
N439   N     0.38265   0.83332   0.24998   0.00000  Uiso   1.00
N440   N     0.61735   0.83335   0.24999   0.00000  Uiso   1.00
O441   O     0.46042   0.89345   0.25000   0.00000  Uiso   1.00
O442   O     0.53961   0.89346   0.25000   0.00000  Uiso   1.00
O443   O     0.44108   0.83332   0.32549   0.00000  Uiso   1.00
O444   O     0.52027   0.83333   0.32549   0.00000  Uiso   1.00
O445   O     0.46039   0.77321   0.24999   0.00000  Uiso   1.00
O446   O     0.53958   0.77322   0.24999   0.00000  Uiso   1.00
O447   O     0.47973   0.83334   0.17451   0.00000  Uiso   1.00
O448   O     0.55892   0.83335   0.17451   0.00000  Uiso   1.00
Br449  Br    0.73884   0.76575   0.17449   0.00000  Uiso   1.00
Br450  Br    0.87668   0.91772   0.37107   0.00000  Uiso   1.00
C451   C     0.83339   0.91254   0.25010   0.00000  Uiso   1.00
C452   C     0.79140   0.84707   0.40674   0.00000  Uiso   1.00
C453   C     0.87635   0.97887   0.24642   0.00000  Uiso   1.00
C454   C     0.80737   0.83778   0.34976   0.00000  Uiso   1.00
C455   C     0.87627   0.68814   0.24636   0.00000  Uiso   1.00
C456   C     0.83318   0.70945   0.25032   0.00000  Uiso   1.00
C457   C     0.79014   0.68777   0.25460   0.00000  Uiso   1.00
C458   C     0.79024   0.97850   0.25455   0.00000  Uiso   1.00
C459   C     0.83336   0.95721   0.25036   0.00000  Uiso   1.00
C460   C     0.96897   0.86320   0.27569   0.00000  Uiso   1.00
C461   C     0.68449   0.86262   0.27700   0.00000  Uiso   1.00
C462   C     0.81062   0.84866   0.48972   0.00000  Uiso   1.00
C463   C     0.69828   0.80484   0.22111   0.00000  Uiso   1.00
C464   C     0.98210   0.80446   0.22230   0.00000  Uiso   1.00
C465   C     0.83323   0.75412   0.25010   0.00000  Uiso   1.00
C466   C     0.85913   0.83242   0.14998   0.00000  Uiso   1.00
C467   C     0.93231   0.83615   0.00813   0.00000  Uiso   1.00
C468   C     0.87291   0.83300   0.09274   0.00000  Uiso   1.00
C469   C     0.74186   0.84863   0.43403   0.00000  Uiso   1.00
C470   C     0.72740   0.85328   0.48824   0.00000  Uiso   1.00
C471   C     0.76086   0.85050   0.01612   0.00000  Uiso   1.00
C472   C     0.82509   0.85368   0.43519   0.00000  Uiso   1.00
C473   C     0.84693   0.84388   0.01511   0.00000  Uiso   1.00
C474   C     0.89610   0.84595   0.48540   0.00000  Uiso   1.00
C475   C     0.90823   0.86120   0.43472   0.00000  Uiso   1.00
C476   C     0.87158   0.86910   0.41203   0.00000  Uiso   1.00
C477   C     0.83613   0.83681   0.06860   0.00000  Uiso   1.00
C478   C     0.92122   0.83076   0.06195   0.00000  Uiso   1.00
Cu479  Cu    0.78645   0.83333   0.25000   0.00000  Uiso   1.00
Cu480  Cu    0.88022   0.83334   0.25000   0.00000  Uiso   1.00
H481   H     0.95013   0.82541   0.07939   0.00000  Uiso   1.00
H482   H     0.79918   0.83496   0.09243   0.00000  Uiso   1.00
H483   H     0.71452   0.84718   0.41359   0.00000  Uiso   1.00
H484   H     0.74671   0.85201   0.05798   0.00000  Uiso   1.00
H485   H     0.69034   0.85857   0.00987   0.00000  Uiso   1.00
H486   H     0.91004   0.96300   0.24319   0.00000  Uiso   1.00
H487   H     0.90996   0.70429   0.24303   0.00000  Uiso   1.00
H488   H     0.75638   0.70361   0.25813   0.00000  Uiso   1.00
H489   H     0.75654   0.96236   0.25791   0.00000  Uiso   1.00
H490   H     0.94654   0.88834   0.29404   0.00000  Uiso   1.00
H491   H     0.69719   0.88635   0.29865   0.00000  Uiso   1.00
H492   H     0.96920   0.78156   0.19970   0.00000  Uiso   1.00
H493   H     0.94500   0.87073   0.41528   0.00000  Uiso   1.00
H494   H     0.96875   0.83284   0.48340   0.00000  Uiso   1.00
N495   N     0.71598   0.83332   0.24998   0.00000  Uiso   1.00
N496   N     0.95069   0.83335   0.24999   0.00000  Uiso   1.00
O497   O     0.79375   0.89345   0.25000   0.00000  Uiso   1.00
O498   O     0.87294   0.89346   0.25000   0.00000  Uiso   1.00
O499   O     0.77441   0.83332   0.32549   0.00000  Uiso   1.00
O500   O     0.85360   0.83333   0.32549   0.00000  Uiso   1.00
O501   O     0.79373   0.77321   0.24999   0.00000  Uiso   1.00
O502   O     0.87292   0.77322   0.24999   0.00000  Uiso   1.00
O503   O     0.81306   0.83334   0.17451   0.00000  Uiso   1.00
O504   O     0.89225   0.83335   0.17451   0.00000  Uiso   1.00
Br505  Br    0.07217   0.09908   0.67449   0.00000  Uiso   1.00
Br506  Br    0.21001   0.25105   0.87107   0.00000  Uiso   1.00
C507   C     0.16673   0.24587   0.75010   0.00000  Uiso   1.00
C508   C     0.12473   0.18041   0.90674   0.00000  Uiso   1.00
C509   C     0.20968   0.31221   0.74642   0.00000  Uiso   1.00
C510   C     0.14070   0.17111   0.84976   0.00000  Uiso   1.00
C511   C     0.20960   0.02148   0.74636   0.00000  Uiso   1.00
C512   C     0.16651   0.04278   0.75032   0.00000  Uiso   1.00
C513   C     0.12347   0.02110   0.75460   0.00000  Uiso   1.00
C514   C     0.12357   0.31184   0.75455   0.00000  Uiso   1.00
C515   C     0.16669   0.29054   0.75036   0.00000  Uiso   1.00
C516   C     0.30231   0.19653   0.77569   0.00000  Uiso   1.00
C517   C     0.01782   0.19595   0.77700   0.00000  Uiso   1.00
C518   C     0.14396   0.18200   0.98972   0.00000  Uiso   1.00
C519   C     0.03161   0.13817   0.72111   0.00000  Uiso   1.00
C520   C     0.31543   0.13779   0.72230   0.00000  Uiso   1.00
C521   C     0.16656   0.08745   0.75010   0.00000  Uiso   1.00
C522   C     0.19246   0.16575   0.64998   0.00000  Uiso   1.00
C523   C     0.26564   0.16949   0.50813   0.00000  Uiso   1.00
C524   C     0.20624   0.16634   0.59274   0.00000  Uiso   1.00
C525   C     0.07520   0.18197   0.93403   0.00000  Uiso   1.00
C526   C     0.06073   0.18661   0.98824   0.00000  Uiso   1.00
C527   C     0.09419   0.18384   0.51612   0.00000  Uiso   1.00
C528   C     0.15842   0.18702   0.93519   0.00000  Uiso   1.00
C529   C     0.18026   0.17722   0.51511   0.00000  Uiso   1.00
C530   C     0.22943   0.17929   0.98540   0.00000  Uiso   1.00
C531   C     0.24156   0.19453   0.93472   0.00000  Uiso   1.00
C532   C     0.20491   0.20243   0.91203   0.00000  Uiso   1.00
C533   C     0.16947   0.17014   0.56860   0.00000  Uiso   1.00
C534   C     0.25455   0.16409   0.56195   0.00000  Uiso   1.00
Cu535  Cu    0.11978   0.16666   0.75000   0.00000  Uiso   1.00
Cu536  Cu    0.21355   0.16667   0.75000   0.00000  Uiso   1.00
H537   H     0.28346   0.15874   0.57939   0.00000  Uiso   1.00
H538   H     0.13252   0.16830   0.59243   0.00000  Uiso   1.00
H539   H     0.04786   0.18052   0.91359   0.00000  Uiso   1.00
H540   H     0.08005   0.18534   0.55798   0.00000  Uiso   1.00
H541   H     0.02367   0.19191   0.50987   0.00000  Uiso   1.00
H542   H     0.24338   0.29634   0.74319   0.00000  Uiso   1.00
H543   H     0.24330   0.03762   0.74303   0.00000  Uiso   1.00
H544   H     0.08972   0.03694   0.75813   0.00000  Uiso   1.00
H545   H     0.08987   0.29569   0.75791   0.00000  Uiso   1.00
H546   H     0.27987   0.22167   0.79404   0.00000  Uiso   1.00
H547   H     0.03052   0.21968   0.79865   0.00000  Uiso   1.00
H548   H     0.30253   0.11489   0.69970   0.00000  Uiso   1.00
H549   H     0.27833   0.20406   0.91528   0.00000  Uiso   1.00
H550   H     0.30209   0.16617   0.98340   0.00000  Uiso   1.00
N551   N     0.04931   0.16666   0.74998   0.00000  Uiso   1.00
N552   N     0.28402   0.16669   0.74999   0.00000  Uiso   1.00
O553   O     0.12708   0.22678   0.75000   0.00000  Uiso   1.00
O554   O     0.20627   0.22679   0.75000   0.00000  Uiso   1.00
O555   O     0.10775   0.16665   0.82549   0.00000  Uiso   1.00
O556   O     0.18694   0.16666   0.82549   0.00000  Uiso   1.00
O557   O     0.12706   0.10654   0.74999   0.00000  Uiso   1.00
O558   O     0.20625   0.10655   0.74999   0.00000  Uiso   1.00
O559   O     0.14640   0.16667   0.67451   0.00000  Uiso   1.00
O560   O     0.22559   0.16668   0.67451   0.00000  Uiso   1.00
Br561  Br    0.40551   0.09908   0.67449   0.00000  Uiso   1.00
Br562  Br    0.54335   0.25105   0.87107   0.00000  Uiso   1.00
C563   C     0.50006   0.24587   0.75010   0.00000  Uiso   1.00
C564   C     0.45807   0.18041   0.90674   0.00000  Uiso   1.00
C565   C     0.54301   0.31221   0.74642   0.00000  Uiso   1.00
C566   C     0.47403   0.17111   0.84976   0.00000  Uiso   1.00
C567   C     0.54294   0.02148   0.74636   0.00000  Uiso   1.00
C568   C     0.49985   0.04278   0.75032   0.00000  Uiso   1.00
C569   C     0.45681   0.02110   0.75460   0.00000  Uiso   1.00
C570   C     0.45690   0.31184   0.75455   0.00000  Uiso   1.00
C571   C     0.50003   0.29054   0.75036   0.00000  Uiso   1.00
C572   C     0.63564   0.19653   0.77569   0.00000  Uiso   1.00
C573   C     0.35115   0.19595   0.77700   0.00000  Uiso   1.00
C574   C     0.47729   0.18200   0.98972   0.00000  Uiso   1.00
C575   C     0.36494   0.13817   0.72111   0.00000  Uiso   1.00
C576   C     0.64877   0.13779   0.72230   0.00000  Uiso   1.00
C577   C     0.49989   0.08745   0.75010   0.00000  Uiso   1.00
C578   C     0.52579   0.16575   0.64998   0.00000  Uiso   1.00
C579   C     0.59897   0.16949   0.50813   0.00000  Uiso   1.00
C580   C     0.53958   0.16634   0.59274   0.00000  Uiso   1.00
C581   C     0.40853   0.18197   0.93403   0.00000  Uiso   1.00
C582   C     0.39407   0.18661   0.98824   0.00000  Uiso   1.00
C583   C     0.42752   0.18384   0.51612   0.00000  Uiso   1.00
C584   C     0.49176   0.18702   0.93519   0.00000  Uiso   1.00
C585   C     0.51360   0.17722   0.51511   0.00000  Uiso   1.00
C586   C     0.56277   0.17929   0.98540   0.00000  Uiso   1.00
C587   C     0.57489   0.19453   0.93472   0.00000  Uiso   1.00
C588   C     0.53825   0.20243   0.91203   0.00000  Uiso   1.00
C589   C     0.50280   0.17014   0.56860   0.00000  Uiso   1.00
C590   C     0.58789   0.16409   0.56195   0.00000  Uiso   1.00
Cu591  Cu    0.45311   0.16666   0.75000   0.00000  Uiso   1.00
Cu592  Cu    0.54689   0.16667   0.75000   0.00000  Uiso   1.00
H593   H     0.61680   0.15874   0.57939   0.00000  Uiso   1.00
H594   H     0.46585   0.16830   0.59243   0.00000  Uiso   1.00
H595   H     0.38119   0.18052   0.91359   0.00000  Uiso   1.00
H596   H     0.41338   0.18534   0.55798   0.00000  Uiso   1.00
H597   H     0.35701   0.19191   0.50987   0.00000  Uiso   1.00
H598   H     0.57671   0.29634   0.74319   0.00000  Uiso   1.00
H599   H     0.57663   0.03762   0.74303   0.00000  Uiso   1.00
H600   H     0.42305   0.03694   0.75813   0.00000  Uiso   1.00
H601   H     0.42320   0.29569   0.75791   0.00000  Uiso   1.00
H602   H     0.61321   0.22167   0.79404   0.00000  Uiso   1.00
H603   H     0.36386   0.21968   0.79865   0.00000  Uiso   1.00
H604   H     0.63587   0.11489   0.69970   0.00000  Uiso   1.00
H605   H     0.61167   0.20406   0.91528   0.00000  Uiso   1.00
H606   H     0.63542   0.16617   0.98340   0.00000  Uiso   1.00
N607   N     0.38265   0.16666   0.74998   0.00000  Uiso   1.00
N608   N     0.61735   0.16669   0.74999   0.00000  Uiso   1.00
O609   O     0.46042   0.22678   0.75000   0.00000  Uiso   1.00
O610   O     0.53961   0.22679   0.75000   0.00000  Uiso   1.00
O611   O     0.44108   0.16665   0.82549   0.00000  Uiso   1.00
O612   O     0.52027   0.16666   0.82549   0.00000  Uiso   1.00
O613   O     0.46039   0.10654   0.74999   0.00000  Uiso   1.00
O614   O     0.53958   0.10655   0.74999   0.00000  Uiso   1.00
O615   O     0.47973   0.16667   0.67451   0.00000  Uiso   1.00
O616   O     0.55892   0.16668   0.67451   0.00000  Uiso   1.00
Br617  Br    0.73884   0.09908   0.67449   0.00000  Uiso   1.00
Br618  Br    0.87668   0.25105   0.87107   0.00000  Uiso   1.00
C619   C     0.83339   0.24587   0.75010   0.00000  Uiso   1.00
C620   C     0.79140   0.18041   0.90674   0.00000  Uiso   1.00
C621   C     0.87635   0.31221   0.74642   0.00000  Uiso   1.00
C622   C     0.80737   0.17111   0.84976   0.00000  Uiso   1.00
C623   C     0.87627   0.02148   0.74636   0.00000  Uiso   1.00
C624   C     0.83318   0.04278   0.75032   0.00000  Uiso   1.00
C625   C     0.79014   0.02110   0.75460   0.00000  Uiso   1.00
C626   C     0.79024   0.31184   0.75455   0.00000  Uiso   1.00
C627   C     0.83336   0.29054   0.75036   0.00000  Uiso   1.00
C628   C     0.96897   0.19653   0.77569   0.00000  Uiso   1.00
C629   C     0.68449   0.19595   0.77700   0.00000  Uiso   1.00
C630   C     0.81062   0.18200   0.98972   0.00000  Uiso   1.00
C631   C     0.69828   0.13817   0.72111   0.00000  Uiso   1.00
C632   C     0.98210   0.13779   0.72230   0.00000  Uiso   1.00
C633   C     0.83323   0.08745   0.75010   0.00000  Uiso   1.00
C634   C     0.85913   0.16575   0.64998   0.00000  Uiso   1.00
C635   C     0.93231   0.16949   0.50813   0.00000  Uiso   1.00
C636   C     0.87291   0.16634   0.59274   0.00000  Uiso   1.00
C637   C     0.74186   0.18197   0.93403   0.00000  Uiso   1.00
C638   C     0.72740   0.18661   0.98824   0.00000  Uiso   1.00
C639   C     0.76086   0.18384   0.51612   0.00000  Uiso   1.00
C640   C     0.82509   0.18702   0.93519   0.00000  Uiso   1.00
C641   C     0.84693   0.17722   0.51511   0.00000  Uiso   1.00
C642   C     0.89610   0.17929   0.98540   0.00000  Uiso   1.00
C643   C     0.90823   0.19453   0.93472   0.00000  Uiso   1.00
C644   C     0.87158   0.20243   0.91203   0.00000  Uiso   1.00
C645   C     0.83613   0.17014   0.56860   0.00000  Uiso   1.00
C646   C     0.92122   0.16409   0.56195   0.00000  Uiso   1.00
Cu647  Cu    0.78645   0.16666   0.75000   0.00000  Uiso   1.00
Cu648  Cu    0.88022   0.16667   0.75000   0.00000  Uiso   1.00
H649   H     0.95013   0.15874   0.57939   0.00000  Uiso   1.00
H650   H     0.79918   0.16830   0.59243   0.00000  Uiso   1.00
H651   H     0.71452   0.18052   0.91359   0.00000  Uiso   1.00
H652   H     0.74671   0.18534   0.55798   0.00000  Uiso   1.00
H653   H     0.69034   0.19191   0.50987   0.00000  Uiso   1.00
H654   H     0.91004   0.29634   0.74319   0.00000  Uiso   1.00
H655   H     0.90996   0.03762   0.74303   0.00000  Uiso   1.00
H656   H     0.75638   0.03694   0.75813   0.00000  Uiso   1.00
H657   H     0.75654   0.29569   0.75791   0.00000  Uiso   1.00
H658   H     0.94654   0.22167   0.79404   0.00000  Uiso   1.00
H659   H     0.69719   0.21968   0.79865   0.00000  Uiso   1.00
H660   H     0.96920   0.11489   0.69970   0.00000  Uiso   1.00
H661   H     0.94500   0.20406   0.91528   0.00000  Uiso   1.00
H662   H     0.96875   0.16617   0.98340   0.00000  Uiso   1.00
N663   N     0.71598   0.16666   0.74998   0.00000  Uiso   1.00
N664   N     0.95069   0.16669   0.74999   0.00000  Uiso   1.00
O665   O     0.79375   0.22678   0.75000   0.00000  Uiso   1.00
O666   O     0.87294   0.22679   0.75000   0.00000  Uiso   1.00
O667   O     0.77441   0.16665   0.82549   0.00000  Uiso   1.00
O668   O     0.85360   0.16666   0.82549   0.00000  Uiso   1.00
O669   O     0.79373   0.10654   0.74999   0.00000  Uiso   1.00
O670   O     0.87292   0.10655   0.74999   0.00000  Uiso   1.00
O671   O     0.81306   0.16667   0.67451   0.00000  Uiso   1.00
O672   O     0.89225   0.16668   0.67451   0.00000  Uiso   1.00
Br673  Br    0.07217   0.43241   0.67449   0.00000  Uiso   1.00
Br674  Br    0.21001   0.58439   0.87107   0.00000  Uiso   1.00
C675   C     0.16673   0.57921   0.75010   0.00000  Uiso   1.00
C676   C     0.12473   0.51374   0.90674   0.00000  Uiso   1.00
C677   C     0.20968   0.64554   0.74642   0.00000  Uiso   1.00
C678   C     0.14070   0.50444   0.84976   0.00000  Uiso   1.00
C679   C     0.20960   0.35481   0.74636   0.00000  Uiso   1.00
C680   C     0.16651   0.37611   0.75032   0.00000  Uiso   1.00
C681   C     0.12347   0.35444   0.75460   0.00000  Uiso   1.00
C682   C     0.12357   0.64517   0.75455   0.00000  Uiso   1.00
C683   C     0.16669   0.62387   0.75036   0.00000  Uiso   1.00
C684   C     0.30231   0.52986   0.77569   0.00000  Uiso   1.00
C685   C     0.01782   0.52928   0.77700   0.00000  Uiso   1.00
C686   C     0.14396   0.51533   0.98972   0.00000  Uiso   1.00
C687   C     0.03161   0.47150   0.72111   0.00000  Uiso   1.00
C688   C     0.31543   0.47113   0.72230   0.00000  Uiso   1.00
C689   C     0.16656   0.42079   0.75010   0.00000  Uiso   1.00
C690   C     0.19246   0.49909   0.64998   0.00000  Uiso   1.00
C691   C     0.26564   0.50282   0.50813   0.00000  Uiso   1.00
C692   C     0.20624   0.49967   0.59274   0.00000  Uiso   1.00
C693   C     0.07520   0.51530   0.93403   0.00000  Uiso   1.00
C694   C     0.06073   0.51994   0.98824   0.00000  Uiso   1.00
C695   C     0.09419   0.51717   0.51612   0.00000  Uiso   1.00
C696   C     0.15842   0.52035   0.93519   0.00000  Uiso   1.00
C697   C     0.18026   0.51055   0.51511   0.00000  Uiso   1.00
C698   C     0.22943   0.51262   0.98540   0.00000  Uiso   1.00
C699   C     0.24156   0.52787   0.93472   0.00000  Uiso   1.00
C700   C     0.20491   0.53577   0.91203   0.00000  Uiso   1.00
C701   C     0.16947   0.50347   0.56860   0.00000  Uiso   1.00
C702   C     0.25455   0.49742   0.56195   0.00000  Uiso   1.00
Cu703  Cu    0.11978   0.49999   0.75000   0.00000  Uiso   1.00
Cu704  Cu    0.21355   0.50001   0.75000   0.00000  Uiso   1.00
H705   H     0.28346   0.49208   0.57939   0.00000  Uiso   1.00
H706   H     0.13252   0.50163   0.59243   0.00000  Uiso   1.00
H707   H     0.04786   0.51385   0.91359   0.00000  Uiso   1.00
H708   H     0.08005   0.51867   0.55798   0.00000  Uiso   1.00
H709   H     0.02367   0.52524   0.50987   0.00000  Uiso   1.00
H710   H     0.24338   0.62967   0.74319   0.00000  Uiso   1.00
H711   H     0.24330   0.37096   0.74303   0.00000  Uiso   1.00
H712   H     0.08972   0.37028   0.75813   0.00000  Uiso   1.00
H713   H     0.08987   0.62902   0.75791   0.00000  Uiso   1.00
H714   H     0.27987   0.55501   0.79404   0.00000  Uiso   1.00
H715   H     0.03052   0.55302   0.79865   0.00000  Uiso   1.00
H716   H     0.30253   0.44823   0.69970   0.00000  Uiso   1.00
H717   H     0.27833   0.53739   0.91528   0.00000  Uiso   1.00
H718   H     0.30209   0.49951   0.98340   0.00000  Uiso   1.00
N719   N     0.04931   0.49999   0.74998   0.00000  Uiso   1.00
N720   N     0.28402   0.50002   0.74999   0.00000  Uiso   1.00
O721   O     0.12708   0.56011   0.75000   0.00000  Uiso   1.00
O722   O     0.20627   0.56012   0.75000   0.00000  Uiso   1.00
O723   O     0.10775   0.49998   0.82549   0.00000  Uiso   1.00
O724   O     0.18694   0.49999   0.82549   0.00000  Uiso   1.00
O725   O     0.12706   0.43988   0.74999   0.00000  Uiso   1.00
O726   O     0.20625   0.43989   0.74999   0.00000  Uiso   1.00
O727   O     0.14640   0.50001   0.67451   0.00000  Uiso   1.00
O728   O     0.22559   0.50002   0.67451   0.00000  Uiso   1.00
Br729  Br    0.40551   0.43241   0.67449   0.00000  Uiso   1.00
Br730  Br    0.54335   0.58439   0.87107   0.00000  Uiso   1.00
C731   C     0.50006   0.57921   0.75010   0.00000  Uiso   1.00
C732   C     0.45807   0.51374   0.90674   0.00000  Uiso   1.00
C733   C     0.54301   0.64554   0.74642   0.00000  Uiso   1.00
C734   C     0.47403   0.50444   0.84976   0.00000  Uiso   1.00
C735   C     0.54294   0.35481   0.74636   0.00000  Uiso   1.00
C736   C     0.49985   0.37611   0.75032   0.00000  Uiso   1.00
C737   C     0.45681   0.35444   0.75460   0.00000  Uiso   1.00
C738   C     0.45690   0.64517   0.75455   0.00000  Uiso   1.00
C739   C     0.50003   0.62387   0.75036   0.00000  Uiso   1.00
C740   C     0.63564   0.52986   0.77569   0.00000  Uiso   1.00
C741   C     0.35115   0.52928   0.77700   0.00000  Uiso   1.00
C742   C     0.47729   0.51533   0.98972   0.00000  Uiso   1.00
C743   C     0.36494   0.47150   0.72111   0.00000  Uiso   1.00
C744   C     0.64877   0.47113   0.72230   0.00000  Uiso   1.00
C745   C     0.49989   0.42079   0.75010   0.00000  Uiso   1.00
C746   C     0.52579   0.49909   0.64998   0.00000  Uiso   1.00
C747   C     0.59897   0.50282   0.50813   0.00000  Uiso   1.00
C748   C     0.53958   0.49967   0.59274   0.00000  Uiso   1.00
C749   C     0.40853   0.51530   0.93403   0.00000  Uiso   1.00
C750   C     0.39407   0.51994   0.98824   0.00000  Uiso   1.00
C751   C     0.42752   0.51717   0.51612   0.00000  Uiso   1.00
C752   C     0.49176   0.52035   0.93519   0.00000  Uiso   1.00
C753   C     0.51360   0.51055   0.51511   0.00000  Uiso   1.00
C754   C     0.56277   0.51262   0.98540   0.00000  Uiso   1.00
C755   C     0.57489   0.52787   0.93472   0.00000  Uiso   1.00
C756   C     0.53825   0.53577   0.91203   0.00000  Uiso   1.00
C757   C     0.50280   0.50347   0.56860   0.00000  Uiso   1.00
C758   C     0.58789   0.49742   0.56195   0.00000  Uiso   1.00
Cu759  Cu    0.45311   0.49999   0.75000   0.00000  Uiso   1.00
Cu760  Cu    0.54689   0.50001   0.75000   0.00000  Uiso   1.00
H761   H     0.61680   0.49208   0.57939   0.00000  Uiso   1.00
H762   H     0.46585   0.50163   0.59243   0.00000  Uiso   1.00
H763   H     0.38119   0.51385   0.91359   0.00000  Uiso   1.00
H764   H     0.41338   0.51867   0.55798   0.00000  Uiso   1.00
H765   H     0.35701   0.52524   0.50987   0.00000  Uiso   1.00
H766   H     0.57671   0.62967   0.74319   0.00000  Uiso   1.00
H767   H     0.57663   0.37096   0.74303   0.00000  Uiso   1.00
H768   H     0.42305   0.37028   0.75813   0.00000  Uiso   1.00
H769   H     0.42320   0.62902   0.75791   0.00000  Uiso   1.00
H770   H     0.61321   0.55501   0.79404   0.00000  Uiso   1.00
H771   H     0.36386   0.55302   0.79865   0.00000  Uiso   1.00
H772   H     0.63587   0.44823   0.69970   0.00000  Uiso   1.00
H773   H     0.61167   0.53739   0.91528   0.00000  Uiso   1.00
H774   H     0.63542   0.49951   0.98340   0.00000  Uiso   1.00
N775   N     0.38265   0.49999   0.74998   0.00000  Uiso   1.00
N776   N     0.61735   0.50002   0.74999   0.00000  Uiso   1.00
O777   O     0.46042   0.56011   0.75000   0.00000  Uiso   1.00
O778   O     0.53961   0.56012   0.75000   0.00000  Uiso   1.00
O779   O     0.44108   0.49998   0.82549   0.00000  Uiso   1.00
O780   O     0.52027   0.49999   0.82549   0.00000  Uiso   1.00
O781   O     0.46039   0.43988   0.74999   0.00000  Uiso   1.00
O782   O     0.53958   0.43989   0.74999   0.00000  Uiso   1.00
O783   O     0.47973   0.50001   0.67451   0.00000  Uiso   1.00
O784   O     0.55892   0.50002   0.67451   0.00000  Uiso   1.00
Br785  Br    0.73884   0.43241   0.67449   0.00000  Uiso   1.00
Br786  Br    0.87668   0.58439   0.87107   0.00000  Uiso   1.00
C787   C     0.83339   0.57921   0.75010   0.00000  Uiso   1.00
C788   C     0.79140   0.51374   0.90674   0.00000  Uiso   1.00
C789   C     0.87635   0.64554   0.74642   0.00000  Uiso   1.00
C790   C     0.80737   0.50444   0.84976   0.00000  Uiso   1.00
C791   C     0.87627   0.35481   0.74636   0.00000  Uiso   1.00
C792   C     0.83318   0.37611   0.75032   0.00000  Uiso   1.00
C793   C     0.79014   0.35444   0.75460   0.00000  Uiso   1.00
C794   C     0.79024   0.64517   0.75455   0.00000  Uiso   1.00
C795   C     0.83336   0.62387   0.75036   0.00000  Uiso   1.00
C796   C     0.96897   0.52986   0.77569   0.00000  Uiso   1.00
C797   C     0.68449   0.52928   0.77700   0.00000  Uiso   1.00
C798   C     0.81062   0.51533   0.98972   0.00000  Uiso   1.00
C799   C     0.69828   0.47150   0.72111   0.00000  Uiso   1.00
C800   C     0.98210   0.47113   0.72230   0.00000  Uiso   1.00
C801   C     0.83323   0.42079   0.75010   0.00000  Uiso   1.00
C802   C     0.85913   0.49909   0.64998   0.00000  Uiso   1.00
C803   C     0.93231   0.50282   0.50813   0.00000  Uiso   1.00
C804   C     0.87291   0.49967   0.59274   0.00000  Uiso   1.00
C805   C     0.74186   0.51530   0.93403   0.00000  Uiso   1.00
C806   C     0.72740   0.51994   0.98824   0.00000  Uiso   1.00
C807   C     0.76086   0.51717   0.51612   0.00000  Uiso   1.00
C808   C     0.82509   0.52035   0.93519   0.00000  Uiso   1.00
C809   C     0.84693   0.51055   0.51511   0.00000  Uiso   1.00
C810   C     0.89610   0.51262   0.98540   0.00000  Uiso   1.00
C811   C     0.90823   0.52787   0.93472   0.00000  Uiso   1.00
C812   C     0.87158   0.53577   0.91203   0.00000  Uiso   1.00
C813   C     0.83613   0.50347   0.56860   0.00000  Uiso   1.00
C814   C     0.92122   0.49742   0.56195   0.00000  Uiso   1.00
Cu815  Cu    0.78645   0.49999   0.75000   0.00000  Uiso   1.00
Cu816  Cu    0.88022   0.50001   0.75000   0.00000  Uiso   1.00
H817   H     0.95013   0.49208   0.57939   0.00000  Uiso   1.00
H818   H     0.79918   0.50163   0.59243   0.00000  Uiso   1.00
H819   H     0.71452   0.51385   0.91359   0.00000  Uiso   1.00
H820   H     0.74671   0.51867   0.55798   0.00000  Uiso   1.00
H821   H     0.69034   0.52524   0.50987   0.00000  Uiso   1.00
H822   H     0.91004   0.62967   0.74319   0.00000  Uiso   1.00
H823   H     0.90996   0.37096   0.74303   0.00000  Uiso   1.00
H824   H     0.75638   0.37028   0.75813   0.00000  Uiso   1.00
H825   H     0.75654   0.62902   0.75791   0.00000  Uiso   1.00
H826   H     0.94654   0.55501   0.79404   0.00000  Uiso   1.00
H827   H     0.69719   0.55302   0.79865   0.00000  Uiso   1.00
H828   H     0.96920   0.44823   0.69970   0.00000  Uiso   1.00
H829   H     0.94500   0.53739   0.91528   0.00000  Uiso   1.00
H830   H     0.96875   0.49951   0.98340   0.00000  Uiso   1.00
N831   N     0.71598   0.49999   0.74998   0.00000  Uiso   1.00
N832   N     0.95069   0.50002   0.74999   0.00000  Uiso   1.00
O833   O     0.79375   0.56011   0.75000   0.00000  Uiso   1.00
O834   O     0.87294   0.56012   0.75000   0.00000  Uiso   1.00
O835   O     0.77441   0.49998   0.82549   0.00000  Uiso   1.00
O836   O     0.85360   0.49999   0.82549   0.00000  Uiso   1.00
O837   O     0.79373   0.43988   0.74999   0.00000  Uiso   1.00
O838   O     0.87292   0.43989   0.74999   0.00000  Uiso   1.00
O839   O     0.81306   0.50001   0.67451   0.00000  Uiso   1.00
O840   O     0.89225   0.50002   0.67451   0.00000  Uiso   1.00
Br841  Br    0.07217   0.76575   0.67449   0.00000  Uiso   1.00
Br842  Br    0.21001   0.91772   0.87107   0.00000  Uiso   1.00
C843   C     0.16673   0.91254   0.75010   0.00000  Uiso   1.00
C844   C     0.12473   0.84707   0.90674   0.00000  Uiso   1.00
C845   C     0.20968   0.97887   0.74642   0.00000  Uiso   1.00
C846   C     0.14070   0.83778   0.84976   0.00000  Uiso   1.00
C847   C     0.20960   0.68814   0.74636   0.00000  Uiso   1.00
C848   C     0.16651   0.70945   0.75032   0.00000  Uiso   1.00
C849   C     0.12347   0.68777   0.75460   0.00000  Uiso   1.00
C850   C     0.12357   0.97850   0.75455   0.00000  Uiso   1.00
C851   C     0.16669   0.95721   0.75036   0.00000  Uiso   1.00
C852   C     0.30231   0.86320   0.77569   0.00000  Uiso   1.00
C853   C     0.01782   0.86262   0.77700   0.00000  Uiso   1.00
C854   C     0.14396   0.84866   0.98972   0.00000  Uiso   1.00
C855   C     0.03161   0.80484   0.72111   0.00000  Uiso   1.00
C856   C     0.31543   0.80446   0.72230   0.00000  Uiso   1.00
C857   C     0.16656   0.75412   0.75010   0.00000  Uiso   1.00
C858   C     0.19246   0.83242   0.64998   0.00000  Uiso   1.00
C859   C     0.26564   0.83615   0.50813   0.00000  Uiso   1.00
C860   C     0.20624   0.83300   0.59274   0.00000  Uiso   1.00
C861   C     0.07520   0.84863   0.93403   0.00000  Uiso   1.00
C862   C     0.06073   0.85328   0.98824   0.00000  Uiso   1.00
C863   C     0.09419   0.85050   0.51612   0.00000  Uiso   1.00
C864   C     0.15842   0.85368   0.93519   0.00000  Uiso   1.00
C865   C     0.18026   0.84388   0.51511   0.00000  Uiso   1.00
C866   C     0.22943   0.84595   0.98540   0.00000  Uiso   1.00
C867   C     0.24156   0.86120   0.93472   0.00000  Uiso   1.00
C868   C     0.20491   0.86910   0.91203   0.00000  Uiso   1.00
C869   C     0.16947   0.83681   0.56860   0.00000  Uiso   1.00
C870   C     0.25455   0.83076   0.56195   0.00000  Uiso   1.00
Cu871  Cu    0.11978   0.83333   0.75000   0.00000  Uiso   1.00
Cu872  Cu    0.21355   0.83334   0.75000   0.00000  Uiso   1.00
H873   H     0.28346   0.82541   0.57939   0.00000  Uiso   1.00
H874   H     0.13252   0.83496   0.59243   0.00000  Uiso   1.00
H875   H     0.04786   0.84718   0.91359   0.00000  Uiso   1.00
H876   H     0.08005   0.85201   0.55798   0.00000  Uiso   1.00
H877   H     0.02367   0.85857   0.50987   0.00000  Uiso   1.00
H878   H     0.24338   0.96300   0.74319   0.00000  Uiso   1.00
H879   H     0.24330   0.70429   0.74303   0.00000  Uiso   1.00
H880   H     0.08972   0.70361   0.75813   0.00000  Uiso   1.00
H881   H     0.08987   0.96236   0.75791   0.00000  Uiso   1.00
H882   H     0.27987   0.88834   0.79404   0.00000  Uiso   1.00
H883   H     0.03052   0.88635   0.79865   0.00000  Uiso   1.00
H884   H     0.30253   0.78156   0.69970   0.00000  Uiso   1.00
H885   H     0.27833   0.87073   0.91528   0.00000  Uiso   1.00
H886   H     0.30209   0.83284   0.98340   0.00000  Uiso   1.00
N887   N     0.04931   0.83332   0.74998   0.00000  Uiso   1.00
N888   N     0.28402   0.83335   0.74999   0.00000  Uiso   1.00
O889   O     0.12708   0.89345   0.75000   0.00000  Uiso   1.00
O890   O     0.20627   0.89346   0.75000   0.00000  Uiso   1.00
O891   O     0.10775   0.83332   0.82549   0.00000  Uiso   1.00
O892   O     0.18694   0.83333   0.82549   0.00000  Uiso   1.00
O893   O     0.12706   0.77321   0.74999   0.00000  Uiso   1.00
O894   O     0.20625   0.77322   0.74999   0.00000  Uiso   1.00
O895   O     0.14640   0.83334   0.67451   0.00000  Uiso   1.00
O896   O     0.22559   0.83335   0.67451   0.00000  Uiso   1.00
Br897  Br    0.40551   0.76575   0.67449   0.00000  Uiso   1.00
Br898  Br    0.54335   0.91772   0.87107   0.00000  Uiso   1.00
C899   C     0.50006   0.91254   0.75010   0.00000  Uiso   1.00
C900   C     0.45807   0.84707   0.90674   0.00000  Uiso   1.00
C901   C     0.54301   0.97887   0.74642   0.00000  Uiso   1.00
C902   C     0.47403   0.83778   0.84976   0.00000  Uiso   1.00
C903   C     0.54294   0.68814   0.74636   0.00000  Uiso   1.00
C904   C     0.49985   0.70945   0.75032   0.00000  Uiso   1.00
C905   C     0.45681   0.68777   0.75460   0.00000  Uiso   1.00
C906   C     0.45690   0.97850   0.75455   0.00000  Uiso   1.00
C907   C     0.50003   0.95721   0.75036   0.00000  Uiso   1.00
C908   C     0.63564   0.86320   0.77569   0.00000  Uiso   1.00
C909   C     0.35115   0.86262   0.77700   0.00000  Uiso   1.00
C910   C     0.47729   0.84866   0.98972   0.00000  Uiso   1.00
C911   C     0.36494   0.80484   0.72111   0.00000  Uiso   1.00
C912   C     0.64877   0.80446   0.72230   0.00000  Uiso   1.00
C913   C     0.49989   0.75412   0.75010   0.00000  Uiso   1.00
C914   C     0.52579   0.83242   0.64998   0.00000  Uiso   1.00
C915   C     0.59897   0.83615   0.50813   0.00000  Uiso   1.00
C916   C     0.53958   0.83300   0.59274   0.00000  Uiso   1.00
C917   C     0.40853   0.84863   0.93403   0.00000  Uiso   1.00
C918   C     0.39407   0.85328   0.98824   0.00000  Uiso   1.00
C919   C     0.42752   0.85050   0.51612   0.00000  Uiso   1.00
C920   C     0.49176   0.85368   0.93519   0.00000  Uiso   1.00
C921   C     0.51360   0.84388   0.51511   0.00000  Uiso   1.00
C922   C     0.56277   0.84595   0.98540   0.00000  Uiso   1.00
C923   C     0.57489   0.86120   0.93472   0.00000  Uiso   1.00
C924   C     0.53825   0.86910   0.91203   0.00000  Uiso   1.00
C925   C     0.50280   0.83681   0.56860   0.00000  Uiso   1.00
C926   C     0.58789   0.83076   0.56195   0.00000  Uiso   1.00
Cu927  Cu    0.45311   0.83333   0.75000   0.00000  Uiso   1.00
Cu928  Cu    0.54689   0.83334   0.75000   0.00000  Uiso   1.00
H929   H     0.61680   0.82541   0.57939   0.00000  Uiso   1.00
H930   H     0.46585   0.83496   0.59243   0.00000  Uiso   1.00
H931   H     0.38119   0.84718   0.91359   0.00000  Uiso   1.00
H932   H     0.41338   0.85201   0.55798   0.00000  Uiso   1.00
H933   H     0.35701   0.85857   0.50987   0.00000  Uiso   1.00
H934   H     0.57671   0.96300   0.74319   0.00000  Uiso   1.00
H935   H     0.57663   0.70429   0.74303   0.00000  Uiso   1.00
H936   H     0.42305   0.70361   0.75813   0.00000  Uiso   1.00
H937   H     0.42320   0.96236   0.75791   0.00000  Uiso   1.00
H938   H     0.61321   0.88834   0.79404   0.00000  Uiso   1.00
H939   H     0.36386   0.88635   0.79865   0.00000  Uiso   1.00
H940   H     0.63587   0.78156   0.69970   0.00000  Uiso   1.00
H941   H     0.61167   0.87073   0.91528   0.00000  Uiso   1.00
H942   H     0.63542   0.83284   0.98340   0.00000  Uiso   1.00
N943   N     0.38265   0.83332   0.74998   0.00000  Uiso   1.00
N944   N     0.61735   0.83335   0.74999   0.00000  Uiso   1.00
O945   O     0.46042   0.89345   0.75000   0.00000  Uiso   1.00
O946   O     0.53961   0.89346   0.75000   0.00000  Uiso   1.00
O947   O     0.44108   0.83332   0.82549   0.00000  Uiso   1.00
O948   O     0.52027   0.83333   0.82549   0.00000  Uiso   1.00
O949   O     0.46039   0.77321   0.74999   0.00000  Uiso   1.00
O950   O     0.53958   0.77322   0.74999   0.00000  Uiso   1.00
O951   O     0.47973   0.83334   0.67451   0.00000  Uiso   1.00
O952   O     0.55892   0.83335   0.67451   0.00000  Uiso   1.00
Br953  Br    0.73884   0.76575   0.67449   0.00000  Uiso   1.00
Br954  Br    0.87668   0.91772   0.87107   0.00000  Uiso   1.00
C955   C     0.83339   0.91254   0.75010   0.00000  Uiso   1.00
C956   C     0.79140   0.84707   0.90674   0.00000  Uiso   1.00
C957   C     0.87635   0.97887   0.74642   0.00000  Uiso   1.00
C958   C     0.80737   0.83778   0.84976   0.00000  Uiso   1.00
C959   C     0.87627   0.68814   0.74636   0.00000  Uiso   1.00
C960   C     0.83318   0.70945   0.75032   0.00000  Uiso   1.00
C961   C     0.79014   0.68777   0.75460   0.00000  Uiso   1.00
C962   C     0.79024   0.97850   0.75455   0.00000  Uiso   1.00
C963   C     0.83336   0.95721   0.75036   0.00000  Uiso   1.00
C964   C     0.96897   0.86320   0.77569   0.00000  Uiso   1.00
C965   C     0.68449   0.86262   0.77700   0.00000  Uiso   1.00
C966   C     0.81062   0.84866   0.98972   0.00000  Uiso   1.00
C967   C     0.69828   0.80484   0.72111   0.00000  Uiso   1.00
C968   C     0.98210   0.80446   0.72230   0.00000  Uiso   1.00
C969   C     0.83323   0.75412   0.75010   0.00000  Uiso   1.00
C970   C     0.85913   0.83242   0.64998   0.00000  Uiso   1.00
C971   C     0.93231   0.83615   0.50813   0.00000  Uiso   1.00
C972   C     0.87291   0.83300   0.59274   0.00000  Uiso   1.00
C973   C     0.74186   0.84863   0.93403   0.00000  Uiso   1.00
C974   C     0.72740   0.85328   0.98824   0.00000  Uiso   1.00
C975   C     0.76086   0.85050   0.51612   0.00000  Uiso   1.00
C976   C     0.82509   0.85368   0.93519   0.00000  Uiso   1.00
C977   C     0.84693   0.84388   0.51511   0.00000  Uiso   1.00
C978   C     0.89610   0.84595   0.98540   0.00000  Uiso   1.00
C979   C     0.90823   0.86120   0.93472   0.00000  Uiso   1.00
C980   C     0.87158   0.86910   0.91203   0.00000  Uiso   1.00
C981   C     0.83613   0.83681   0.56860   0.00000  Uiso   1.00
C982   C     0.92122   0.83076   0.56195   0.00000  Uiso   1.00
Cu983  Cu    0.78645   0.83333   0.75000   0.00000  Uiso   1.00
Cu984  Cu    0.88022   0.83334   0.75000   0.00000  Uiso   1.00
H985   H     0.95013   0.82541   0.57939   0.00000  Uiso   1.00
H986   H     0.79918   0.83496   0.59243   0.00000  Uiso   1.00
H987   H     0.71452   0.84718   0.91359   0.00000  Uiso   1.00
H988   H     0.74671   0.85201   0.55798   0.00000  Uiso   1.00
H989   H     0.69034   0.85857   0.50987   0.00000  Uiso   1.00
H990   H     0.91004   0.96300   0.74319   0.00000  Uiso   1.00
H991   H     0.90996   0.70429   0.74303   0.00000  Uiso   1.00
H992   H     0.75638   0.70361   0.75813   0.00000  Uiso   1.00
H993   H     0.75654   0.96236   0.75791   0.00000  Uiso   1.00
H994   H     0.94654   0.88834   0.79404   0.00000  Uiso   1.00
H995   H     0.69719   0.88635   0.79865   0.00000  Uiso   1.00
H996   H     0.96920   0.78156   0.69970   0.00000  Uiso   1.00
H997   H     0.94500   0.87073   0.91528   0.00000  Uiso   1.00
H998   H     0.96875   0.83284   0.98340   0.00000  Uiso   1.00
N999   N     0.71598   0.83332   0.74998   0.00000  Uiso   1.00
N1000  N     0.95069   0.83335   0.74999   0.00000  Uiso   1.00
O1001  O     0.79375   0.89345   0.75000   0.00000  Uiso   1.00
O1002  O     0.87294   0.89346   0.75000   0.00000  Uiso   1.00
O1003  O     0.77441   0.83332   0.82549   0.00000  Uiso   1.00
O1004  O     0.85360   0.83333   0.82549   0.00000  Uiso   1.00
O1005  O     0.79373   0.77321   0.74999   0.00000  Uiso   1.00
O1006  O     0.87292   0.77322   0.74999   0.00000  Uiso   1.00
O1007  O     0.81306   0.83334   0.67451   0.00000  Uiso   1.00
O1008  O     0.89225   0.83335   0.67451   0.00000  Uiso   1.00
loop_
_geom_bond_atom_site_label_1
_geom_bond_atom_site_label_2
_geom_bond_distance
_geom_bond_site_symmetry_2
_ccdc_geom_bond_type
Br1    C15     1.914   .     S
Br2    C28     1.918   .     S
C3     O49     1.299   .     A
C3     O50     1.301   .     A
C3     C11     1.450   .     S
C4     C21     1.406   .     A
C4     C24     1.411   .     A
C4     C6      1.488   .     S
C5     C11     1.400   .     A
C5     H38     1.083   .     S
C5     C175    1.384   .     S
C6     O51     1.304   .     A
C6     O52     1.312   .     A
C7     C8      1.402   .     A
C7     H39     1.083   .     S
C7     C341    1.384   1_545 S
C8     C17     1.451   .     S
C8     C9      1.400   .     A
C9     H40     1.083   .     S
C9     C346    1.383   1_545 S
C10    H41     1.083   .     S
C10    C11     1.402   .     A
C10    C177    1.383   .     S
C12    H42     1.066   .     S
C12    N48     1.369   .     A
C12    C69     1.420   .     S
C13    H43     1.082   .     S
C13    N47     1.365   .     A
C13    C124    1.420   1_455 S
C14    C24     1.411   .     A
C14    C527    1.407   .     S
C14    C529    1.414   .     S
C15    N47     1.384   .     A
C15    C128    1.419   1_455 S
C16    H44     1.082   .     S
C16    N48     1.361   .     A
C16    C71     1.419   .     S
C17    O54     1.298   .     A
C17    O53     1.301   .     A
C18    O56     1.307   .     A
C18    O55     1.302   .     A
C18    C20     1.470   .     S
C19    C30     1.398   .     A
C19    C530    1.393   1_554 S
C19    H550    1.074   1_554 S
C20    C30     1.401   .     A
C20    C29     1.399   .     A
C21    H35     1.083   .     S
C21    C22     1.397   .     A
C22    C527    1.384   .     S
C22    H541    1.072   .     S
C23    H36     1.078   .     S
C23    C526    1.384   1_554 S
C23    C518    1.407   1_554 S
C24    C28     1.399   .     A
C25    C29     1.398   .     A
C25    C518    1.414   1_554 S
C25    C530    1.414   1_554 S
C26    C27     1.399   .     A
C26    C529    1.414   .     S
C26    C523    1.393   .     S
C27    H45     1.084   .     S
C27    C28     1.390   .     A
C29    H34     1.075   .     S
C30    H33     1.083   .     S
Cu31   Cu32    2.705   .     S
Cu31   O53     1.965   .     S
Cu31   O49     1.963   .     S
Cu31   N47     2.033   .     S
Cu31   O55     1.945   .     S
Cu31   O51     1.951   .     S
Cu32   N48     2.033   .     S
Cu32   O54     1.963   .     S
Cu32   O52     1.945   .     S
Cu32   O56     1.951   .     S
Cu32   O50     1.965   .     S
H37    C526    1.072   1_554 S
H46    C523    1.074   .     S
Br57   C71     1.914   .     S
Br58   C84     1.918   .     S
C59    O105    1.299   .     A
C59    O106    1.301   .     A
C59    C67     1.450   .     S
C60    C77     1.406   .     A
C60    C80     1.411   .     A
C60    C62     1.488   .     S
C61    C67     1.400   .     A
C61    H94     1.083   .     S
C61    C231    1.384   .     S
C62    O107    1.304   .     A
C62    O108    1.312   .     A
C63    C64     1.402   .     A
C63    H95     1.083   .     S
C63    C397    1.384   1_545 S
C64    C73     1.451   .     S
C64    C65     1.400   .     A
C65    H96     1.083   .     S
C65    C402    1.383   1_545 S
C66    H97     1.083   .     S
C66    C67     1.402   .     A
C66    C233    1.383   .     S
C68    H98     1.066   .     S
C68    N104    1.369   .     A
C68    C125    1.420   .     S
C69    H99     1.082   .     S
C69    N103    1.365   .     A
C70    C80     1.411   .     A
C70    C583    1.407   .     S
C70    C585    1.414   .     S
C71    N103    1.384   .     A
C72    H100    1.082   .     S
C72    N104    1.361   .     A
C72    C127    1.419   .     S
C73    O110    1.298   .     A
C73    O109    1.301   .     A
C74    O112    1.307   .     A
C74    O111    1.302   .     A
C74    C76     1.470   .     S
C75    C86     1.398   .     A
C75    C586    1.393   1_554 S
C75    H606    1.074   1_554 S
C76    C86     1.401   .     A
C76    C85     1.399   .     A
C77    H91     1.083   .     S
C77    C78     1.397   .     A
C78    C583    1.384   .     S
C78    H597    1.072   .     S
C79    H92     1.078   .     S
C79    C582    1.384   1_554 S
C79    C574    1.407   1_554 S
C80    C84     1.399   .     A
C81    C85     1.398   .     A
C81    C574    1.414   1_554 S
C81    C586    1.414   1_554 S
C82    C83     1.399   .     A
C82    C585    1.414   .     S
C82    C579    1.393   .     S
C83    H101    1.084   .     S
C83    C84     1.390   .     A
C85    H90     1.075   .     S
C86    H89     1.083   .     S
Cu87   Cu88    2.705   .     S
Cu87   O109    1.965   .     S
Cu87   O105    1.963   .     S
Cu87   N103    2.033   .     S
Cu87   O111    1.945   .     S
Cu87   O107    1.951   .     S
Cu88   N104    2.033   .     S
Cu88   O110    1.963   .     S
Cu88   O108    1.945   .     S
Cu88   O112    1.951   .     S
Cu88   O106    1.965   .     S
H93    C582    1.072   1_554 S
H102   C579    1.074   .     S
Br113  C127    1.914   .     S
Br114  C140    1.918   .     S
C115   O161    1.299   .     A
C115   O162    1.301   .     A
C115   C123    1.450   .     S
C116   C133    1.406   .     A
C116   C136    1.411   .     A
C116   C118    1.488   .     S
C117   C123    1.400   .     A
C117   H150    1.083   .     S
C117   C287    1.384   .     S
C118   O163    1.304   .     A
C118   O164    1.312   .     A
C119   C120    1.402   .     A
C119   H151    1.083   .     S
C119   C453    1.384   1_545 S
C120   C129    1.451   .     S
C120   C121    1.400   .     A
C121   H152    1.083   .     S
C121   C458    1.383   1_545 S
C122   H153    1.083   .     S
C122   C123    1.402   .     A
C122   C289    1.383   .     S
C124   H154    1.066   .     S
C124   N160    1.369   .     A
C124   C13     1.420   1_655 S
C125   H155    1.082   .     S
C125   N159    1.365   .     A
C126   C136    1.411   .     A
C126   C639    1.407   .     S
C126   C641    1.414   .     S
C127   N159    1.384   .     A
C128   H156    1.082   .     S
C128   N160    1.361   .     A
C128   C15     1.419   1_655 S
C129   O166    1.298   .     A
C129   O165    1.301   .     A
C130   O168    1.307   .     A
C130   O167    1.302   .     A
C130   C132    1.470   .     S
C131   C142    1.398   .     A
C131   C642    1.393   1_554 S
C131   H662    1.074   1_554 S
C132   C142    1.401   .     A
C132   C141    1.399   .     A
C133   H147    1.083   .     S
C133   C134    1.397   .     A
C134   C639    1.384   .     S
C134   H653    1.072   .     S
C135   H148    1.078   .     S
C135   C638    1.384   1_554 S
C135   C630    1.407   1_554 S
C136   C140    1.399   .     A
C137   C141    1.398   .     A
C137   C630    1.414   1_554 S
C137   C642    1.414   1_554 S
C138   C139    1.399   .     A
C138   C641    1.414   .     S
C138   C635    1.393   .     S
C139   H157    1.084   .     S
C139   C140    1.390   .     A
C141   H146    1.075   .     S
C142   H145    1.083   .     S
Cu143  Cu144   2.705   .     S
Cu143  O165    1.965   .     S
Cu143  O161    1.963   .     S
Cu143  N159    2.033   .     S
Cu143  O167    1.945   .     S
Cu143  O163    1.951   .     S
Cu144  N160    2.033   .     S
Cu144  O166    1.963   .     S
Cu144  O164    1.945   .     S
Cu144  O168    1.951   .     S
Cu144  O162    1.965   .     S
H149   C638    1.072   1_554 S
H158   C635    1.074   .     S
Br169  C183    1.914   .     S
Br170  C196    1.918   .     S
C171   O217    1.299   .     A
C171   O218    1.301   .     A
C171   C179    1.450   .     S
C172   C189    1.406   .     A
C172   C192    1.411   .     A
C172   C174    1.488   .     S
C173   C179    1.400   .     A
C173   H206    1.083   .     S
C173   C343    1.384   .     S
C174   O219    1.304   .     A
C174   O220    1.312   .     A
C175   C176    1.402   .     A
C175   H207    1.083   .     S
C176   C185    1.451   .     S
C176   C177    1.400   .     A
C177   H208    1.083   .     S
C178   H209    1.083   .     S
C178   C179    1.402   .     A
C178   C345    1.383   .     S
C180   H210    1.066   .     S
C180   N216    1.369   .     A
C180   C237    1.420   .     S
C181   H211    1.082   .     S
C181   N215    1.365   .     A
C181   C292    1.420   1_455 S
C182   C192    1.411   .     A
C182   C695    1.407   .     S
C182   C697    1.414   .     S
C183   N215    1.384   .     A
C183   C296    1.419   1_455 S
C184   H212    1.082   .     S
C184   N216    1.361   .     A
C184   C239    1.419   .     S
C185   O222    1.298   .     A
C185   O221    1.301   .     A
C186   O224    1.307   .     A
C186   O223    1.302   .     A
C186   C188    1.470   .     S
C187   C198    1.398   .     A
C187   C698    1.393   1_554 S
C187   H718    1.074   1_554 S
C188   C198    1.401   .     A
C188   C197    1.399   .     A
C189   H203    1.083   .     S
C189   C190    1.397   .     A
C190   C695    1.384   .     S
C190   H709    1.072   .     S
C191   H204    1.078   .     S
C191   C694    1.384   1_554 S
C191   C686    1.407   1_554 S
C192   C196    1.399   .     A
C193   C197    1.398   .     A
C193   C686    1.414   1_554 S
C193   C698    1.414   1_554 S
C194   C195    1.399   .     A
C194   C697    1.414   .     S
C194   C691    1.393   .     S
C195   H213    1.084   .     S
C195   C196    1.390   .     A
C197   H202    1.075   .     S
C198   H201    1.083   .     S
Cu199  Cu200   2.705   .     S
Cu199  O221    1.965   .     S
Cu199  O217    1.963   .     S
Cu199  N215    2.033   .     S
Cu199  O223    1.945   .     S
Cu199  O219    1.951   .     S
Cu200  N216    2.033   .     S
Cu200  O222    1.963   .     S
Cu200  O220    1.945   .     S
Cu200  O224    1.951   .     S
Cu200  O218    1.965   .     S
H205   C694    1.072   1_554 S
H214   C691    1.074   .     S
Br225  C239    1.914   .     S
Br226  C252    1.918   .     S
C227   O273    1.299   .     A
C227   O274    1.301   .     A
C227   C235    1.450   .     S
C228   C245    1.406   .     A
C228   C248    1.411   .     A
C228   C230    1.488   .     S
C229   C235    1.400   .     A
C229   H262    1.083   .     S
C229   C399    1.384   .     S
C230   O275    1.304   .     A
C230   O276    1.312   .     A
C231   C232    1.402   .     A
C231   H263    1.083   .     S
C232   C241    1.451   .     S
C232   C233    1.400   .     A
C233   H264    1.083   .     S
C234   H265    1.083   .     S
C234   C235    1.402   .     A
C234   C401    1.383   .     S
C236   H266    1.066   .     S
C236   N272    1.369   .     A
C236   C293    1.420   .     S
C237   H267    1.082   .     S
C237   N271    1.365   .     A
C238   C248    1.411   .     A
C238   C751    1.407   .     S
C238   C753    1.414   .     S
C239   N271    1.384   .     A
C240   H268    1.082   .     S
C240   N272    1.361   .     A
C240   C295    1.419   .     S
C241   O278    1.298   .     A
C241   O277    1.301   .     A
C242   O280    1.307   .     A
C242   O279    1.302   .     A
C242   C244    1.470   .     S
C243   C254    1.398   .     A
C243   C754    1.393   1_554 S
C243   H774    1.074   1_554 S
C244   C254    1.401   .     A
C244   C253    1.399   .     A
C245   H259    1.083   .     S
C245   C246    1.397   .     A
C246   C751    1.384   .     S
C246   H765    1.072   .     S
C247   H260    1.078   .     S
C247   C750    1.384   1_554 S
C247   C742    1.407   1_554 S
C248   C252    1.399   .     A
C249   C253    1.398   .     A
C249   C742    1.414   1_554 S
C249   C754    1.414   1_554 S
C250   C251    1.399   .     A
C250   C753    1.414   .     S
C250   C747    1.393   .     S
C251   H269    1.084   .     S
C251   C252    1.390   .     A
C253   H258    1.075   .     S
C254   H257    1.083   .     S
Cu255  Cu256   2.705   .     S
Cu255  O277    1.965   .     S
Cu255  O273    1.963   .     S
Cu255  N271    2.033   .     S
Cu255  O279    1.945   .     S
Cu255  O275    1.951   .     S
Cu256  N272    2.033   .     S
Cu256  O278    1.963   .     S
Cu256  O276    1.945   .     S
Cu256  O280    1.951   .     S
Cu256  O274    1.965   .     S
H261   C750    1.072   1_554 S
H270   C747    1.074   .     S
Br281  C295    1.914   .     S
Br282  C308    1.918   .     S
C283   O329    1.299   .     A
C283   O330    1.301   .     A
C283   C291    1.450   .     S
C284   C301    1.406   .     A
C284   C304    1.411   .     A
C284   C286    1.488   .     S
C285   C291    1.400   .     A
C285   H318    1.083   .     S
C285   C455    1.384   .     S
C286   O331    1.304   .     A
C286   O332    1.312   .     A
C287   C288    1.402   .     A
C287   H319    1.083   .     S
C288   C297    1.451   .     S
C288   C289    1.400   .     A
C289   H320    1.083   .     S
C290   H321    1.083   .     S
C290   C291    1.402   .     A
C290   C457    1.383   .     S
C292   H322    1.066   .     S
C292   N328    1.369   .     A
C292   C181    1.420   1_655 S
C293   H323    1.082   .     S
C293   N327    1.365   .     A
C294   C304    1.411   .     A
C294   C807    1.407   .     S
C294   C809    1.414   .     S
C295   N327    1.384   .     A
C296   H324    1.082   .     S
C296   N328    1.361   .     A
C296   C183    1.419   1_655 S
C297   O334    1.298   .     A
C297   O333    1.301   .     A
C298   O336    1.307   .     A
C298   O335    1.302   .     A
C298   C300    1.470   .     S
C299   C310    1.398   .     A
C299   C810    1.393   1_554 S
C299   H830    1.074   1_554 S
C300   C310    1.401   .     A
C300   C309    1.399   .     A
C301   H315    1.083   .     S
C301   C302    1.397   .     A
C302   C807    1.384   .     S
C302   H821    1.072   .     S
C303   H316    1.078   .     S
C303   C806    1.384   1_554 S
C303   C798    1.407   1_554 S
C304   C308    1.399   .     A
C305   C309    1.398   .     A
C305   C798    1.414   1_554 S
C305   C810    1.414   1_554 S
C306   C307    1.399   .     A
C306   C809    1.414   .     S
C306   C803    1.393   .     S
C307   H325    1.084   .     S
C307   C308    1.390   .     A
C309   H314    1.075   .     S
C310   H313    1.083   .     S
Cu311  Cu312   2.705   .     S
Cu311  O333    1.965   .     S
Cu311  O329    1.963   .     S
Cu311  N327    2.033   .     S
Cu311  O335    1.945   .     S
Cu311  O331    1.951   .     S
Cu312  N328    2.033   .     S
Cu312  O334    1.963   .     S
Cu312  O332    1.945   .     S
Cu312  O336    1.951   .     S
Cu312  O330    1.965   .     S
H317   C806    1.072   1_554 S
H326   C803    1.074   .     S
Br337  C351    1.914   .     S
Br338  C364    1.918   .     S
C339   O385    1.299   .     A
C339   O386    1.301   .     A
C339   C347    1.450   .     S
C340   C357    1.406   .     A
C340   C360    1.411   .     A
C340   C342    1.488   .     S
C341   C347    1.400   .     A
C341   H374    1.083   .     S
C341   C7      1.384   1_565 S
C342   O387    1.304   .     A
C342   O388    1.312   .     A
C343   C344    1.402   .     A
C343   H375    1.083   .     S
C344   C353    1.451   .     S
C344   C345    1.400   .     A
C345   H376    1.083   .     S
C346   H377    1.083   .     S
C346   C347    1.402   .     A
C346   C9      1.383   1_565 S
C348   H378    1.066   .     S
C348   N384    1.369   .     A
C348   C405    1.420   .     S
C349   H379    1.082   .     S
C349   N383    1.365   .     A
C349   C460    1.420   1_455 S
C350   C360    1.411   .     A
C350   C863    1.407   .     S
C350   C865    1.414   .     S
C351   N383    1.384   .     A
C351   C464    1.419   1_455 S
C352   H380    1.082   .     S
C352   N384    1.361   .     A
C352   C407    1.419   .     S
C353   O390    1.298   .     A
C353   O389    1.301   .     A
C354   O392    1.307   .     A
C354   O391    1.302   .     A
C354   C356    1.470   .     S
C355   C366    1.398   .     A
C355   C866    1.393   1_554 S
C355   H886    1.074   1_554 S
C356   C366    1.401   .     A
C356   C365    1.399   .     A
C357   H371    1.083   .     S
C357   C358    1.397   .     A
C358   C863    1.384   .     S
C358   H877    1.072   .     S
C359   H372    1.078   .     S
C359   C862    1.384   1_554 S
C359   C854    1.407   1_554 S
C360   C364    1.399   .     A
C361   C365    1.398   .     A
C361   C854    1.414   1_554 S
C361   C866    1.414   1_554 S
C362   C363    1.399   .     A
C362   C865    1.414   .     S
C362   C859    1.393   .     S
C363   H381    1.084   .     S
C363   C364    1.390   .     A
C365   H370    1.075   .     S
C366   H369    1.083   .     S
Cu367  Cu368   2.705   .     S
Cu367  O389    1.965   .     S
Cu367  O385    1.963   .     S
Cu367  N383    2.033   .     S
Cu367  O391    1.945   .     S
Cu367  O387    1.951   .     S
Cu368  N384    2.033   .     S
Cu368  O390    1.963   .     S
Cu368  O388    1.945   .     S
Cu368  O392    1.951   .     S
Cu368  O386    1.965   .     S
H373   C862    1.072   1_554 S
H382   C859    1.074   .     S
Br393  C407    1.914   .     S
Br394  C420    1.918   .     S
C395   O441    1.299   .     A
C395   O442    1.301   .     A
C395   C403    1.450   .     S
C396   C413    1.406   .     A
C396   C416    1.411   .     A
C396   C398    1.488   .     S
C397   C403    1.400   .     A
C397   H430    1.083   .     S
C397   C63     1.384   1_565 S
C398   O443    1.304   .     A
C398   O444    1.312   .     A
C399   C400    1.402   .     A
C399   H431    1.083   .     S
C400   C409    1.451   .     S
C400   C401    1.400   .     A
C401   H432    1.083   .     S
C402   H433    1.083   .     S
C402   C403    1.402   .     A
C402   C65     1.383   1_565 S
C404   H434    1.066   .     S
C404   N440    1.369   .     A
C404   C461    1.420   .     S
C405   H435    1.082   .     S
C405   N439    1.365   .     A
C406   C416    1.411   .     A
C406   C919    1.407   .     S
C406   C921    1.414   .     S
C407   N439    1.384   .     A
C408   H436    1.082   .     S
C408   N440    1.361   .     A
C408   C463    1.419   .     S
C409   O446    1.298   .     A
C409   O445    1.301   .     A
C410   O448    1.307   .     A
C410   O447    1.302   .     A
C410   C412    1.470   .     S
C411   C422    1.398   .     A
C411   C922    1.393   1_554 S
C411   H942    1.074   1_554 S
C412   C422    1.401   .     A
C412   C421    1.399   .     A
C413   H427    1.083   .     S
C413   C414    1.397   .     A
C414   C919    1.384   .     S
C414   H933    1.072   .     S
C415   H428    1.078   .     S
C415   C918    1.384   1_554 S
C415   C910    1.407   1_554 S
C416   C420    1.399   .     A
C417   C421    1.398   .     A
C417   C910    1.414   1_554 S
C417   C922    1.414   1_554 S
C418   C419    1.399   .     A
C418   C921    1.414   .     S
C418   C915    1.393   .     S
C419   H437    1.084   .     S
C419   C420    1.390   .     A
C421   H426    1.075   .     S
C422   H425    1.083   .     S
Cu423  Cu424   2.705   .     S
Cu423  O445    1.965   .     S
Cu423  O441    1.963   .     S
Cu423  N439    2.033   .     S
Cu423  O447    1.945   .     S
Cu423  O443    1.951   .     S
Cu424  N440    2.033   .     S
Cu424  O446    1.963   .     S
Cu424  O444    1.945   .     S
Cu424  O448    1.951   .     S
Cu424  O442    1.965   .     S
H429   C918    1.072   1_554 S
H438   C915    1.074   .     S
Br449  C463    1.914   .     S
Br450  C476    1.918   .     S
C451   O497    1.299   .     A
C451   O498    1.301   .     A
C451   C459    1.450   .     S
C452   C469    1.406   .     A
C452   C472    1.411   .     A
C452   C454    1.488   .     S
C453   C459    1.400   .     A
C453   H486    1.083   .     S
C453   C119    1.384   1_565 S
C454   O499    1.304   .     A
C454   O500    1.312   .     A
C455   C456    1.402   .     A
C455   H487    1.083   .     S
C456   C465    1.451   .     S
C456   C457    1.400   .     A
C457   H488    1.083   .     S
C458   H489    1.083   .     S
C458   C459    1.402   .     A
C458   C121    1.383   1_565 S
C460   H490    1.066   .     S
C460   N496    1.369   .     A
C460   C349    1.420   1_655 S
C461   H491    1.082   .     S
C461   N495    1.365   .     A
C462   C472    1.411   .     A
C462   C975    1.407   .     S
C462   C977    1.414   .     S
C463   N495    1.384   .     A
C464   H492    1.082   .     S
C464   N496    1.361   .     A
C464   C351    1.419   1_655 S
C465   O502    1.298   .     A
C465   O501    1.301   .     A
C466   O504    1.307   .     A
C466   O503    1.302   .     A
C466   C468    1.470   .     S
C467   C478    1.398   .     A
C467   C978    1.393   1_554 S
C467   H998    1.074   1_554 S
C468   C478    1.401   .     A
C468   C477    1.399   .     A
C469   H483    1.083   .     S
C469   C470    1.397   .     A
C470   C975    1.384   .     S
C470   H989    1.072   .     S
C471   H484    1.078   .     S
C471   C974    1.384   1_554 S
C471   C966    1.407   1_554 S
C472   C476    1.399   .     A
C473   C477    1.398   .     A
C473   C966    1.414   1_554 S
C473   C978    1.414   1_554 S
C474   C475    1.399   .     A
C474   C977    1.414   .     S
C474   C971    1.393   .     S
C475   H493    1.084   .     S
C475   C476    1.390   .     A
C477   H482    1.075   .     S
C478   H481    1.083   .     S
Cu479  Cu480   2.705   .     S
Cu479  O501    1.965   .     S
Cu479  O497    1.963   .     S
Cu479  N495    2.033   .     S
Cu479  O503    1.945   .     S
Cu479  O499    1.951   .     S
Cu480  N496    2.033   .     S
Cu480  O502    1.963   .     S
Cu480  O500    1.945   .     S
Cu480  O504    1.951   .     S
Cu480  O498    1.965   .     S
H485   C974    1.072   1_554 S
H494   C971    1.074   .     S
Br505  C519    1.914   .     S
Br506  C532    1.918   .     S
C507   O553    1.299   .     A
C507   O554    1.301   .     A
C507   C515    1.450   .     S
C508   C525    1.406   .     A
C508   C528    1.411   .     A
C508   C510    1.488   .     S
C509   C515    1.400   .     A
C509   H542    1.083   .     S
C509   C679    1.384   .     S
C510   O555    1.304   .     A
C510   O556    1.312   .     A
C511   C512    1.402   .     A
C511   H543    1.083   .     S
C511   C845    1.384   1_545 S
C512   C521    1.451   .     S
C512   C513    1.400   .     A
C513   H544    1.083   .     S
C513   C850    1.383   1_545 S
C514   H545    1.083   .     S
C514   C515    1.402   .     A
C514   C681    1.383   .     S
C516   H546    1.066   .     S
C516   N552    1.369   .     A
C516   C573    1.420   .     S
C517   H547    1.082   .     S
C517   N551    1.365   .     A
C517   C628    1.420   1_455 S
C518   C528    1.411   .     A
C518   C23     1.407   1_556 S
C518   C25     1.414   1_556 S
C519   N551    1.384   .     A
C519   C632    1.419   1_455 S
C520   H548    1.082   .     S
C520   N552    1.361   .     A
C520   C575    1.419   .     S
C521   O558    1.298   .     A
C521   O557    1.301   .     A
C522   O560    1.307   .     A
C522   O559    1.302   .     A
C522   C524    1.470   .     S
C523   C534    1.398   .     A
C524   C534    1.401   .     A
C524   C533    1.399   .     A
C525   H539    1.083   .     S
C525   C526    1.397   .     A
C526   C23     1.384   1_556 S
C526   H37     1.072   1_556 S
C527   H540    1.078   .     S
C528   C532    1.399   .     A
C529   C533    1.398   .     A
C530   C531    1.399   .     A
C530   C25     1.414   1_556 S
C530   C19     1.393   1_556 S
C531   H549    1.084   .     S
C531   C532    1.390   .     A
C533   H538    1.075   .     S
C534   H537    1.083   .     S
Cu535  Cu536   2.705   .     S
Cu535  O557    1.965   .     S
Cu535  O553    1.963   .     S
Cu535  N551    2.033   .     S
Cu535  O559    1.945   .     S
Cu535  O555    1.951   .     S
Cu536  N552    2.033   .     S
Cu536  O558    1.963   .     S
Cu536  O556    1.945   .     S
Cu536  O560    1.951   .     S
Cu536  O554    1.965   .     S
H550   C19     1.074   1_556 S
Br561  C575    1.914   .     S
Br562  C588    1.918   .     S
C563   O609    1.299   .     A
C563   O610    1.301   .     A
C563   C571    1.450   .     S
C564   C581    1.406   .     A
C564   C584    1.411   .     A
C564   C566    1.488   .     S
C565   C571    1.400   .     A
C565   H598    1.083   .     S
C565   C735    1.384   .     S
C566   O611    1.304   .     A
C566   O612    1.312   .     A
C567   C568    1.402   .     A
C567   H599    1.083   .     S
C567   C901    1.384   1_545 S
C568   C577    1.451   .     S
C568   C569    1.400   .     A
C569   H600    1.083   .     S
C569   C906    1.383   1_545 S
C570   H601    1.083   .     S
C570   C571    1.402   .     A
C570   C737    1.383   .     S
C572   H602    1.066   .     S
C572   N608    1.369   .     A
C572   C629    1.420   .     S
C573   H603    1.082   .     S
C573   N607    1.365   .     A
C574   C584    1.411   .     A
C574   C79     1.407   1_556 S
C574   C81     1.414   1_556 S
C575   N607    1.384   .     A
C576   H604    1.082   .     S
C576   N608    1.361   .     A
C576   C631    1.419   .     S
C577   O614    1.298   .     A
C577   O613    1.301   .     A
C578   O616    1.307   .     A
C578   O615    1.302   .     A
C578   C580    1.470   .     S
C579   C590    1.398   .     A
C580   C590    1.401   .     A
C580   C589    1.399   .     A
C581   H595    1.083   .     S
C581   C582    1.397   .     A
C582   C79     1.384   1_556 S
C582   H93     1.072   1_556 S
C583   H596    1.078   .     S
C584   C588    1.399   .     A
C585   C589    1.398   .     A
C586   C587    1.399   .     A
C586   C81     1.414   1_556 S
C586   C75     1.393   1_556 S
C587   H605    1.084   .     S
C587   C588    1.390   .     A
C589   H594    1.075   .     S
C590   H593    1.083   .     S
Cu591  Cu592   2.705   .     S
Cu591  O613    1.965   .     S
Cu591  O609    1.963   .     S
Cu591  N607    2.033   .     S
Cu591  O615    1.945   .     S
Cu591  O611    1.951   .     S
Cu592  N608    2.033   .     S
Cu592  O614    1.963   .     S
Cu592  O612    1.945   .     S
Cu592  O616    1.951   .     S
Cu592  O610    1.965   .     S
H606   C75     1.074   1_556 S
Br617  C631    1.914   .     S
Br618  C644    1.918   .     S
C619   O665    1.299   .     A
C619   O666    1.301   .     A
C619   C627    1.450   .     S
C620   C637    1.406   .     A
C620   C640    1.411   .     A
C620   C622    1.488   .     S
C621   C627    1.400   .     A
C621   H654    1.083   .     S
C621   C791    1.384   .     S
C622   O667    1.304   .     A
C622   O668    1.312   .     A
C623   C624    1.402   .     A
C623   H655    1.083   .     S
C623   C957    1.384   1_545 S
C624   C633    1.451   .     S
C624   C625    1.400   .     A
C625   H656    1.083   .     S
C625   C962    1.383   1_545 S
C626   H657    1.083   .     S
C626   C627    1.402   .     A
C626   C793    1.383   .     S
C628   H658    1.066   .     S
C628   N664    1.369   .     A
C628   C517    1.420   1_655 S
C629   H659    1.082   .     S
C629   N663    1.365   .     A
C630   C640    1.411   .     A
C630   C135    1.407   1_556 S
C630   C137    1.414   1_556 S
C631   N663    1.384   .     A
C632   H660    1.082   .     S
C632   N664    1.361   .     A
C632   C519    1.419   1_655 S
C633   O670    1.298   .     A
C633   O669    1.301   .     A
C634   O672    1.307   .     A
C634   O671    1.302   .     A
C634   C636    1.470   .     S
C635   C646    1.398   .     A
C636   C646    1.401   .     A
C636   C645    1.399   .     A
C637   H651    1.083   .     S
C637   C638    1.397   .     A
C638   C135    1.384   1_556 S
C638   H149    1.072   1_556 S
C639   H652    1.078   .     S
C640   C644    1.399   .     A
C641   C645    1.398   .     A
C642   C643    1.399   .     A
C642   C137    1.414   1_556 S
C642   C131    1.393   1_556 S
C643   H661    1.084   .     S
C643   C644    1.390   .     A
C645   H650    1.075   .     S
C646   H649    1.083   .     S
Cu647  Cu648   2.705   .     S
Cu647  O669    1.965   .     S
Cu647  O665    1.963   .     S
Cu647  N663    2.033   .     S
Cu647  O671    1.945   .     S
Cu647  O667    1.951   .     S
Cu648  N664    2.033   .     S
Cu648  O670    1.963   .     S
Cu648  O668    1.945   .     S
Cu648  O672    1.951   .     S
Cu648  O666    1.965   .     S
H662   C131    1.074   1_556 S
Br673  C687    1.914   .     S
Br674  C700    1.918   .     S
C675   O721    1.299   .     A
C675   O722    1.301   .     A
C675   C683    1.450   .     S
C676   C693    1.406   .     A
C676   C696    1.411   .     A
C676   C678    1.488   .     S
C677   C683    1.400   .     A
C677   H710    1.083   .     S
C677   C847    1.384   .     S
C678   O723    1.304   .     A
C678   O724    1.312   .     A
C679   C680    1.402   .     A
C679   H711    1.083   .     S
C680   C689    1.451   .     S
C680   C681    1.400   .     A
C681   H712    1.083   .     S
C682   H713    1.083   .     S
C682   C683    1.402   .     A
C682   C849    1.383   .     S
C684   H714    1.066   .     S
C684   N720    1.369   .     A
C684   C741    1.420   .     S
C685   H715    1.082   .     S
C685   N719    1.365   .     A
C685   C796    1.420   1_455 S
C686   C696    1.411   .     A
C686   C191    1.407   1_556 S
C686   C193    1.414   1_556 S
C687   N719    1.384   .     A
C687   C800    1.419   1_455 S
C688   H716    1.082   .     S
C688   N720    1.361   .     A
C688   C743    1.419   .     S
C689   O726    1.298   .     A
C689   O725    1.301   .     A
C690   O728    1.307   .     A
C690   O727    1.302   .     A
C690   C692    1.470   .     S
C691   C702    1.398   .     A
C692   C702    1.401   .     A
C692   C701    1.399   .     A
C693   H707    1.083   .     S
C693   C694    1.397   .     A
C694   C191    1.384   1_556 S
C694   H205    1.072   1_556 S
C695   H708    1.078   .     S
C696   C700    1.399   .     A
C697   C701    1.398   .     A
C698   C699    1.399   .     A
C698   C193    1.414   1_556 S
C698   C187    1.393   1_556 S
C699   H717    1.084   .     S
C699   C700    1.390   .     A
C701   H706    1.075   .     S
C702   H705    1.083   .     S
Cu703  Cu704   2.705   .     S
Cu703  O725    1.965   .     S
Cu703  O721    1.963   .     S
Cu703  N719    2.033   .     S
Cu703  O727    1.945   .     S
Cu703  O723    1.951   .     S
Cu704  N720    2.033   .     S
Cu704  O726    1.963   .     S
Cu704  O724    1.945   .     S
Cu704  O728    1.951   .     S
Cu704  O722    1.965   .     S
H718   C187    1.074   1_556 S
Br729  C743    1.914   .     S
Br730  C756    1.918   .     S
C731   O777    1.299   .     A
C731   O778    1.301   .     A
C731   C739    1.450   .     S
C732   C749    1.406   .     A
C732   C752    1.411   .     A
C732   C734    1.488   .     S
C733   C739    1.400   .     A
C733   H766    1.083   .     S
C733   C903    1.384   .     S
C734   O779    1.304   .     A
C734   O780    1.312   .     A
C735   C736    1.402   .     A
C735   H767    1.083   .     S
C736   C745    1.451   .     S
C736   C737    1.400   .     A
C737   H768    1.083   .     S
C738   H769    1.083   .     S
C738   C739    1.402   .     A
C738   C905    1.383   .     S
C740   H770    1.066   .     S
C740   N776    1.369   .     A
C740   C797    1.420   .     S
C741   H771    1.082   .     S
C741   N775    1.365   .     A
C742   C752    1.411   .     A
C742   C247    1.407   1_556 S
C742   C249    1.414   1_556 S
C743   N775    1.384   .     A
C744   H772    1.082   .     S
C744   N776    1.361   .     A
C744   C799    1.419   .     S
C745   O782    1.298   .     A
C745   O781    1.301   .     A
C746   O784    1.307   .     A
C746   O783    1.302   .     A
C746   C748    1.470   .     S
C747   C758    1.398   .     A
C748   C758    1.401   .     A
C748   C757    1.399   .     A
C749   H763    1.083   .     S
C749   C750    1.397   .     A
C750   C247    1.384   1_556 S
C750   H261    1.072   1_556 S
C751   H764    1.078   .     S
C752   C756    1.399   .     A
C753   C757    1.398   .     A
C754   C755    1.399   .     A
C754   C249    1.414   1_556 S
C754   C243    1.393   1_556 S
C755   H773    1.084   .     S
C755   C756    1.390   .     A
C757   H762    1.075   .     S
C758   H761    1.083   .     S
Cu759  Cu760   2.705   .     S
Cu759  O781    1.965   .     S
Cu759  O777    1.963   .     S
Cu759  N775    2.033   .     S
Cu759  O783    1.945   .     S
Cu759  O779    1.951   .     S
Cu760  N776    2.033   .     S
Cu760  O782    1.963   .     S
Cu760  O780    1.945   .     S
Cu760  O784    1.951   .     S
Cu760  O778    1.965   .     S
H774   C243    1.074   1_556 S
Br785  C799    1.914   .     S
Br786  C812    1.918   .     S
C787   O833    1.299   .     A
C787   O834    1.301   .     A
C787   C795    1.450   .     S
C788   C805    1.406   .     A
C788   C808    1.411   .     A
C788   C790    1.488   .     S
C789   C795    1.400   .     A
C789   H822    1.083   .     S
C789   C959    1.384   .     S
C790   O835    1.304   .     A
C790   O836    1.312   .     A
C791   C792    1.402   .     A
C791   H823    1.083   .     S
C792   C801    1.451   .     S
C792   C793    1.400   .     A
C793   H824    1.083   .     S
C794   H825    1.083   .     S
C794   C795    1.402   .     A
C794   C961    1.383   .     S
C796   H826    1.066   .     S
C796   N832    1.369   .     A
C796   C685    1.420   1_655 S
C797   H827    1.082   .     S
C797   N831    1.365   .     A
C798   C808    1.411   .     A
C798   C303    1.407   1_556 S
C798   C305    1.414   1_556 S
C799   N831    1.384   .     A
C800   H828    1.082   .     S
C800   N832    1.361   .     A
C800   C687    1.419   1_655 S
C801   O838    1.298   .     A
C801   O837    1.301   .     A
C802   O840    1.307   .     A
C802   O839    1.302   .     A
C802   C804    1.470   .     S
C803   C814    1.398   .     A
C804   C814    1.401   .     A
C804   C813    1.399   .     A
C805   H819    1.083   .     S
C805   C806    1.397   .     A
C806   C303    1.384   1_556 S
C806   H317    1.072   1_556 S
C807   H820    1.078   .     S
C808   C812    1.399   .     A
C809   C813    1.398   .     A
C810   C811    1.399   .     A
C810   C305    1.414   1_556 S
C810   C299    1.393   1_556 S
C811   H829    1.084   .     S
C811   C812    1.390   .     A
C813   H818    1.075   .     S
C814   H817    1.083   .     S
Cu815  Cu816   2.705   .     S
Cu815  O837    1.965   .     S
Cu815  O833    1.963   .     S
Cu815  N831    2.033   .     S
Cu815  O839    1.945   .     S
Cu815  O835    1.951   .     S
Cu816  N832    2.033   .     S
Cu816  O838    1.963   .     S
Cu816  O836    1.945   .     S
Cu816  O840    1.951   .     S
Cu816  O834    1.965   .     S
H830   C299    1.074   1_556 S
Br841  C855    1.914   .     S
Br842  C868    1.918   .     S
C843   O889    1.299   .     A
C843   O890    1.301   .     A
C843   C851    1.450   .     S
C844   C861    1.406   .     A
C844   C864    1.411   .     A
C844   C846    1.488   .     S
C845   C851    1.400   .     A
C845   H878    1.083   .     S
C845   C511    1.384   1_565 S
C846   O891    1.304   .     A
C846   O892    1.312   .     A
C847   C848    1.402   .     A
C847   H879    1.083   .     S
C848   C857    1.451   .     S
C848   C849    1.400   .     A
C849   H880    1.083   .     S
C850   H881    1.083   .     S
C850   C851    1.402   .     A
C850   C513    1.383   1_565 S
C852   H882    1.066   .     S
C852   N888    1.369   .     A
C852   C909    1.420   .     S
C853   H883    1.082   .     S
C853   N887    1.365   .     A
C853   C964    1.420   1_455 S
C854   C864    1.411   .     A
C854   C359    1.407   1_556 S
C854   C361    1.414   1_556 S
C855   N887    1.384   .     A
C855   C968    1.419   1_455 S
C856   H884    1.082   .     S
C856   N888    1.361   .     A
C856   C911    1.419   .     S
C857   O894    1.298   .     A
C857   O893    1.301   .     A
C858   O896    1.307   .     A
C858   O895    1.302   .     A
C858   C860    1.470   .     S
C859   C870    1.398   .     A
C860   C870    1.401   .     A
C860   C869    1.399   .     A
C861   H875    1.083   .     S
C861   C862    1.397   .     A
C862   C359    1.384   1_556 S
C862   H373    1.072   1_556 S
C863   H876    1.078   .     S
C864   C868    1.399   .     A
C865   C869    1.398   .     A
C866   C867    1.399   .     A
C866   C361    1.414   1_556 S
C866   C355    1.393   1_556 S
C867   H885    1.084   .     S
C867   C868    1.390   .     A
C869   H874    1.075   .     S
C870   H873    1.083   .     S
Cu871  Cu872   2.705   .     S
Cu871  O893    1.965   .     S
Cu871  O889    1.963   .     S
Cu871  N887    2.033   .     S
Cu871  O895    1.945   .     S
Cu871  O891    1.951   .     S
Cu872  N888    2.033   .     S
Cu872  O894    1.963   .     S
Cu872  O892    1.945   .     S
Cu872  O896    1.951   .     S
Cu872  O890    1.965   .     S
H886   C355    1.074   1_556 S
Br897  C911    1.914   .     S
Br898  C924    1.918   .     S
C899   O945    1.299   .     A
C899   O946    1.301   .     A
C899   C907    1.450   .     S
C900   C917    1.406   .     A
C900   C920    1.411   .     A
C900   C902    1.488   .     S
C901   C907    1.400   .     A
C901   H934    1.083   .     S
C901   C567    1.384   1_565 S
C902   O947    1.304   .     A
C902   O948    1.312   .     A
C903   C904    1.402   .     A
C903   H935    1.083   .     S
C904   C913    1.451   .     S
C904   C905    1.400   .     A
C905   H936    1.083   .     S
C906   H937    1.083   .     S
C906   C907    1.402   .     A
C906   C569    1.383   1_565 S
C908   H938    1.066   .     S
C908   N944    1.369   .     A
C908   C965    1.420   .     S
C909   H939    1.082   .     S
C909   N943    1.365   .     A
C910   C920    1.411   .     A
C910   C415    1.407   1_556 S
C910   C417    1.414   1_556 S
C911   N943    1.384   .     A
C912   H940    1.082   .     S
C912   N944    1.361   .     A
C912   C967    1.419   .     S
C913   O950    1.298   .     A
C913   O949    1.301   .     A
C914   O952    1.307   .     A
C914   O951    1.302   .     A
C914   C916    1.470   .     S
C915   C926    1.398   .     A
C916   C926    1.401   .     A
C916   C925    1.399   .     A
C917   H931    1.083   .     S
C917   C918    1.397   .     A
C918   C415    1.384   1_556 S
C918   H429    1.072   1_556 S
C919   H932    1.078   .     S
C920   C924    1.399   .     A
C921   C925    1.398   .     A
C922   C923    1.399   .     A
C922   C417    1.414   1_556 S
C922   C411    1.393   1_556 S
C923   H941    1.084   .     S
C923   C924    1.390   .     A
C925   H930    1.075   .     S
C926   H929    1.083   .     S
Cu927  Cu928   2.705   .     S
Cu927  O949    1.965   .     S
Cu927  O945    1.963   .     S
Cu927  N943    2.033   .     S
Cu927  O951    1.945   .     S
Cu927  O947    1.951   .     S
Cu928  N944    2.033   .     S
Cu928  O950    1.963   .     S
Cu928  O948    1.945   .     S
Cu928  O952    1.951   .     S
Cu928  O946    1.965   .     S
H942   C411    1.074   1_556 S
Br953  C967    1.914   .     S
Br954  C980    1.918   .     S
C955   O1001   1.299   .     A
C955   O1002   1.301   .     A
C955   C963    1.450   .     S
C956   C973    1.406   .     A
C956   C976    1.411   .     A
C956   C958    1.488   .     S
C957   C963    1.400   .     A
C957   H990    1.083   .     S
C957   C623    1.384   1_565 S
C958   O1003   1.304   .     A
C958   O1004   1.312   .     A
C959   C960    1.402   .     A
C959   H991    1.083   .     S
C960   C969    1.451   .     S
C960   C961    1.400   .     A
C961   H992    1.083   .     S
C962   H993    1.083   .     S
C962   C963    1.402   .     A
C962   C625    1.383   1_565 S
C964   H994    1.066   .     S
C964   N1000   1.369   .     A
C964   C853    1.420   1_655 S
C965   H995    1.082   .     S
C965   N999    1.365   .     A
C966   C976    1.411   .     A
C966   C471    1.407   1_556 S
C966   C473    1.414   1_556 S
C967   N999    1.384   .     A
C968   H996    1.082   .     S
C968   N1000   1.361   .     A
C968   C855    1.419   1_655 S
C969   O1006   1.298   .     A
C969   O1005   1.301   .     A
C970   O1008   1.307   .     A
C970   O1007   1.302   .     A
C970   C972    1.470   .     S
C971   C982    1.398   .     A
C972   C982    1.401   .     A
C972   C981    1.399   .     A
C973   H987    1.083   .     S
C973   C974    1.397   .     A
C974   C471    1.384   1_556 S
C974   H485    1.072   1_556 S
C975   H988    1.078   .     S
C976   C980    1.399   .     A
C977   C981    1.398   .     A
C978   C979    1.399   .     A
C978   C473    1.414   1_556 S
C978   C467    1.393   1_556 S
C979   H997    1.084   .     S
C979   C980    1.390   .     A
C981   H986    1.075   .     S
C982   H985    1.083   .     S
Cu983  Cu984   2.705   .     S
Cu983  O1005   1.965   .     S
Cu983  O1001   1.963   .     S
Cu983  N999    2.033   .     S
Cu983  O1007   1.945   .     S
Cu983  O1003   1.951   .     S
Cu984  N1000   2.033   .     S
Cu984  O1006   1.963   .     S
Cu984  O1004   1.945   .     S
Cu984  O1008   1.951   .     S
Cu984  O1002   1.965   .     S
H998   C467    1.074   1_556 S
