data_str_m3_o1_o18_pcu_sym.164
_audit_creation_date              2020-01-03
_audit_creation_method            'Materials Studio'
_symmetry_space_group_name_H-M    'P1'
_symmetry_Int_Tables_number       1
_symmetry_cell_setting            triclinic
loop_
_symmetry_equiv_pos_as_xyz
  x,y,z
_cell_length_a                    29.5611
_cell_length_b                    32.0075
_cell_length_c                    31.0749
_cell_angle_alpha                 90.2992
_cell_angle_beta                  67.7741
_cell_angle_gamma                 90.3281
loop_
_atom_site_label
_atom_site_type_symbol
_atom_site_fract_x
_atom_site_fract_y
_atom_site_fract_z
_atom_site_U_iso_or_equiv
_atom_site_adp_type
_atom_site_occupancy
C1     C     0.16676   0.24667   0.24996   0.00000  Uiso   1.00
C2     C     0.16658   0.08667   0.24994   0.00000  Uiso   1.00
C3     C     0.11886   0.12503   0.04479   0.00000  Uiso   1.00
C4     C     0.22761   0.16453   0.44638   0.00000  Uiso   1.00
C5     C     0.08496   0.11992   0.02411   0.00000  Uiso   1.00
C6     C     0.26164   0.16929   0.46693   0.00000  Uiso   1.00
C7     C     0.21098   0.31210   0.22925   0.00000  Uiso   1.00
C8     C     0.12223   0.02127   0.26992   0.00000  Uiso   1.00
C9     C     0.21092   0.02160   0.22946   0.00000  Uiso   1.00
C10    C     0.12230   0.31178   0.26991   0.00000  Uiso   1.00
C11    C     0.16654   0.04255   0.24973   0.00000  Uiso   1.00
C12    C     0.16674   0.29081   0.24978   0.00000  Uiso   1.00
C13    C     0.31951   0.13862   0.22354   0.00000  Uiso   1.00
C14    C     0.01362   0.19431   0.27677   0.00000  Uiso   1.00
C15    C     0.03497   0.13809   0.22335   0.00000  Uiso   1.00
C16    C     0.29892   0.19505   0.27635   0.00000  Uiso   1.00
C17    C     0.13617   0.16652   0.33796   0.00000  Uiso   1.00
C18    C     0.19721   0.16608   0.16202   0.00000  Uiso   1.00
C19    C     0.11773   0.16090   0.38811   0.00000  Uiso   1.00
C20    C     0.21650   0.16348   0.11142   0.00000  Uiso   1.00
C21    C     0.06110   0.12928   0.45833   0.00000  Uiso   1.00
C22    C     0.28047   0.17424   0.03608   0.00000  Uiso   1.00
C23    C     0.07245   0.14207   0.41258   0.00000  Uiso   1.00
C24    C     0.26514   0.17337   0.08433   0.00000  Uiso   1.00
C25    C     0.15040   0.16824   0.40987   0.00000  Uiso   1.00
C26    C     0.18435   0.15201   0.09019   0.00000  Uiso   1.00
C27    C     0.14200   0.15200   0.45374   0.00000  Uiso   1.00
C28    C     0.19888   0.15222   0.04193   0.00000  Uiso   1.00
C29    C     0.09571   0.13383   0.47898   0.00000  Uiso   1.00
C30    C     0.24735   0.16488   0.01477   0.00000  Uiso   1.00
C31    C     0.17836   0.15375   0.47308   0.00000  Uiso   1.00
C32    C     0.16522   0.14344   0.02046   0.00000  Uiso   1.00
H33    H     0.05001   0.10541   0.04372   0.00000  Uiso   1.00
H34    H     0.29883   0.17806   0.44551   0.00000  Uiso   1.00
H35    H     0.14703   0.14538   0.11222   0.00000  Uiso   1.00
H36    H     0.18304   0.18597   0.39120   0.00000  Uiso   1.00
H37    H     0.29061   0.18196   0.10041   0.00000  Uiso   1.00
H38    H     0.04685   0.13590   0.39593   0.00000  Uiso   1.00
H39    H     0.02604   0.11457   0.47698   0.00000  Uiso   1.00
H40    H     0.31760   0.18378   0.01557   0.00000  Uiso   1.00
H41    H     0.10838   0.11282   0.07942   0.00000  Uiso   1.00
H42    H     0.24128   0.16845   0.40916   0.00000  Uiso   1.00
H43    H     0.24522   0.29566   0.21290   0.00000  Uiso   1.00
H44    H     0.08795   0.03771   0.28616   0.00000  Uiso   1.00
H45    H     0.24516   0.03831   0.21345   0.00000  Uiso   1.00
H46    H     0.08802   0.29511   0.28602   0.00000  Uiso   1.00
H47    H     0.30751   0.11689   0.20342   0.00000  Uiso   1.00
H48    H     0.02378   0.21569   0.29863   0.00000  Uiso   1.00
N49    N     0.04759   0.16668   0.25001   0.00000  Uiso   1.00
N50    N     0.28574   0.16666   0.24999   0.00000  Uiso   1.00
O51    O     0.12846   0.22775   0.25001   0.00000  Uiso   1.00
O52    O     0.20488   0.10558   0.25000   0.00000  Uiso   1.00
O53    O     0.20490   0.22774   0.25000   0.00000  Uiso   1.00
O54    O     0.12843   0.10559   0.25000   0.00000  Uiso   1.00
O55    O     0.10661   0.16667   0.31613   0.00000  Uiso   1.00
O56    O     0.22672   0.16666   0.18388   0.00000  Uiso   1.00
O57    O     0.18305   0.16666   0.31612   0.00000  Uiso   1.00
O58    O     0.15028   0.16667   0.18388   0.00000  Uiso   1.00
Zn59   Zn    0.11562   0.16667   0.25000   0.00000  Uiso   1.00
Zn60   Zn    0.21771   0.16666   0.25000   0.00000  Uiso   1.00
O61    O     0.07151   0.11017   0.19769   0.00000  Uiso   1.00
C62    C     0.05770   0.07857   0.17306   0.00000  Uiso   1.00
H63    H     0.09209   0.06539   0.14745   0.00000  Uiso   1.00
H64    H     0.03812   0.09099   0.15164   0.00000  Uiso   1.00
C65    C     0.03029   0.04276   0.20524   0.00000  Uiso   1.00
H66    H     0.05312   0.03048   0.22361   0.00000  Uiso   1.00
H67    H     0.32874   0.05394   0.23186   0.00000  Uiso   1.00
C68    C     0.01933   0.00726   0.17765   0.00000  Uiso   1.00
H69    H     0.33012   0.01873   0.15859   0.00000  Uiso   1.00
H70    H     0.33224   0.31547   0.20174   0.00000  Uiso   1.00
H71    H     0.05387   0.32733   0.15240   0.00000  Uiso   1.00
O72    O     0.26359   0.22178   0.30528   0.00000  Uiso   1.00
C73    C     0.27930   0.26404   0.29881   0.00000  Uiso   1.00
H74    H     0.25157   0.28207   0.29078   0.00000  Uiso   1.00
H75    H     0.31482   0.26936   0.26922   0.00000  Uiso   1.00
C76    C     0.28161   0.28165   0.34379   0.00000  Uiso   1.00
H77    H     0.24499   0.27894   0.37220   0.00000  Uiso   1.00
H78    H     0.30792   0.26344   0.35384   0.00000  Uiso   1.00
C79    C     0.29736   0.32747   0.33809   0.00000  Uiso   1.00
H80    H     0.00095   0.33080   0.31034   0.00000  Uiso   1.00
H81    H     0.29862   0.00615   0.37120   0.00000  Uiso   1.00
H82    H     0.27098   0.01317   0.32894   0.00000  Uiso   1.00
C83    C     0.50009   0.24667   0.24996   0.00000  Uiso   1.00
C84    C     0.49991   0.08667   0.24994   0.00000  Uiso   1.00
C85    C     0.45219   0.12503   0.04479   0.00000  Uiso   1.00
C86    C     0.56094   0.16453   0.44638   0.00000  Uiso   1.00
C87    C     0.41829   0.11992   0.02411   0.00000  Uiso   1.00
C88    C     0.59498   0.16929   0.46693   0.00000  Uiso   1.00
C89    C     0.54431   0.31210   0.22925   0.00000  Uiso   1.00
C90    C     0.45556   0.02127   0.26992   0.00000  Uiso   1.00
C91    C     0.54425   0.02160   0.22946   0.00000  Uiso   1.00
C92    C     0.45564   0.31178   0.26991   0.00000  Uiso   1.00
C93    C     0.49987   0.04255   0.24973   0.00000  Uiso   1.00
C94    C     0.50007   0.29081   0.24978   0.00000  Uiso   1.00
C95    C     0.65284   0.13862   0.22354   0.00000  Uiso   1.00
C96    C     0.34695   0.19431   0.27677   0.00000  Uiso   1.00
C97    C     0.36830   0.13809   0.22335   0.00000  Uiso   1.00
C98    C     0.63225   0.19505   0.27635   0.00000  Uiso   1.00
C99    C     0.46950   0.16652   0.33796   0.00000  Uiso   1.00
C100   C     0.53054   0.16608   0.16202   0.00000  Uiso   1.00
C101   C     0.45106   0.16090   0.38811   0.00000  Uiso   1.00
C102   C     0.54983   0.16348   0.11142   0.00000  Uiso   1.00
C103   C     0.39443   0.12928   0.45833   0.00000  Uiso   1.00
C104   C     0.61380   0.17424   0.03608   0.00000  Uiso   1.00
C105   C     0.40579   0.14207   0.41258   0.00000  Uiso   1.00
C106   C     0.59847   0.17337   0.08433   0.00000  Uiso   1.00
C107   C     0.48373   0.16824   0.40987   0.00000  Uiso   1.00
C108   C     0.51768   0.15201   0.09019   0.00000  Uiso   1.00
C109   C     0.47533   0.15200   0.45374   0.00000  Uiso   1.00
C110   C     0.53221   0.15222   0.04193   0.00000  Uiso   1.00
C111   C     0.42904   0.13383   0.47898   0.00000  Uiso   1.00
C112   C     0.58069   0.16488   0.01477   0.00000  Uiso   1.00
C113   C     0.51169   0.15375   0.47308   0.00000  Uiso   1.00
C114   C     0.49856   0.14344   0.02046   0.00000  Uiso   1.00
H115   H     0.38334   0.10541   0.04372   0.00000  Uiso   1.00
H116   H     0.63216   0.17806   0.44551   0.00000  Uiso   1.00
H117   H     0.48036   0.14538   0.11222   0.00000  Uiso   1.00
H118   H     0.51638   0.18597   0.39120   0.00000  Uiso   1.00
H119   H     0.62395   0.18196   0.10041   0.00000  Uiso   1.00
H120   H     0.38018   0.13590   0.39593   0.00000  Uiso   1.00
H121   H     0.35938   0.11457   0.47698   0.00000  Uiso   1.00
H122   H     0.65093   0.18378   0.01557   0.00000  Uiso   1.00
H123   H     0.44172   0.11282   0.07942   0.00000  Uiso   1.00
H124   H     0.57462   0.16845   0.40916   0.00000  Uiso   1.00
H125   H     0.57855   0.29566   0.21290   0.00000  Uiso   1.00
H126   H     0.42128   0.03771   0.28616   0.00000  Uiso   1.00
H127   H     0.57849   0.03831   0.21345   0.00000  Uiso   1.00
H128   H     0.42135   0.29511   0.28602   0.00000  Uiso   1.00
H129   H     0.64084   0.11689   0.20342   0.00000  Uiso   1.00
H130   H     0.35712   0.21569   0.29863   0.00000  Uiso   1.00
N131   N     0.38093   0.16668   0.25001   0.00000  Uiso   1.00
N132   N     0.61907   0.16666   0.24999   0.00000  Uiso   1.00
O133   O     0.46179   0.22775   0.25001   0.00000  Uiso   1.00
O134   O     0.53821   0.10558   0.25000   0.00000  Uiso   1.00
O135   O     0.53823   0.22774   0.25000   0.00000  Uiso   1.00
O136   O     0.46177   0.10559   0.25000   0.00000  Uiso   1.00
O137   O     0.43994   0.16667   0.31613   0.00000  Uiso   1.00
O138   O     0.56006   0.16666   0.18388   0.00000  Uiso   1.00
O139   O     0.51639   0.16666   0.31612   0.00000  Uiso   1.00
O140   O     0.48361   0.16667   0.18388   0.00000  Uiso   1.00
Zn141  Zn    0.44896   0.16667   0.25000   0.00000  Uiso   1.00
Zn142  Zn    0.55104   0.16666   0.25000   0.00000  Uiso   1.00
O143   O     0.40484   0.11017   0.19769   0.00000  Uiso   1.00
C144   C     0.39104   0.07857   0.17306   0.00000  Uiso   1.00
H145   H     0.42543   0.06539   0.14745   0.00000  Uiso   1.00
H146   H     0.37145   0.09099   0.15164   0.00000  Uiso   1.00
C147   C     0.36362   0.04276   0.20524   0.00000  Uiso   1.00
H148   H     0.38645   0.03048   0.22361   0.00000  Uiso   1.00
H149   H     0.66207   0.05394   0.23186   0.00000  Uiso   1.00
C150   C     0.35266   0.00726   0.17765   0.00000  Uiso   1.00
H151   H     0.66345   0.01873   0.15859   0.00000  Uiso   1.00
H152   H     0.66558   0.31547   0.20174   0.00000  Uiso   1.00
H153   H     0.38720   0.32733   0.15240   0.00000  Uiso   1.00
O154   O     0.59692   0.22178   0.30528   0.00000  Uiso   1.00
C155   C     0.61263   0.26404   0.29881   0.00000  Uiso   1.00
H156   H     0.58491   0.28207   0.29078   0.00000  Uiso   1.00
H157   H     0.64816   0.26936   0.26922   0.00000  Uiso   1.00
C158   C     0.61495   0.28165   0.34379   0.00000  Uiso   1.00
H159   H     0.57832   0.27894   0.37220   0.00000  Uiso   1.00
H160   H     0.64125   0.26344   0.35384   0.00000  Uiso   1.00
C161   C     0.63070   0.32747   0.33809   0.00000  Uiso   1.00
H162   H     0.33429   0.33080   0.31034   0.00000  Uiso   1.00
H163   H     0.63196   0.00615   0.37120   0.00000  Uiso   1.00
H164   H     0.60432   0.01317   0.32894   0.00000  Uiso   1.00
C165   C     0.83342   0.24667   0.24996   0.00000  Uiso   1.00
C166   C     0.83325   0.08667   0.24994   0.00000  Uiso   1.00
C167   C     0.78552   0.12503   0.04479   0.00000  Uiso   1.00
C168   C     0.89427   0.16453   0.44638   0.00000  Uiso   1.00
C169   C     0.75163   0.11992   0.02411   0.00000  Uiso   1.00
C170   C     0.92831   0.16929   0.46693   0.00000  Uiso   1.00
C171   C     0.87764   0.31210   0.22925   0.00000  Uiso   1.00
C172   C     0.78889   0.02127   0.26992   0.00000  Uiso   1.00
C173   C     0.87758   0.02160   0.22946   0.00000  Uiso   1.00
C174   C     0.78897   0.31178   0.26991   0.00000  Uiso   1.00
C175   C     0.83320   0.04255   0.24973   0.00000  Uiso   1.00
C176   C     0.83340   0.29081   0.24978   0.00000  Uiso   1.00
C177   C     0.98618   0.13862   0.22354   0.00000  Uiso   1.00
C178   C     0.68029   0.19431   0.27677   0.00000  Uiso   1.00
C179   C     0.70164   0.13809   0.22335   0.00000  Uiso   1.00
C180   C     0.96558   0.19505   0.27635   0.00000  Uiso   1.00
C181   C     0.80283   0.16652   0.33796   0.00000  Uiso   1.00
C182   C     0.86387   0.16608   0.16202   0.00000  Uiso   1.00
C183   C     0.78440   0.16090   0.38811   0.00000  Uiso   1.00
C184   C     0.88316   0.16348   0.11142   0.00000  Uiso   1.00
C185   C     0.72776   0.12928   0.45833   0.00000  Uiso   1.00
C186   C     0.94713   0.17424   0.03608   0.00000  Uiso   1.00
C187   C     0.73912   0.14207   0.41258   0.00000  Uiso   1.00
C188   C     0.93180   0.17337   0.08433   0.00000  Uiso   1.00
C189   C     0.81706   0.16824   0.40987   0.00000  Uiso   1.00
C190   C     0.85102   0.15201   0.09019   0.00000  Uiso   1.00
C191   C     0.80866   0.15200   0.45374   0.00000  Uiso   1.00
C192   C     0.86555   0.15222   0.04193   0.00000  Uiso   1.00
C193   C     0.76238   0.13383   0.47898   0.00000  Uiso   1.00
C194   C     0.91402   0.16488   0.01477   0.00000  Uiso   1.00
C195   C     0.84502   0.15375   0.47308   0.00000  Uiso   1.00
C196   C     0.83189   0.14344   0.02046   0.00000  Uiso   1.00
H197   H     0.71668   0.10541   0.04372   0.00000  Uiso   1.00
H198   H     0.96550   0.17806   0.44551   0.00000  Uiso   1.00
H199   H     0.81369   0.14538   0.11222   0.00000  Uiso   1.00
H200   H     0.84971   0.18597   0.39120   0.00000  Uiso   1.00
H201   H     0.95728   0.18196   0.10041   0.00000  Uiso   1.00
H202   H     0.71351   0.13590   0.39593   0.00000  Uiso   1.00
H203   H     0.69271   0.11457   0.47698   0.00000  Uiso   1.00
H204   H     0.98427   0.18378   0.01557   0.00000  Uiso   1.00
H205   H     0.77505   0.11282   0.07942   0.00000  Uiso   1.00
H206   H     0.90795   0.16845   0.40916   0.00000  Uiso   1.00
H207   H     0.91189   0.29566   0.21290   0.00000  Uiso   1.00
H208   H     0.75461   0.03771   0.28616   0.00000  Uiso   1.00
H209   H     0.91182   0.03831   0.21345   0.00000  Uiso   1.00
H210   H     0.75468   0.29511   0.28602   0.00000  Uiso   1.00
H211   H     0.97417   0.11689   0.20342   0.00000  Uiso   1.00
H212   H     0.69045   0.21569   0.29863   0.00000  Uiso   1.00
N213   N     0.71426   0.16668   0.25001   0.00000  Uiso   1.00
N214   N     0.95241   0.16666   0.24999   0.00000  Uiso   1.00
O215   O     0.79512   0.22775   0.25001   0.00000  Uiso   1.00
O216   O     0.87154   0.10558   0.25000   0.00000  Uiso   1.00
O217   O     0.87157   0.22774   0.25000   0.00000  Uiso   1.00
O218   O     0.79510   0.10559   0.25000   0.00000  Uiso   1.00
O219   O     0.77328   0.16667   0.31613   0.00000  Uiso   1.00
O220   O     0.89339   0.16666   0.18388   0.00000  Uiso   1.00
O221   O     0.84972   0.16666   0.31612   0.00000  Uiso   1.00
O222   O     0.81695   0.16667   0.18388   0.00000  Uiso   1.00
Zn223  Zn    0.78229   0.16667   0.25000   0.00000  Uiso   1.00
Zn224  Zn    0.88438   0.16666   0.25000   0.00000  Uiso   1.00
O225   O     0.73817   0.11017   0.19769   0.00000  Uiso   1.00
C226   C     0.72437   0.07857   0.17306   0.00000  Uiso   1.00
H227   H     0.75876   0.06539   0.14745   0.00000  Uiso   1.00
H228   H     0.70479   0.09099   0.15164   0.00000  Uiso   1.00
C229   C     0.69695   0.04276   0.20524   0.00000  Uiso   1.00
H230   H     0.71978   0.03048   0.22361   0.00000  Uiso   1.00
H231   H     0.99541   0.05394   0.23186   0.00000  Uiso   1.00
C232   C     0.68599   0.00726   0.17765   0.00000  Uiso   1.00
H233   H     0.99678   0.01873   0.15859   0.00000  Uiso   1.00
H234   H     0.99891   0.31547   0.20174   0.00000  Uiso   1.00
H235   H     0.72054   0.32733   0.15240   0.00000  Uiso   1.00
O236   O     0.93026   0.22178   0.30528   0.00000  Uiso   1.00
C237   C     0.94596   0.26404   0.29881   0.00000  Uiso   1.00
H238   H     0.91824   0.28207   0.29078   0.00000  Uiso   1.00
H239   H     0.98149   0.26936   0.26922   0.00000  Uiso   1.00
C240   C     0.94828   0.28165   0.34379   0.00000  Uiso   1.00
H241   H     0.91166   0.27894   0.37220   0.00000  Uiso   1.00
H242   H     0.97458   0.26344   0.35384   0.00000  Uiso   1.00
C243   C     0.96403   0.32747   0.33809   0.00000  Uiso   1.00
H244   H     0.66762   0.33080   0.31034   0.00000  Uiso   1.00
H245   H     0.96529   0.00615   0.37120   0.00000  Uiso   1.00
H246   H     0.93765   0.01317   0.32894   0.00000  Uiso   1.00
C247   C     0.16676   0.58001   0.24996   0.00000  Uiso   1.00
C248   C     0.16658   0.42000   0.24994   0.00000  Uiso   1.00
C249   C     0.11886   0.45836   0.04479   0.00000  Uiso   1.00
C250   C     0.22761   0.49787   0.44638   0.00000  Uiso   1.00
C251   C     0.08496   0.45325   0.02411   0.00000  Uiso   1.00
C252   C     0.26164   0.50263   0.46693   0.00000  Uiso   1.00
C253   C     0.21098   0.64544   0.22925   0.00000  Uiso   1.00
C254   C     0.12223   0.35461   0.26992   0.00000  Uiso   1.00
C255   C     0.21092   0.35493   0.22946   0.00000  Uiso   1.00
C256   C     0.12230   0.64511   0.26991   0.00000  Uiso   1.00
C257   C     0.16654   0.37588   0.24973   0.00000  Uiso   1.00
C258   C     0.16674   0.62415   0.24978   0.00000  Uiso   1.00
C259   C     0.31951   0.47195   0.22354   0.00000  Uiso   1.00
C260   C     0.01362   0.52765   0.27677   0.00000  Uiso   1.00
C261   C     0.03497   0.47143   0.22335   0.00000  Uiso   1.00
C262   C     0.29892   0.52839   0.27635   0.00000  Uiso   1.00
C263   C     0.13617   0.49985   0.33796   0.00000  Uiso   1.00
C264   C     0.19721   0.49941   0.16202   0.00000  Uiso   1.00
C265   C     0.11773   0.49423   0.38811   0.00000  Uiso   1.00
C266   C     0.21650   0.49682   0.11142   0.00000  Uiso   1.00
C267   C     0.06110   0.46262   0.45833   0.00000  Uiso   1.00
C268   C     0.28047   0.50757   0.03608   0.00000  Uiso   1.00
C269   C     0.07245   0.47540   0.41258   0.00000  Uiso   1.00
C270   C     0.26514   0.50671   0.08433   0.00000  Uiso   1.00
C271   C     0.15040   0.50157   0.40987   0.00000  Uiso   1.00
C272   C     0.18435   0.48535   0.09019   0.00000  Uiso   1.00
C273   C     0.14200   0.48533   0.45374   0.00000  Uiso   1.00
C274   C     0.19888   0.48555   0.04193   0.00000  Uiso   1.00
C275   C     0.09571   0.46717   0.47898   0.00000  Uiso   1.00
C276   C     0.24735   0.49821   0.01477   0.00000  Uiso   1.00
C277   C     0.17836   0.48708   0.47308   0.00000  Uiso   1.00
C278   C     0.16522   0.47678   0.02046   0.00000  Uiso   1.00
H279   H     0.05001   0.43874   0.04372   0.00000  Uiso   1.00
H280   H     0.29883   0.51140   0.44551   0.00000  Uiso   1.00
H281   H     0.14703   0.47871   0.11222   0.00000  Uiso   1.00
H282   H     0.18304   0.51930   0.39120   0.00000  Uiso   1.00
H283   H     0.29061   0.51529   0.10041   0.00000  Uiso   1.00
H284   H     0.04685   0.46923   0.39593   0.00000  Uiso   1.00
H285   H     0.02604   0.44790   0.47698   0.00000  Uiso   1.00
H286   H     0.31760   0.51712   0.01557   0.00000  Uiso   1.00
H287   H     0.10838   0.44615   0.07942   0.00000  Uiso   1.00
H288   H     0.24128   0.50178   0.40916   0.00000  Uiso   1.00
H289   H     0.24522   0.62900   0.21290   0.00000  Uiso   1.00
H290   H     0.08795   0.37104   0.28616   0.00000  Uiso   1.00
H291   H     0.24516   0.37164   0.21345   0.00000  Uiso   1.00
H292   H     0.08802   0.62845   0.28602   0.00000  Uiso   1.00
H293   H     0.30751   0.45022   0.20342   0.00000  Uiso   1.00
H294   H     0.02378   0.54902   0.29863   0.00000  Uiso   1.00
N295   N     0.04759   0.50001   0.25001   0.00000  Uiso   1.00
N296   N     0.28574   0.49999   0.24999   0.00000  Uiso   1.00
O297   O     0.12846   0.56108   0.25001   0.00000  Uiso   1.00
O298   O     0.20488   0.43892   0.25000   0.00000  Uiso   1.00
O299   O     0.20490   0.56107   0.25000   0.00000  Uiso   1.00
O300   O     0.12843   0.43893   0.25000   0.00000  Uiso   1.00
O301   O     0.10661   0.50001   0.31613   0.00000  Uiso   1.00
O302   O     0.22672   0.49999   0.18388   0.00000  Uiso   1.00
O303   O     0.18305   0.50000   0.31612   0.00000  Uiso   1.00
O304   O     0.15028   0.50000   0.18388   0.00000  Uiso   1.00
Zn305  Zn    0.11562   0.50001   0.25000   0.00000  Uiso   1.00
Zn306  Zn    0.21771   0.49999   0.25000   0.00000  Uiso   1.00
O307   O     0.07151   0.44350   0.19769   0.00000  Uiso   1.00
C308   C     0.05770   0.41190   0.17306   0.00000  Uiso   1.00
H309   H     0.09209   0.39872   0.14745   0.00000  Uiso   1.00
H310   H     0.03812   0.42433   0.15164   0.00000  Uiso   1.00
C311   C     0.03029   0.37609   0.20524   0.00000  Uiso   1.00
H312   H     0.05312   0.36382   0.22361   0.00000  Uiso   1.00
H313   H     0.32874   0.38727   0.23186   0.00000  Uiso   1.00
C314   C     0.01933   0.34060   0.17765   0.00000  Uiso   1.00
H315   H     0.33012   0.35207   0.15859   0.00000  Uiso   1.00
H316   H     0.33224   0.64881   0.20174   0.00000  Uiso   1.00
H317   H     0.05387   0.66067   0.15240   0.00000  Uiso   1.00
O318   O     0.26359   0.55511   0.30528   0.00000  Uiso   1.00
C319   C     0.27930   0.59737   0.29881   0.00000  Uiso   1.00
H320   H     0.25157   0.61541   0.29078   0.00000  Uiso   1.00
H321   H     0.31482   0.60269   0.26922   0.00000  Uiso   1.00
C322   C     0.28161   0.61498   0.34379   0.00000  Uiso   1.00
H323   H     0.24499   0.61228   0.37220   0.00000  Uiso   1.00
H324   H     0.30792   0.59678   0.35384   0.00000  Uiso   1.00
C325   C     0.29736   0.66081   0.33809   0.00000  Uiso   1.00
H326   H     0.00095   0.66413   0.31034   0.00000  Uiso   1.00
H327   H     0.29862   0.33949   0.37120   0.00000  Uiso   1.00
H328   H     0.27098   0.34650   0.32894   0.00000  Uiso   1.00
C329   C     0.50009   0.58001   0.24996   0.00000  Uiso   1.00
C330   C     0.49991   0.42000   0.24994   0.00000  Uiso   1.00
C331   C     0.45219   0.45836   0.04479   0.00000  Uiso   1.00
C332   C     0.56094   0.49787   0.44638   0.00000  Uiso   1.00
C333   C     0.41829   0.45325   0.02411   0.00000  Uiso   1.00
C334   C     0.59498   0.50263   0.46693   0.00000  Uiso   1.00
C335   C     0.54431   0.64544   0.22925   0.00000  Uiso   1.00
C336   C     0.45556   0.35461   0.26992   0.00000  Uiso   1.00
C337   C     0.54425   0.35493   0.22946   0.00000  Uiso   1.00
C338   C     0.45564   0.64511   0.26991   0.00000  Uiso   1.00
C339   C     0.49987   0.37588   0.24973   0.00000  Uiso   1.00
C340   C     0.50007   0.62415   0.24978   0.00000  Uiso   1.00
C341   C     0.65284   0.47195   0.22354   0.00000  Uiso   1.00
C342   C     0.34695   0.52765   0.27677   0.00000  Uiso   1.00
C343   C     0.36830   0.47143   0.22335   0.00000  Uiso   1.00
C344   C     0.63225   0.52839   0.27635   0.00000  Uiso   1.00
C345   C     0.46950   0.49985   0.33796   0.00000  Uiso   1.00
C346   C     0.53054   0.49941   0.16202   0.00000  Uiso   1.00
C347   C     0.45106   0.49423   0.38811   0.00000  Uiso   1.00
C348   C     0.54983   0.49682   0.11142   0.00000  Uiso   1.00
C349   C     0.39443   0.46262   0.45833   0.00000  Uiso   1.00
C350   C     0.61380   0.50757   0.03608   0.00000  Uiso   1.00
C351   C     0.40579   0.47540   0.41258   0.00000  Uiso   1.00
C352   C     0.59847   0.50671   0.08433   0.00000  Uiso   1.00
C353   C     0.48373   0.50157   0.40987   0.00000  Uiso   1.00
C354   C     0.51768   0.48535   0.09019   0.00000  Uiso   1.00
C355   C     0.47533   0.48533   0.45374   0.00000  Uiso   1.00
C356   C     0.53221   0.48555   0.04193   0.00000  Uiso   1.00
C357   C     0.42904   0.46717   0.47898   0.00000  Uiso   1.00
C358   C     0.58069   0.49821   0.01477   0.00000  Uiso   1.00
C359   C     0.51169   0.48708   0.47308   0.00000  Uiso   1.00
C360   C     0.49856   0.47678   0.02046   0.00000  Uiso   1.00
H361   H     0.38334   0.43874   0.04372   0.00000  Uiso   1.00
H362   H     0.63216   0.51140   0.44551   0.00000  Uiso   1.00
H363   H     0.48036   0.47871   0.11222   0.00000  Uiso   1.00
H364   H     0.51638   0.51930   0.39120   0.00000  Uiso   1.00
H365   H     0.62395   0.51529   0.10041   0.00000  Uiso   1.00
H366   H     0.38018   0.46923   0.39593   0.00000  Uiso   1.00
H367   H     0.35938   0.44790   0.47698   0.00000  Uiso   1.00
H368   H     0.65093   0.51712   0.01557   0.00000  Uiso   1.00
H369   H     0.44172   0.44615   0.07942   0.00000  Uiso   1.00
H370   H     0.57462   0.50178   0.40916   0.00000  Uiso   1.00
H371   H     0.57855   0.62900   0.21290   0.00000  Uiso   1.00
H372   H     0.42128   0.37104   0.28616   0.00000  Uiso   1.00
H373   H     0.57849   0.37164   0.21345   0.00000  Uiso   1.00
H374   H     0.42135   0.62845   0.28602   0.00000  Uiso   1.00
H375   H     0.64084   0.45022   0.20342   0.00000  Uiso   1.00
H376   H     0.35712   0.54902   0.29863   0.00000  Uiso   1.00
N377   N     0.38093   0.50001   0.25001   0.00000  Uiso   1.00
N378   N     0.61907   0.49999   0.24999   0.00000  Uiso   1.00
O379   O     0.46179   0.56108   0.25001   0.00000  Uiso   1.00
O380   O     0.53821   0.43892   0.25000   0.00000  Uiso   1.00
O381   O     0.53823   0.56107   0.25000   0.00000  Uiso   1.00
O382   O     0.46177   0.43893   0.25000   0.00000  Uiso   1.00
O383   O     0.43994   0.50001   0.31613   0.00000  Uiso   1.00
O384   O     0.56006   0.49999   0.18388   0.00000  Uiso   1.00
O385   O     0.51639   0.50000   0.31612   0.00000  Uiso   1.00
O386   O     0.48361   0.50000   0.18388   0.00000  Uiso   1.00
Zn387  Zn    0.44896   0.50001   0.25000   0.00000  Uiso   1.00
Zn388  Zn    0.55104   0.49999   0.25000   0.00000  Uiso   1.00
O389   O     0.40484   0.44350   0.19769   0.00000  Uiso   1.00
C390   C     0.39104   0.41190   0.17306   0.00000  Uiso   1.00
H391   H     0.42543   0.39872   0.14745   0.00000  Uiso   1.00
H392   H     0.37145   0.42433   0.15164   0.00000  Uiso   1.00
C393   C     0.36362   0.37609   0.20524   0.00000  Uiso   1.00
H394   H     0.38645   0.36382   0.22361   0.00000  Uiso   1.00
H395   H     0.66207   0.38727   0.23186   0.00000  Uiso   1.00
C396   C     0.35266   0.34060   0.17765   0.00000  Uiso   1.00
H397   H     0.66345   0.35207   0.15859   0.00000  Uiso   1.00
H398   H     0.66558   0.64881   0.20174   0.00000  Uiso   1.00
H399   H     0.38720   0.66067   0.15240   0.00000  Uiso   1.00
O400   O     0.59692   0.55511   0.30528   0.00000  Uiso   1.00
C401   C     0.61263   0.59737   0.29881   0.00000  Uiso   1.00
H402   H     0.58491   0.61541   0.29078   0.00000  Uiso   1.00
H403   H     0.64816   0.60269   0.26922   0.00000  Uiso   1.00
C404   C     0.61495   0.61498   0.34379   0.00000  Uiso   1.00
H405   H     0.57832   0.61228   0.37220   0.00000  Uiso   1.00
H406   H     0.64125   0.59678   0.35384   0.00000  Uiso   1.00
C407   C     0.63070   0.66081   0.33809   0.00000  Uiso   1.00
H408   H     0.33429   0.66413   0.31034   0.00000  Uiso   1.00
H409   H     0.63196   0.33949   0.37120   0.00000  Uiso   1.00
H410   H     0.60432   0.34650   0.32894   0.00000  Uiso   1.00
C411   C     0.83342   0.58001   0.24996   0.00000  Uiso   1.00
C412   C     0.83325   0.42000   0.24994   0.00000  Uiso   1.00
C413   C     0.78552   0.45836   0.04479   0.00000  Uiso   1.00
C414   C     0.89427   0.49787   0.44638   0.00000  Uiso   1.00
C415   C     0.75163   0.45325   0.02411   0.00000  Uiso   1.00
C416   C     0.92831   0.50263   0.46693   0.00000  Uiso   1.00
C417   C     0.87764   0.64544   0.22925   0.00000  Uiso   1.00
C418   C     0.78889   0.35461   0.26992   0.00000  Uiso   1.00
C419   C     0.87758   0.35493   0.22946   0.00000  Uiso   1.00
C420   C     0.78897   0.64511   0.26991   0.00000  Uiso   1.00
C421   C     0.83320   0.37588   0.24973   0.00000  Uiso   1.00
C422   C     0.83340   0.62415   0.24978   0.00000  Uiso   1.00
C423   C     0.98618   0.47195   0.22354   0.00000  Uiso   1.00
C424   C     0.68029   0.52765   0.27677   0.00000  Uiso   1.00
C425   C     0.70164   0.47143   0.22335   0.00000  Uiso   1.00
C426   C     0.96558   0.52839   0.27635   0.00000  Uiso   1.00
C427   C     0.80283   0.49985   0.33796   0.00000  Uiso   1.00
C428   C     0.86387   0.49941   0.16202   0.00000  Uiso   1.00
C429   C     0.78440   0.49423   0.38811   0.00000  Uiso   1.00
C430   C     0.88316   0.49682   0.11142   0.00000  Uiso   1.00
C431   C     0.72776   0.46262   0.45833   0.00000  Uiso   1.00
C432   C     0.94713   0.50757   0.03608   0.00000  Uiso   1.00
C433   C     0.73912   0.47540   0.41258   0.00000  Uiso   1.00
C434   C     0.93180   0.50671   0.08433   0.00000  Uiso   1.00
C435   C     0.81706   0.50157   0.40987   0.00000  Uiso   1.00
C436   C     0.85102   0.48535   0.09019   0.00000  Uiso   1.00
C437   C     0.80866   0.48533   0.45374   0.00000  Uiso   1.00
C438   C     0.86555   0.48555   0.04193   0.00000  Uiso   1.00
C439   C     0.76238   0.46717   0.47898   0.00000  Uiso   1.00
C440   C     0.91402   0.49821   0.01477   0.00000  Uiso   1.00
C441   C     0.84502   0.48708   0.47308   0.00000  Uiso   1.00
C442   C     0.83189   0.47678   0.02046   0.00000  Uiso   1.00
H443   H     0.71668   0.43874   0.04372   0.00000  Uiso   1.00
H444   H     0.96550   0.51140   0.44551   0.00000  Uiso   1.00
H445   H     0.81369   0.47871   0.11222   0.00000  Uiso   1.00
H446   H     0.84971   0.51930   0.39120   0.00000  Uiso   1.00
H447   H     0.95728   0.51529   0.10041   0.00000  Uiso   1.00
H448   H     0.71351   0.46923   0.39593   0.00000  Uiso   1.00
H449   H     0.69271   0.44790   0.47698   0.00000  Uiso   1.00
H450   H     0.98427   0.51712   0.01557   0.00000  Uiso   1.00
H451   H     0.77505   0.44615   0.07942   0.00000  Uiso   1.00
H452   H     0.90795   0.50178   0.40916   0.00000  Uiso   1.00
H453   H     0.91189   0.62900   0.21290   0.00000  Uiso   1.00
H454   H     0.75461   0.37104   0.28616   0.00000  Uiso   1.00
H455   H     0.91182   0.37164   0.21345   0.00000  Uiso   1.00
H456   H     0.75468   0.62845   0.28602   0.00000  Uiso   1.00
H457   H     0.97417   0.45022   0.20342   0.00000  Uiso   1.00
H458   H     0.69045   0.54902   0.29863   0.00000  Uiso   1.00
N459   N     0.71426   0.50001   0.25001   0.00000  Uiso   1.00
N460   N     0.95241   0.49999   0.24999   0.00000  Uiso   1.00
O461   O     0.79512   0.56108   0.25001   0.00000  Uiso   1.00
O462   O     0.87154   0.43892   0.25000   0.00000  Uiso   1.00
O463   O     0.87157   0.56107   0.25000   0.00000  Uiso   1.00
O464   O     0.79510   0.43893   0.25000   0.00000  Uiso   1.00
O465   O     0.77328   0.50001   0.31613   0.00000  Uiso   1.00
O466   O     0.89339   0.49999   0.18388   0.00000  Uiso   1.00
O467   O     0.84972   0.50000   0.31612   0.00000  Uiso   1.00
O468   O     0.81695   0.50000   0.18388   0.00000  Uiso   1.00
Zn469  Zn    0.78229   0.50001   0.25000   0.00000  Uiso   1.00
Zn470  Zn    0.88438   0.49999   0.25000   0.00000  Uiso   1.00
O471   O     0.73817   0.44350   0.19769   0.00000  Uiso   1.00
C472   C     0.72437   0.41190   0.17306   0.00000  Uiso   1.00
H473   H     0.75876   0.39872   0.14745   0.00000  Uiso   1.00
H474   H     0.70479   0.42433   0.15164   0.00000  Uiso   1.00
C475   C     0.69695   0.37609   0.20524   0.00000  Uiso   1.00
H476   H     0.71978   0.36382   0.22361   0.00000  Uiso   1.00
H477   H     0.99541   0.38727   0.23186   0.00000  Uiso   1.00
C478   C     0.68599   0.34060   0.17765   0.00000  Uiso   1.00
H479   H     0.99678   0.35207   0.15859   0.00000  Uiso   1.00
H480   H     0.99891   0.64881   0.20174   0.00000  Uiso   1.00
H481   H     0.72054   0.66067   0.15240   0.00000  Uiso   1.00
O482   O     0.93026   0.55511   0.30528   0.00000  Uiso   1.00
C483   C     0.94596   0.59737   0.29881   0.00000  Uiso   1.00
H484   H     0.91824   0.61541   0.29078   0.00000  Uiso   1.00
H485   H     0.98149   0.60269   0.26922   0.00000  Uiso   1.00
C486   C     0.94828   0.61498   0.34379   0.00000  Uiso   1.00
H487   H     0.91166   0.61228   0.37220   0.00000  Uiso   1.00
H488   H     0.97458   0.59678   0.35384   0.00000  Uiso   1.00
C489   C     0.96403   0.66081   0.33809   0.00000  Uiso   1.00
H490   H     0.66762   0.66413   0.31034   0.00000  Uiso   1.00
H491   H     0.96529   0.33949   0.37120   0.00000  Uiso   1.00
H492   H     0.93765   0.34650   0.32894   0.00000  Uiso   1.00
C493   C     0.16676   0.91334   0.24996   0.00000  Uiso   1.00
C494   C     0.16658   0.75334   0.24994   0.00000  Uiso   1.00
C495   C     0.11886   0.79170   0.04479   0.00000  Uiso   1.00
C496   C     0.22761   0.83120   0.44638   0.00000  Uiso   1.00
C497   C     0.08496   0.78659   0.02411   0.00000  Uiso   1.00
C498   C     0.26164   0.83596   0.46693   0.00000  Uiso   1.00
C499   C     0.21098   0.97877   0.22925   0.00000  Uiso   1.00
C500   C     0.12223   0.68794   0.26992   0.00000  Uiso   1.00
C501   C     0.21092   0.68826   0.22946   0.00000  Uiso   1.00
C502   C     0.12230   0.97844   0.26991   0.00000  Uiso   1.00
C503   C     0.16654   0.70921   0.24973   0.00000  Uiso   1.00
C504   C     0.16674   0.95748   0.24978   0.00000  Uiso   1.00
C505   C     0.31951   0.80528   0.22354   0.00000  Uiso   1.00
C506   C     0.01362   0.86098   0.27677   0.00000  Uiso   1.00
C507   C     0.03497   0.80476   0.22335   0.00000  Uiso   1.00
C508   C     0.29892   0.86172   0.27635   0.00000  Uiso   1.00
C509   C     0.13617   0.83319   0.33796   0.00000  Uiso   1.00
C510   C     0.19721   0.83274   0.16202   0.00000  Uiso   1.00
C511   C     0.11773   0.82756   0.38811   0.00000  Uiso   1.00
C512   C     0.21650   0.83015   0.11142   0.00000  Uiso   1.00
C513   C     0.06110   0.79595   0.45833   0.00000  Uiso   1.00
C514   C     0.28047   0.84091   0.03608   0.00000  Uiso   1.00
C515   C     0.07245   0.80874   0.41258   0.00000  Uiso   1.00
C516   C     0.26514   0.84004   0.08433   0.00000  Uiso   1.00
C517   C     0.15040   0.83490   0.40987   0.00000  Uiso   1.00
C518   C     0.18435   0.81868   0.09019   0.00000  Uiso   1.00
C519   C     0.14200   0.81866   0.45374   0.00000  Uiso   1.00
C520   C     0.19888   0.81888   0.04193   0.00000  Uiso   1.00
C521   C     0.09571   0.80050   0.47898   0.00000  Uiso   1.00
C522   C     0.24735   0.83154   0.01477   0.00000  Uiso   1.00
C523   C     0.17836   0.82042   0.47308   0.00000  Uiso   1.00
C524   C     0.16522   0.81011   0.02046   0.00000  Uiso   1.00
H525   H     0.05001   0.77208   0.04372   0.00000  Uiso   1.00
H526   H     0.29883   0.84473   0.44551   0.00000  Uiso   1.00
H527   H     0.14703   0.81204   0.11222   0.00000  Uiso   1.00
H528   H     0.18304   0.85263   0.39120   0.00000  Uiso   1.00
H529   H     0.29061   0.84863   0.10041   0.00000  Uiso   1.00
H530   H     0.04685   0.80257   0.39593   0.00000  Uiso   1.00
H531   H     0.02604   0.78124   0.47698   0.00000  Uiso   1.00
H532   H     0.31760   0.85045   0.01557   0.00000  Uiso   1.00
H533   H     0.10838   0.77948   0.07942   0.00000  Uiso   1.00
H534   H     0.24128   0.83511   0.40916   0.00000  Uiso   1.00
H535   H     0.24522   0.96233   0.21290   0.00000  Uiso   1.00
H536   H     0.08795   0.70438   0.28616   0.00000  Uiso   1.00
H537   H     0.24516   0.70497   0.21345   0.00000  Uiso   1.00
H538   H     0.08802   0.96178   0.28602   0.00000  Uiso   1.00
H539   H     0.30751   0.78355   0.20342   0.00000  Uiso   1.00
H540   H     0.02378   0.88236   0.29863   0.00000  Uiso   1.00
N541   N     0.04759   0.83334   0.25001   0.00000  Uiso   1.00
N542   N     0.28574   0.83332   0.24999   0.00000  Uiso   1.00
O543   O     0.12846   0.89442   0.25001   0.00000  Uiso   1.00
O544   O     0.20488   0.77225   0.25000   0.00000  Uiso   1.00
O545   O     0.20490   0.89441   0.25000   0.00000  Uiso   1.00
O546   O     0.12843   0.77226   0.25000   0.00000  Uiso   1.00
O547   O     0.10661   0.83334   0.31613   0.00000  Uiso   1.00
O548   O     0.22672   0.83333   0.18388   0.00000  Uiso   1.00
O549   O     0.18305   0.83333   0.31612   0.00000  Uiso   1.00
O550   O     0.15028   0.83334   0.18388   0.00000  Uiso   1.00
Zn551  Zn    0.11562   0.83334   0.25000   0.00000  Uiso   1.00
Zn552  Zn    0.21771   0.83333   0.25000   0.00000  Uiso   1.00
O553   O     0.07151   0.77683   0.19769   0.00000  Uiso   1.00
C554   C     0.05770   0.74524   0.17306   0.00000  Uiso   1.00
H555   H     0.09209   0.73205   0.14745   0.00000  Uiso   1.00
H556   H     0.03812   0.75766   0.15164   0.00000  Uiso   1.00
C557   C     0.03029   0.70942   0.20524   0.00000  Uiso   1.00
H558   H     0.05312   0.69715   0.22361   0.00000  Uiso   1.00
H559   H     0.32874   0.72060   0.23186   0.00000  Uiso   1.00
C560   C     0.01933   0.67393   0.17765   0.00000  Uiso   1.00
H561   H     0.33012   0.68540   0.15859   0.00000  Uiso   1.00
H562   H     0.33224   0.98214   0.20174   0.00000  Uiso   1.00
H563   H     0.05387   0.99400   0.15240   0.00000  Uiso   1.00
O564   O     0.26359   0.88844   0.30528   0.00000  Uiso   1.00
C565   C     0.27930   0.93070   0.29881   0.00000  Uiso   1.00
H566   H     0.25157   0.94874   0.29078   0.00000  Uiso   1.00
H567   H     0.31482   0.93602   0.26922   0.00000  Uiso   1.00
C568   C     0.28161   0.94832   0.34379   0.00000  Uiso   1.00
H569   H     0.24499   0.94561   0.37220   0.00000  Uiso   1.00
H570   H     0.30792   0.93011   0.35384   0.00000  Uiso   1.00
C571   C     0.29736   0.99414   0.33809   0.00000  Uiso   1.00
H572   H     0.00095   0.99747   0.31034   0.00000  Uiso   1.00
H573   H     0.29862   0.67282   0.37120   0.00000  Uiso   1.00
H574   H     0.27098   0.67984   0.32894   0.00000  Uiso   1.00
C575   C     0.50009   0.91334   0.24996   0.00000  Uiso   1.00
C576   C     0.49991   0.75334   0.24994   0.00000  Uiso   1.00
C577   C     0.45219   0.79170   0.04479   0.00000  Uiso   1.00
C578   C     0.56094   0.83120   0.44638   0.00000  Uiso   1.00
C579   C     0.41829   0.78659   0.02411   0.00000  Uiso   1.00
C580   C     0.59498   0.83596   0.46693   0.00000  Uiso   1.00
C581   C     0.54431   0.97877   0.22925   0.00000  Uiso   1.00
C582   C     0.45556   0.68794   0.26992   0.00000  Uiso   1.00
C583   C     0.54425   0.68826   0.22946   0.00000  Uiso   1.00
C584   C     0.45564   0.97844   0.26991   0.00000  Uiso   1.00
C585   C     0.49987   0.70921   0.24973   0.00000  Uiso   1.00
C586   C     0.50007   0.95748   0.24978   0.00000  Uiso   1.00
C587   C     0.65284   0.80528   0.22354   0.00000  Uiso   1.00
C588   C     0.34695   0.86098   0.27677   0.00000  Uiso   1.00
C589   C     0.36830   0.80476   0.22335   0.00000  Uiso   1.00
C590   C     0.63225   0.86172   0.27635   0.00000  Uiso   1.00
C591   C     0.46950   0.83319   0.33796   0.00000  Uiso   1.00
C592   C     0.53054   0.83274   0.16202   0.00000  Uiso   1.00
C593   C     0.45106   0.82756   0.38811   0.00000  Uiso   1.00
C594   C     0.54983   0.83015   0.11142   0.00000  Uiso   1.00
C595   C     0.39443   0.79595   0.45833   0.00000  Uiso   1.00
C596   C     0.61380   0.84091   0.03608   0.00000  Uiso   1.00
C597   C     0.40579   0.80874   0.41258   0.00000  Uiso   1.00
C598   C     0.59847   0.84004   0.08433   0.00000  Uiso   1.00
C599   C     0.48373   0.83490   0.40987   0.00000  Uiso   1.00
C600   C     0.51768   0.81868   0.09019   0.00000  Uiso   1.00
C601   C     0.47533   0.81866   0.45374   0.00000  Uiso   1.00
C602   C     0.53221   0.81888   0.04193   0.00000  Uiso   1.00
C603   C     0.42904   0.80050   0.47898   0.00000  Uiso   1.00
C604   C     0.58069   0.83154   0.01477   0.00000  Uiso   1.00
C605   C     0.51169   0.82042   0.47308   0.00000  Uiso   1.00
C606   C     0.49856   0.81011   0.02046   0.00000  Uiso   1.00
H607   H     0.38334   0.77208   0.04372   0.00000  Uiso   1.00
H608   H     0.63216   0.84473   0.44551   0.00000  Uiso   1.00
H609   H     0.48036   0.81204   0.11222   0.00000  Uiso   1.00
H610   H     0.51638   0.85263   0.39120   0.00000  Uiso   1.00
H611   H     0.62395   0.84863   0.10041   0.00000  Uiso   1.00
H612   H     0.38018   0.80257   0.39593   0.00000  Uiso   1.00
H613   H     0.35938   0.78124   0.47698   0.00000  Uiso   1.00
H614   H     0.65093   0.85045   0.01557   0.00000  Uiso   1.00
H615   H     0.44172   0.77948   0.07942   0.00000  Uiso   1.00
H616   H     0.57462   0.83511   0.40916   0.00000  Uiso   1.00
H617   H     0.57855   0.96233   0.21290   0.00000  Uiso   1.00
H618   H     0.42128   0.70438   0.28616   0.00000  Uiso   1.00
H619   H     0.57849   0.70497   0.21345   0.00000  Uiso   1.00
H620   H     0.42135   0.96178   0.28602   0.00000  Uiso   1.00
H621   H     0.64084   0.78355   0.20342   0.00000  Uiso   1.00
H622   H     0.35712   0.88236   0.29863   0.00000  Uiso   1.00
N623   N     0.38093   0.83334   0.25001   0.00000  Uiso   1.00
N624   N     0.61907   0.83332   0.24999   0.00000  Uiso   1.00
O625   O     0.46179   0.89442   0.25001   0.00000  Uiso   1.00
O626   O     0.53821   0.77225   0.25000   0.00000  Uiso   1.00
O627   O     0.53823   0.89441   0.25000   0.00000  Uiso   1.00
O628   O     0.46177   0.77226   0.25000   0.00000  Uiso   1.00
O629   O     0.43994   0.83334   0.31613   0.00000  Uiso   1.00
O630   O     0.56006   0.83333   0.18388   0.00000  Uiso   1.00
O631   O     0.51639   0.83333   0.31612   0.00000  Uiso   1.00
O632   O     0.48361   0.83334   0.18388   0.00000  Uiso   1.00
Zn633  Zn    0.44896   0.83334   0.25000   0.00000  Uiso   1.00
Zn634  Zn    0.55104   0.83333   0.25000   0.00000  Uiso   1.00
O635   O     0.40484   0.77683   0.19769   0.00000  Uiso   1.00
C636   C     0.39104   0.74524   0.17306   0.00000  Uiso   1.00
H637   H     0.42543   0.73205   0.14745   0.00000  Uiso   1.00
H638   H     0.37145   0.75766   0.15164   0.00000  Uiso   1.00
C639   C     0.36362   0.70942   0.20524   0.00000  Uiso   1.00
H640   H     0.38645   0.69715   0.22361   0.00000  Uiso   1.00
H641   H     0.66207   0.72060   0.23186   0.00000  Uiso   1.00
C642   C     0.35266   0.67393   0.17765   0.00000  Uiso   1.00
H643   H     0.66345   0.68540   0.15859   0.00000  Uiso   1.00
H644   H     0.66558   0.98214   0.20174   0.00000  Uiso   1.00
H645   H     0.38720   0.99400   0.15240   0.00000  Uiso   1.00
O646   O     0.59692   0.88844   0.30528   0.00000  Uiso   1.00
C647   C     0.61263   0.93070   0.29881   0.00000  Uiso   1.00
H648   H     0.58491   0.94874   0.29078   0.00000  Uiso   1.00
H649   H     0.64816   0.93602   0.26922   0.00000  Uiso   1.00
C650   C     0.61495   0.94832   0.34379   0.00000  Uiso   1.00
H651   H     0.57832   0.94561   0.37220   0.00000  Uiso   1.00
H652   H     0.64125   0.93011   0.35384   0.00000  Uiso   1.00
C653   C     0.63070   0.99414   0.33809   0.00000  Uiso   1.00
H654   H     0.33429   0.99747   0.31034   0.00000  Uiso   1.00
H655   H     0.63196   0.67282   0.37120   0.00000  Uiso   1.00
H656   H     0.60432   0.67984   0.32894   0.00000  Uiso   1.00
C657   C     0.83342   0.91334   0.24996   0.00000  Uiso   1.00
C658   C     0.83325   0.75334   0.24994   0.00000  Uiso   1.00
C659   C     0.78552   0.79170   0.04479   0.00000  Uiso   1.00
C660   C     0.89427   0.83120   0.44638   0.00000  Uiso   1.00
C661   C     0.75163   0.78659   0.02411   0.00000  Uiso   1.00
C662   C     0.92831   0.83596   0.46693   0.00000  Uiso   1.00
C663   C     0.87764   0.97877   0.22925   0.00000  Uiso   1.00
C664   C     0.78889   0.68794   0.26992   0.00000  Uiso   1.00
C665   C     0.87758   0.68826   0.22946   0.00000  Uiso   1.00
C666   C     0.78897   0.97844   0.26991   0.00000  Uiso   1.00
C667   C     0.83320   0.70921   0.24973   0.00000  Uiso   1.00
C668   C     0.83340   0.95748   0.24978   0.00000  Uiso   1.00
C669   C     0.98618   0.80528   0.22354   0.00000  Uiso   1.00
C670   C     0.68029   0.86098   0.27677   0.00000  Uiso   1.00
C671   C     0.70164   0.80476   0.22335   0.00000  Uiso   1.00
C672   C     0.96558   0.86172   0.27635   0.00000  Uiso   1.00
C673   C     0.80283   0.83319   0.33796   0.00000  Uiso   1.00
C674   C     0.86387   0.83274   0.16202   0.00000  Uiso   1.00
C675   C     0.78440   0.82756   0.38811   0.00000  Uiso   1.00
C676   C     0.88316   0.83015   0.11142   0.00000  Uiso   1.00
C677   C     0.72776   0.79595   0.45833   0.00000  Uiso   1.00
C678   C     0.94713   0.84091   0.03608   0.00000  Uiso   1.00
C679   C     0.73912   0.80874   0.41258   0.00000  Uiso   1.00
C680   C     0.93180   0.84004   0.08433   0.00000  Uiso   1.00
C681   C     0.81706   0.83490   0.40987   0.00000  Uiso   1.00
C682   C     0.85102   0.81868   0.09019   0.00000  Uiso   1.00
C683   C     0.80866   0.81866   0.45374   0.00000  Uiso   1.00
C684   C     0.86555   0.81888   0.04193   0.00000  Uiso   1.00
C685   C     0.76238   0.80050   0.47898   0.00000  Uiso   1.00
C686   C     0.91402   0.83154   0.01477   0.00000  Uiso   1.00
C687   C     0.84502   0.82042   0.47308   0.00000  Uiso   1.00
C688   C     0.83189   0.81011   0.02046   0.00000  Uiso   1.00
H689   H     0.71668   0.77208   0.04372   0.00000  Uiso   1.00
H690   H     0.96550   0.84473   0.44551   0.00000  Uiso   1.00
H691   H     0.81369   0.81204   0.11222   0.00000  Uiso   1.00
H692   H     0.84971   0.85263   0.39120   0.00000  Uiso   1.00
H693   H     0.95728   0.84863   0.10041   0.00000  Uiso   1.00
H694   H     0.71351   0.80257   0.39593   0.00000  Uiso   1.00
H695   H     0.69271   0.78124   0.47698   0.00000  Uiso   1.00
H696   H     0.98427   0.85045   0.01557   0.00000  Uiso   1.00
H697   H     0.77505   0.77948   0.07942   0.00000  Uiso   1.00
H698   H     0.90795   0.83511   0.40916   0.00000  Uiso   1.00
H699   H     0.91189   0.96233   0.21290   0.00000  Uiso   1.00
H700   H     0.75461   0.70438   0.28616   0.00000  Uiso   1.00
H701   H     0.91182   0.70497   0.21345   0.00000  Uiso   1.00
H702   H     0.75468   0.96178   0.28602   0.00000  Uiso   1.00
H703   H     0.97417   0.78355   0.20342   0.00000  Uiso   1.00
H704   H     0.69045   0.88236   0.29863   0.00000  Uiso   1.00
N705   N     0.71426   0.83334   0.25001   0.00000  Uiso   1.00
N706   N     0.95241   0.83332   0.24999   0.00000  Uiso   1.00
O707   O     0.79512   0.89442   0.25001   0.00000  Uiso   1.00
O708   O     0.87154   0.77225   0.25000   0.00000  Uiso   1.00
O709   O     0.87157   0.89441   0.25000   0.00000  Uiso   1.00
O710   O     0.79510   0.77226   0.25000   0.00000  Uiso   1.00
O711   O     0.77328   0.83334   0.31613   0.00000  Uiso   1.00
O712   O     0.89339   0.83333   0.18388   0.00000  Uiso   1.00
O713   O     0.84972   0.83333   0.31612   0.00000  Uiso   1.00
O714   O     0.81695   0.83334   0.18388   0.00000  Uiso   1.00
Zn715  Zn    0.78229   0.83334   0.25000   0.00000  Uiso   1.00
Zn716  Zn    0.88438   0.83333   0.25000   0.00000  Uiso   1.00
O717   O     0.73817   0.77683   0.19769   0.00000  Uiso   1.00
C718   C     0.72437   0.74524   0.17306   0.00000  Uiso   1.00
H719   H     0.75876   0.73205   0.14745   0.00000  Uiso   1.00
H720   H     0.70479   0.75766   0.15164   0.00000  Uiso   1.00
C721   C     0.69695   0.70942   0.20524   0.00000  Uiso   1.00
H722   H     0.71978   0.69715   0.22361   0.00000  Uiso   1.00
H723   H     0.99541   0.72060   0.23186   0.00000  Uiso   1.00
C724   C     0.68599   0.67393   0.17765   0.00000  Uiso   1.00
H725   H     0.99678   0.68540   0.15859   0.00000  Uiso   1.00
H726   H     0.99891   0.98214   0.20174   0.00000  Uiso   1.00
H727   H     0.72054   0.99400   0.15240   0.00000  Uiso   1.00
O728   O     0.93026   0.88844   0.30528   0.00000  Uiso   1.00
C729   C     0.94596   0.93070   0.29881   0.00000  Uiso   1.00
H730   H     0.91824   0.94874   0.29078   0.00000  Uiso   1.00
H731   H     0.98149   0.93602   0.26922   0.00000  Uiso   1.00
C732   C     0.94828   0.94832   0.34379   0.00000  Uiso   1.00
H733   H     0.91166   0.94561   0.37220   0.00000  Uiso   1.00
H734   H     0.97458   0.93011   0.35384   0.00000  Uiso   1.00
C735   C     0.96403   0.99414   0.33809   0.00000  Uiso   1.00
H736   H     0.66762   0.99747   0.31034   0.00000  Uiso   1.00
H737   H     0.96529   0.67282   0.37120   0.00000  Uiso   1.00
H738   H     0.93765   0.67984   0.32894   0.00000  Uiso   1.00
C739   C     0.16676   0.24667   0.74996   0.00000  Uiso   1.00
C740   C     0.16658   0.08667   0.74994   0.00000  Uiso   1.00
C741   C     0.11886   0.12503   0.54479   0.00000  Uiso   1.00
C742   C     0.22761   0.16453   0.94638   0.00000  Uiso   1.00
C743   C     0.08496   0.11992   0.52411   0.00000  Uiso   1.00
C744   C     0.26164   0.16929   0.96693   0.00000  Uiso   1.00
C745   C     0.21098   0.31210   0.72925   0.00000  Uiso   1.00
C746   C     0.12223   0.02127   0.76992   0.00000  Uiso   1.00
C747   C     0.21092   0.02160   0.72946   0.00000  Uiso   1.00
C748   C     0.12230   0.31178   0.76991   0.00000  Uiso   1.00
C749   C     0.16654   0.04255   0.74973   0.00000  Uiso   1.00
C750   C     0.16674   0.29081   0.74978   0.00000  Uiso   1.00
C751   C     0.31951   0.13862   0.72354   0.00000  Uiso   1.00
C752   C     0.01362   0.19431   0.77677   0.00000  Uiso   1.00
C753   C     0.03497   0.13809   0.72335   0.00000  Uiso   1.00
C754   C     0.29892   0.19505   0.77635   0.00000  Uiso   1.00
C755   C     0.13617   0.16652   0.83796   0.00000  Uiso   1.00
C756   C     0.19721   0.16608   0.66202   0.00000  Uiso   1.00
C757   C     0.11773   0.16090   0.88811   0.00000  Uiso   1.00
C758   C     0.21650   0.16348   0.61142   0.00000  Uiso   1.00
C759   C     0.06110   0.12928   0.95833   0.00000  Uiso   1.00
C760   C     0.28047   0.17424   0.53608   0.00000  Uiso   1.00
C761   C     0.07245   0.14207   0.91258   0.00000  Uiso   1.00
C762   C     0.26514   0.17337   0.58433   0.00000  Uiso   1.00
C763   C     0.15040   0.16824   0.90987   0.00000  Uiso   1.00
C764   C     0.18435   0.15201   0.59019   0.00000  Uiso   1.00
C765   C     0.14200   0.15200   0.95374   0.00000  Uiso   1.00
C766   C     0.19888   0.15222   0.54193   0.00000  Uiso   1.00
C767   C     0.09571   0.13383   0.97898   0.00000  Uiso   1.00
C768   C     0.24735   0.16488   0.51477   0.00000  Uiso   1.00
C769   C     0.17836   0.15375   0.97308   0.00000  Uiso   1.00
C770   C     0.16522   0.14344   0.52046   0.00000  Uiso   1.00
H771   H     0.05001   0.10541   0.54372   0.00000  Uiso   1.00
H772   H     0.29883   0.17806   0.94551   0.00000  Uiso   1.00
H773   H     0.14703   0.14538   0.61222   0.00000  Uiso   1.00
H774   H     0.18304   0.18597   0.89120   0.00000  Uiso   1.00
H775   H     0.29061   0.18196   0.60041   0.00000  Uiso   1.00
H776   H     0.04685   0.13590   0.89593   0.00000  Uiso   1.00
H777   H     0.02604   0.11457   0.97698   0.00000  Uiso   1.00
H778   H     0.31760   0.18378   0.51557   0.00000  Uiso   1.00
H779   H     0.10838   0.11282   0.57942   0.00000  Uiso   1.00
H780   H     0.24128   0.16845   0.90916   0.00000  Uiso   1.00
H781   H     0.24522   0.29566   0.71290   0.00000  Uiso   1.00
H782   H     0.08795   0.03771   0.78616   0.00000  Uiso   1.00
H783   H     0.24516   0.03831   0.71345   0.00000  Uiso   1.00
H784   H     0.08802   0.29511   0.78602   0.00000  Uiso   1.00
H785   H     0.30751   0.11689   0.70342   0.00000  Uiso   1.00
H786   H     0.02378   0.21569   0.79863   0.00000  Uiso   1.00
N787   N     0.04759   0.16668   0.75001   0.00000  Uiso   1.00
N788   N     0.28574   0.16666   0.74999   0.00000  Uiso   1.00
O789   O     0.12846   0.22775   0.75001   0.00000  Uiso   1.00
O790   O     0.20488   0.10558   0.75000   0.00000  Uiso   1.00
O791   O     0.20490   0.22774   0.75000   0.00000  Uiso   1.00
O792   O     0.12843   0.10559   0.75000   0.00000  Uiso   1.00
O793   O     0.10661   0.16667   0.81613   0.00000  Uiso   1.00
O794   O     0.22672   0.16666   0.68388   0.00000  Uiso   1.00
O795   O     0.18305   0.16666   0.81612   0.00000  Uiso   1.00
O796   O     0.15028   0.16667   0.68388   0.00000  Uiso   1.00
Zn797  Zn    0.11562   0.16667   0.75000   0.00000  Uiso   1.00
Zn798  Zn    0.21771   0.16666   0.75000   0.00000  Uiso   1.00
O799   O     0.07151   0.11017   0.69769   0.00000  Uiso   1.00
C800   C     0.05770   0.07857   0.67306   0.00000  Uiso   1.00
H801   H     0.09209   0.06539   0.64745   0.00000  Uiso   1.00
H802   H     0.03812   0.09099   0.65164   0.00000  Uiso   1.00
C803   C     0.03029   0.04276   0.70524   0.00000  Uiso   1.00
H804   H     0.05312   0.03048   0.72361   0.00000  Uiso   1.00
H805   H     0.32874   0.05394   0.73186   0.00000  Uiso   1.00
C806   C     0.01933   0.00726   0.67765   0.00000  Uiso   1.00
H807   H     0.33012   0.01873   0.65859   0.00000  Uiso   1.00
H808   H     0.33224   0.31547   0.70174   0.00000  Uiso   1.00
H809   H     0.05387   0.32733   0.65240   0.00000  Uiso   1.00
O810   O     0.26359   0.22178   0.80528   0.00000  Uiso   1.00
C811   C     0.27930   0.26404   0.79881   0.00000  Uiso   1.00
H812   H     0.25157   0.28207   0.79078   0.00000  Uiso   1.00
H813   H     0.31482   0.26936   0.76922   0.00000  Uiso   1.00
C814   C     0.28161   0.28165   0.84379   0.00000  Uiso   1.00
H815   H     0.24499   0.27894   0.87220   0.00000  Uiso   1.00
H816   H     0.30792   0.26344   0.85384   0.00000  Uiso   1.00
C817   C     0.29736   0.32747   0.83809   0.00000  Uiso   1.00
H818   H     0.00095   0.33080   0.81034   0.00000  Uiso   1.00
H819   H     0.29862   0.00615   0.87120   0.00000  Uiso   1.00
H820   H     0.27098   0.01317   0.82894   0.00000  Uiso   1.00
C821   C     0.50009   0.24667   0.74996   0.00000  Uiso   1.00
C822   C     0.49991   0.08667   0.74994   0.00000  Uiso   1.00
C823   C     0.45219   0.12503   0.54479   0.00000  Uiso   1.00
C824   C     0.56094   0.16453   0.94638   0.00000  Uiso   1.00
C825   C     0.41829   0.11992   0.52411   0.00000  Uiso   1.00
C826   C     0.59498   0.16929   0.96693   0.00000  Uiso   1.00
C827   C     0.54431   0.31210   0.72925   0.00000  Uiso   1.00
C828   C     0.45556   0.02127   0.76992   0.00000  Uiso   1.00
C829   C     0.54425   0.02160   0.72946   0.00000  Uiso   1.00
C830   C     0.45564   0.31178   0.76991   0.00000  Uiso   1.00
C831   C     0.49987   0.04255   0.74973   0.00000  Uiso   1.00
C832   C     0.50007   0.29081   0.74978   0.00000  Uiso   1.00
C833   C     0.65284   0.13862   0.72354   0.00000  Uiso   1.00
C834   C     0.34695   0.19431   0.77677   0.00000  Uiso   1.00
C835   C     0.36830   0.13809   0.72335   0.00000  Uiso   1.00
C836   C     0.63225   0.19505   0.77635   0.00000  Uiso   1.00
C837   C     0.46950   0.16652   0.83796   0.00000  Uiso   1.00
C838   C     0.53054   0.16608   0.66202   0.00000  Uiso   1.00
C839   C     0.45106   0.16090   0.88811   0.00000  Uiso   1.00
C840   C     0.54983   0.16348   0.61142   0.00000  Uiso   1.00
C841   C     0.39443   0.12928   0.95833   0.00000  Uiso   1.00
C842   C     0.61380   0.17424   0.53608   0.00000  Uiso   1.00
C843   C     0.40579   0.14207   0.91258   0.00000  Uiso   1.00
C844   C     0.59847   0.17337   0.58433   0.00000  Uiso   1.00
C845   C     0.48373   0.16824   0.90987   0.00000  Uiso   1.00
C846   C     0.51768   0.15201   0.59019   0.00000  Uiso   1.00
C847   C     0.47533   0.15200   0.95374   0.00000  Uiso   1.00
C848   C     0.53221   0.15222   0.54193   0.00000  Uiso   1.00
C849   C     0.42904   0.13383   0.97898   0.00000  Uiso   1.00
C850   C     0.58069   0.16488   0.51477   0.00000  Uiso   1.00
C851   C     0.51169   0.15375   0.97308   0.00000  Uiso   1.00
C852   C     0.49856   0.14344   0.52046   0.00000  Uiso   1.00
H853   H     0.38334   0.10541   0.54372   0.00000  Uiso   1.00
H854   H     0.63216   0.17806   0.94551   0.00000  Uiso   1.00
H855   H     0.48036   0.14538   0.61222   0.00000  Uiso   1.00
H856   H     0.51638   0.18597   0.89120   0.00000  Uiso   1.00
H857   H     0.62395   0.18196   0.60041   0.00000  Uiso   1.00
H858   H     0.38018   0.13590   0.89593   0.00000  Uiso   1.00
H859   H     0.35938   0.11457   0.97698   0.00000  Uiso   1.00
H860   H     0.65093   0.18378   0.51557   0.00000  Uiso   1.00
H861   H     0.44172   0.11282   0.57942   0.00000  Uiso   1.00
H862   H     0.57462   0.16845   0.90916   0.00000  Uiso   1.00
H863   H     0.57855   0.29566   0.71290   0.00000  Uiso   1.00
H864   H     0.42128   0.03771   0.78616   0.00000  Uiso   1.00
H865   H     0.57849   0.03831   0.71345   0.00000  Uiso   1.00
H866   H     0.42135   0.29511   0.78602   0.00000  Uiso   1.00
H867   H     0.64084   0.11689   0.70342   0.00000  Uiso   1.00
H868   H     0.35712   0.21569   0.79863   0.00000  Uiso   1.00
N869   N     0.38093   0.16668   0.75001   0.00000  Uiso   1.00
N870   N     0.61907   0.16666   0.74999   0.00000  Uiso   1.00
O871   O     0.46179   0.22775   0.75001   0.00000  Uiso   1.00
O872   O     0.53821   0.10558   0.75000   0.00000  Uiso   1.00
O873   O     0.53823   0.22774   0.75000   0.00000  Uiso   1.00
O874   O     0.46177   0.10559   0.75000   0.00000  Uiso   1.00
O875   O     0.43994   0.16667   0.81613   0.00000  Uiso   1.00
O876   O     0.56006   0.16666   0.68388   0.00000  Uiso   1.00
O877   O     0.51639   0.16666   0.81612   0.00000  Uiso   1.00
O878   O     0.48361   0.16667   0.68388   0.00000  Uiso   1.00
Zn879  Zn    0.44896   0.16667   0.75000   0.00000  Uiso   1.00
Zn880  Zn    0.55104   0.16666   0.75000   0.00000  Uiso   1.00
O881   O     0.40484   0.11017   0.69769   0.00000  Uiso   1.00
C882   C     0.39104   0.07857   0.67306   0.00000  Uiso   1.00
H883   H     0.42543   0.06539   0.64745   0.00000  Uiso   1.00
H884   H     0.37145   0.09099   0.65164   0.00000  Uiso   1.00
C885   C     0.36362   0.04276   0.70524   0.00000  Uiso   1.00
H886   H     0.38645   0.03048   0.72361   0.00000  Uiso   1.00
H887   H     0.66207   0.05394   0.73186   0.00000  Uiso   1.00
C888   C     0.35266   0.00726   0.67765   0.00000  Uiso   1.00
H889   H     0.66345   0.01873   0.65859   0.00000  Uiso   1.00
H890   H     0.66558   0.31547   0.70174   0.00000  Uiso   1.00
H891   H     0.38720   0.32733   0.65240   0.00000  Uiso   1.00
O892   O     0.59692   0.22178   0.80528   0.00000  Uiso   1.00
C893   C     0.61263   0.26404   0.79881   0.00000  Uiso   1.00
H894   H     0.58491   0.28207   0.79078   0.00000  Uiso   1.00
H895   H     0.64816   0.26936   0.76922   0.00000  Uiso   1.00
C896   C     0.61495   0.28165   0.84379   0.00000  Uiso   1.00
H897   H     0.57832   0.27894   0.87220   0.00000  Uiso   1.00
H898   H     0.64125   0.26344   0.85384   0.00000  Uiso   1.00
C899   C     0.63070   0.32747   0.83809   0.00000  Uiso   1.00
H900   H     0.33429   0.33080   0.81034   0.00000  Uiso   1.00
H901   H     0.63196   0.00615   0.87120   0.00000  Uiso   1.00
H902   H     0.60432   0.01317   0.82894   0.00000  Uiso   1.00
C903   C     0.83342   0.24667   0.74996   0.00000  Uiso   1.00
C904   C     0.83325   0.08667   0.74994   0.00000  Uiso   1.00
C905   C     0.78552   0.12503   0.54479   0.00000  Uiso   1.00
C906   C     0.89427   0.16453   0.94638   0.00000  Uiso   1.00
C907   C     0.75163   0.11992   0.52411   0.00000  Uiso   1.00
C908   C     0.92831   0.16929   0.96693   0.00000  Uiso   1.00
C909   C     0.87764   0.31210   0.72925   0.00000  Uiso   1.00
C910   C     0.78889   0.02127   0.76992   0.00000  Uiso   1.00
C911   C     0.87758   0.02160   0.72946   0.00000  Uiso   1.00
C912   C     0.78897   0.31178   0.76991   0.00000  Uiso   1.00
C913   C     0.83320   0.04255   0.74973   0.00000  Uiso   1.00
C914   C     0.83340   0.29081   0.74978   0.00000  Uiso   1.00
C915   C     0.98618   0.13862   0.72354   0.00000  Uiso   1.00
C916   C     0.68029   0.19431   0.77677   0.00000  Uiso   1.00
C917   C     0.70164   0.13809   0.72335   0.00000  Uiso   1.00
C918   C     0.96558   0.19505   0.77635   0.00000  Uiso   1.00
C919   C     0.80283   0.16652   0.83796   0.00000  Uiso   1.00
C920   C     0.86387   0.16608   0.66202   0.00000  Uiso   1.00
C921   C     0.78440   0.16090   0.88811   0.00000  Uiso   1.00
C922   C     0.88316   0.16348   0.61142   0.00000  Uiso   1.00
C923   C     0.72776   0.12928   0.95833   0.00000  Uiso   1.00
C924   C     0.94713   0.17424   0.53608   0.00000  Uiso   1.00
C925   C     0.73912   0.14207   0.91258   0.00000  Uiso   1.00
C926   C     0.93180   0.17337   0.58433   0.00000  Uiso   1.00
C927   C     0.81706   0.16824   0.90987   0.00000  Uiso   1.00
C928   C     0.85102   0.15201   0.59019   0.00000  Uiso   1.00
C929   C     0.80866   0.15200   0.95374   0.00000  Uiso   1.00
C930   C     0.86555   0.15222   0.54193   0.00000  Uiso   1.00
C931   C     0.76238   0.13383   0.97898   0.00000  Uiso   1.00
C932   C     0.91402   0.16488   0.51477   0.00000  Uiso   1.00
C933   C     0.84502   0.15375   0.97308   0.00000  Uiso   1.00
C934   C     0.83189   0.14344   0.52046   0.00000  Uiso   1.00
H935   H     0.71668   0.10541   0.54372   0.00000  Uiso   1.00
H936   H     0.96550   0.17806   0.94551   0.00000  Uiso   1.00
H937   H     0.81369   0.14538   0.61222   0.00000  Uiso   1.00
H938   H     0.84971   0.18597   0.89120   0.00000  Uiso   1.00
H939   H     0.95728   0.18196   0.60041   0.00000  Uiso   1.00
H940   H     0.71351   0.13590   0.89593   0.00000  Uiso   1.00
H941   H     0.69271   0.11457   0.97698   0.00000  Uiso   1.00
H942   H     0.98427   0.18378   0.51557   0.00000  Uiso   1.00
H943   H     0.77505   0.11282   0.57942   0.00000  Uiso   1.00
H944   H     0.90795   0.16845   0.90916   0.00000  Uiso   1.00
H945   H     0.91189   0.29566   0.71290   0.00000  Uiso   1.00
H946   H     0.75461   0.03771   0.78616   0.00000  Uiso   1.00
H947   H     0.91182   0.03831   0.71345   0.00000  Uiso   1.00
H948   H     0.75468   0.29511   0.78602   0.00000  Uiso   1.00
H949   H     0.97417   0.11689   0.70342   0.00000  Uiso   1.00
H950   H     0.69045   0.21569   0.79863   0.00000  Uiso   1.00
N951   N     0.71426   0.16668   0.75001   0.00000  Uiso   1.00
N952   N     0.95241   0.16666   0.74999   0.00000  Uiso   1.00
O953   O     0.79512   0.22775   0.75001   0.00000  Uiso   1.00
O954   O     0.87154   0.10558   0.75000   0.00000  Uiso   1.00
O955   O     0.87157   0.22774   0.75000   0.00000  Uiso   1.00
O956   O     0.79510   0.10559   0.75000   0.00000  Uiso   1.00
O957   O     0.77328   0.16667   0.81613   0.00000  Uiso   1.00
O958   O     0.89339   0.16666   0.68388   0.00000  Uiso   1.00
O959   O     0.84972   0.16666   0.81612   0.00000  Uiso   1.00
O960   O     0.81695   0.16667   0.68388   0.00000  Uiso   1.00
Zn961  Zn    0.78229   0.16667   0.75000   0.00000  Uiso   1.00
Zn962  Zn    0.88438   0.16666   0.75000   0.00000  Uiso   1.00
O963   O     0.73817   0.11017   0.69769   0.00000  Uiso   1.00
C964   C     0.72437   0.07857   0.67306   0.00000  Uiso   1.00
H965   H     0.75876   0.06539   0.64745   0.00000  Uiso   1.00
H966   H     0.70479   0.09099   0.65164   0.00000  Uiso   1.00
C967   C     0.69695   0.04276   0.70524   0.00000  Uiso   1.00
H968   H     0.71978   0.03048   0.72361   0.00000  Uiso   1.00
H969   H     0.99541   0.05394   0.73186   0.00000  Uiso   1.00
C970   C     0.68599   0.00726   0.67765   0.00000  Uiso   1.00
H971   H     0.99678   0.01873   0.65859   0.00000  Uiso   1.00
H972   H     0.99891   0.31547   0.70174   0.00000  Uiso   1.00
H973   H     0.72054   0.32733   0.65240   0.00000  Uiso   1.00
O974   O     0.93026   0.22178   0.80528   0.00000  Uiso   1.00
C975   C     0.94596   0.26404   0.79881   0.00000  Uiso   1.00
H976   H     0.91824   0.28207   0.79078   0.00000  Uiso   1.00
H977   H     0.98149   0.26936   0.76922   0.00000  Uiso   1.00
C978   C     0.94828   0.28165   0.84379   0.00000  Uiso   1.00
H979   H     0.91166   0.27894   0.87220   0.00000  Uiso   1.00
H980   H     0.97458   0.26344   0.85384   0.00000  Uiso   1.00
C981   C     0.96403   0.32747   0.83809   0.00000  Uiso   1.00
H982   H     0.66762   0.33080   0.81034   0.00000  Uiso   1.00
H983   H     0.96529   0.00615   0.87120   0.00000  Uiso   1.00
H984   H     0.93765   0.01317   0.82894   0.00000  Uiso   1.00
C985   C     0.16676   0.58001   0.74996   0.00000  Uiso   1.00
C986   C     0.16658   0.42000   0.74994   0.00000  Uiso   1.00
C987   C     0.11886   0.45836   0.54479   0.00000  Uiso   1.00
C988   C     0.22761   0.49787   0.94638   0.00000  Uiso   1.00
C989   C     0.08496   0.45325   0.52411   0.00000  Uiso   1.00
C990   C     0.26164   0.50263   0.96693   0.00000  Uiso   1.00
C991   C     0.21098   0.64544   0.72925   0.00000  Uiso   1.00
C992   C     0.12223   0.35461   0.76992   0.00000  Uiso   1.00
C993   C     0.21092   0.35493   0.72946   0.00000  Uiso   1.00
C994   C     0.12230   0.64511   0.76991   0.00000  Uiso   1.00
C995   C     0.16654   0.37588   0.74973   0.00000  Uiso   1.00
C996   C     0.16674   0.62415   0.74978   0.00000  Uiso   1.00
C997   C     0.31951   0.47195   0.72354   0.00000  Uiso   1.00
C998   C     0.01362   0.52765   0.77677   0.00000  Uiso   1.00
C999   C     0.03497   0.47143   0.72335   0.00000  Uiso   1.00
C1000  C     0.29892   0.52839   0.77635   0.00000  Uiso   1.00
C1001  C     0.13617   0.49985   0.83796   0.00000  Uiso   1.00
C1002  C     0.19721   0.49941   0.66202   0.00000  Uiso   1.00
C1003  C     0.11773   0.49423   0.88811   0.00000  Uiso   1.00
C1004  C     0.21650   0.49682   0.61142   0.00000  Uiso   1.00
C1005  C     0.06110   0.46262   0.95833   0.00000  Uiso   1.00
C1006  C     0.28047   0.50757   0.53608   0.00000  Uiso   1.00
C1007  C     0.07245   0.47540   0.91258   0.00000  Uiso   1.00
C1008  C     0.26514   0.50671   0.58433   0.00000  Uiso   1.00
C1009  C     0.15040   0.50157   0.90987   0.00000  Uiso   1.00
C1010  C     0.18435   0.48535   0.59019   0.00000  Uiso   1.00
C1011  C     0.14200   0.48533   0.95374   0.00000  Uiso   1.00
C1012  C     0.19888   0.48555   0.54193   0.00000  Uiso   1.00
C1013  C     0.09571   0.46717   0.97898   0.00000  Uiso   1.00
C1014  C     0.24735   0.49821   0.51477   0.00000  Uiso   1.00
C1015  C     0.17836   0.48708   0.97308   0.00000  Uiso   1.00
C1016  C     0.16522   0.47678   0.52046   0.00000  Uiso   1.00
H1017  H     0.05001   0.43874   0.54372   0.00000  Uiso   1.00
H1018  H     0.29883   0.51140   0.94551   0.00000  Uiso   1.00
H1019  H     0.14703   0.47871   0.61222   0.00000  Uiso   1.00
H1020  H     0.18304   0.51930   0.89120   0.00000  Uiso   1.00
H1021  H     0.29061   0.51529   0.60041   0.00000  Uiso   1.00
H1022  H     0.04685   0.46923   0.89593   0.00000  Uiso   1.00
H1023  H     0.02604   0.44790   0.97698   0.00000  Uiso   1.00
H1024  H     0.31760   0.51712   0.51557   0.00000  Uiso   1.00
H1025  H     0.10838   0.44615   0.57942   0.00000  Uiso   1.00
H1026  H     0.24128   0.50178   0.90916   0.00000  Uiso   1.00
H1027  H     0.24522   0.62900   0.71290   0.00000  Uiso   1.00
H1028  H     0.08795   0.37104   0.78616   0.00000  Uiso   1.00
H1029  H     0.24516   0.37164   0.71345   0.00000  Uiso   1.00
H1030  H     0.08802   0.62845   0.78602   0.00000  Uiso   1.00
H1031  H     0.30751   0.45022   0.70342   0.00000  Uiso   1.00
H1032  H     0.02378   0.54902   0.79863   0.00000  Uiso   1.00
N1033  N     0.04759   0.50001   0.75001   0.00000  Uiso   1.00
N1034  N     0.28574   0.49999   0.74999   0.00000  Uiso   1.00
O1035  O     0.12846   0.56108   0.75001   0.00000  Uiso   1.00
O1036  O     0.20488   0.43892   0.75000   0.00000  Uiso   1.00
O1037  O     0.20490   0.56107   0.75000   0.00000  Uiso   1.00
O1038  O     0.12843   0.43893   0.75000   0.00000  Uiso   1.00
O1039  O     0.10661   0.50001   0.81613   0.00000  Uiso   1.00
O1040  O     0.22672   0.49999   0.68388   0.00000  Uiso   1.00
O1041  O     0.18305   0.50000   0.81612   0.00000  Uiso   1.00
O1042  O     0.15028   0.50000   0.68388   0.00000  Uiso   1.00
Zn1043 Zn    0.11562   0.50001   0.75000   0.00000  Uiso   1.00
Zn1044 Zn    0.21771   0.49999   0.75000   0.00000  Uiso   1.00
O1045  O     0.07151   0.44350   0.69769   0.00000  Uiso   1.00
C1046  C     0.05770   0.41190   0.67306   0.00000  Uiso   1.00
H1047  H     0.09209   0.39872   0.64745   0.00000  Uiso   1.00
H1048  H     0.03812   0.42433   0.65164   0.00000  Uiso   1.00
C1049  C     0.03029   0.37609   0.70524   0.00000  Uiso   1.00
H1050  H     0.05312   0.36382   0.72361   0.00000  Uiso   1.00
H1051  H     0.32874   0.38727   0.73186   0.00000  Uiso   1.00
C1052  C     0.01933   0.34060   0.67765   0.00000  Uiso   1.00
H1053  H     0.33012   0.35207   0.65859   0.00000  Uiso   1.00
H1054  H     0.33224   0.64881   0.70174   0.00000  Uiso   1.00
H1055  H     0.05387   0.66067   0.65240   0.00000  Uiso   1.00
O1056  O     0.26359   0.55511   0.80528   0.00000  Uiso   1.00
C1057  C     0.27930   0.59737   0.79881   0.00000  Uiso   1.00
H1058  H     0.25157   0.61541   0.79078   0.00000  Uiso   1.00
H1059  H     0.31482   0.60269   0.76922   0.00000  Uiso   1.00
C1060  C     0.28161   0.61498   0.84379   0.00000  Uiso   1.00
H1061  H     0.24499   0.61228   0.87220   0.00000  Uiso   1.00
H1062  H     0.30792   0.59678   0.85384   0.00000  Uiso   1.00
C1063  C     0.29736   0.66081   0.83809   0.00000  Uiso   1.00
H1064  H     0.00095   0.66413   0.81034   0.00000  Uiso   1.00
H1065  H     0.29862   0.33949   0.87120   0.00000  Uiso   1.00
H1066  H     0.27098   0.34650   0.82894   0.00000  Uiso   1.00
C1067  C     0.50009   0.58001   0.74996   0.00000  Uiso   1.00
C1068  C     0.49991   0.42000   0.74994   0.00000  Uiso   1.00
C1069  C     0.45219   0.45836   0.54479   0.00000  Uiso   1.00
C1070  C     0.56094   0.49787   0.94638   0.00000  Uiso   1.00
C1071  C     0.41829   0.45325   0.52411   0.00000  Uiso   1.00
C1072  C     0.59498   0.50263   0.96693   0.00000  Uiso   1.00
C1073  C     0.54431   0.64544   0.72925   0.00000  Uiso   1.00
C1074  C     0.45556   0.35461   0.76992   0.00000  Uiso   1.00
C1075  C     0.54425   0.35493   0.72946   0.00000  Uiso   1.00
C1076  C     0.45564   0.64511   0.76991   0.00000  Uiso   1.00
C1077  C     0.49987   0.37588   0.74973   0.00000  Uiso   1.00
C1078  C     0.50007   0.62415   0.74978   0.00000  Uiso   1.00
C1079  C     0.65284   0.47195   0.72354   0.00000  Uiso   1.00
C1080  C     0.34695   0.52765   0.77677   0.00000  Uiso   1.00
C1081  C     0.36830   0.47143   0.72335   0.00000  Uiso   1.00
C1082  C     0.63225   0.52839   0.77635   0.00000  Uiso   1.00
C1083  C     0.46950   0.49985   0.83796   0.00000  Uiso   1.00
C1084  C     0.53054   0.49941   0.66202   0.00000  Uiso   1.00
C1085  C     0.45106   0.49423   0.88811   0.00000  Uiso   1.00
C1086  C     0.54983   0.49682   0.61142   0.00000  Uiso   1.00
C1087  C     0.39443   0.46262   0.95833   0.00000  Uiso   1.00
C1088  C     0.61380   0.50757   0.53608   0.00000  Uiso   1.00
C1089  C     0.40579   0.47540   0.91258   0.00000  Uiso   1.00
C1090  C     0.59847   0.50671   0.58433   0.00000  Uiso   1.00
C1091  C     0.48373   0.50157   0.90987   0.00000  Uiso   1.00
C1092  C     0.51768   0.48535   0.59019   0.00000  Uiso   1.00
C1093  C     0.47533   0.48533   0.95374   0.00000  Uiso   1.00
C1094  C     0.53221   0.48555   0.54193   0.00000  Uiso   1.00
C1095  C     0.42904   0.46717   0.97898   0.00000  Uiso   1.00
C1096  C     0.58069   0.49821   0.51477   0.00000  Uiso   1.00
C1097  C     0.51169   0.48708   0.97308   0.00000  Uiso   1.00
C1098  C     0.49856   0.47678   0.52046   0.00000  Uiso   1.00
H1099  H     0.38334   0.43874   0.54372   0.00000  Uiso   1.00
H1100  H     0.63216   0.51140   0.94551   0.00000  Uiso   1.00
H1101  H     0.48036   0.47871   0.61222   0.00000  Uiso   1.00
H1102  H     0.51638   0.51930   0.89120   0.00000  Uiso   1.00
H1103  H     0.62395   0.51529   0.60041   0.00000  Uiso   1.00
H1104  H     0.38018   0.46923   0.89593   0.00000  Uiso   1.00
H1105  H     0.35938   0.44790   0.97698   0.00000  Uiso   1.00
H1106  H     0.65093   0.51712   0.51557   0.00000  Uiso   1.00
H1107  H     0.44172   0.44615   0.57942   0.00000  Uiso   1.00
H1108  H     0.57462   0.50178   0.90916   0.00000  Uiso   1.00
H1109  H     0.57855   0.62900   0.71290   0.00000  Uiso   1.00
H1110  H     0.42128   0.37104   0.78616   0.00000  Uiso   1.00
H1111  H     0.57849   0.37164   0.71345   0.00000  Uiso   1.00
H1112  H     0.42135   0.62845   0.78602   0.00000  Uiso   1.00
H1113  H     0.64084   0.45022   0.70342   0.00000  Uiso   1.00
H1114  H     0.35712   0.54902   0.79863   0.00000  Uiso   1.00
N1115  N     0.38093   0.50001   0.75001   0.00000  Uiso   1.00
N1116  N     0.61907   0.49999   0.74999   0.00000  Uiso   1.00
O1117  O     0.46179   0.56108   0.75001   0.00000  Uiso   1.00
O1118  O     0.53821   0.43892   0.75000   0.00000  Uiso   1.00
O1119  O     0.53823   0.56107   0.75000   0.00000  Uiso   1.00
O1120  O     0.46177   0.43893   0.75000   0.00000  Uiso   1.00
O1121  O     0.43994   0.50001   0.81613   0.00000  Uiso   1.00
O1122  O     0.56006   0.49999   0.68388   0.00000  Uiso   1.00
O1123  O     0.51639   0.50000   0.81612   0.00000  Uiso   1.00
O1124  O     0.48361   0.50000   0.68388   0.00000  Uiso   1.00
Zn1125 Zn    0.44896   0.50001   0.75000   0.00000  Uiso   1.00
Zn1126 Zn    0.55104   0.49999   0.75000   0.00000  Uiso   1.00
O1127  O     0.40484   0.44350   0.69769   0.00000  Uiso   1.00
C1128  C     0.39104   0.41190   0.67306   0.00000  Uiso   1.00
H1129  H     0.42543   0.39872   0.64745   0.00000  Uiso   1.00
H1130  H     0.37145   0.42433   0.65164   0.00000  Uiso   1.00
C1131  C     0.36362   0.37609   0.70524   0.00000  Uiso   1.00
H1132  H     0.38645   0.36382   0.72361   0.00000  Uiso   1.00
H1133  H     0.66207   0.38727   0.73186   0.00000  Uiso   1.00
C1134  C     0.35266   0.34060   0.67765   0.00000  Uiso   1.00
H1135  H     0.66345   0.35207   0.65859   0.00000  Uiso   1.00
H1136  H     0.66558   0.64881   0.70174   0.00000  Uiso   1.00
H1137  H     0.38720   0.66067   0.65240   0.00000  Uiso   1.00
O1138  O     0.59692   0.55511   0.80528   0.00000  Uiso   1.00
C1139  C     0.61263   0.59737   0.79881   0.00000  Uiso   1.00
H1140  H     0.58491   0.61541   0.79078   0.00000  Uiso   1.00
H1141  H     0.64816   0.60269   0.76922   0.00000  Uiso   1.00
C1142  C     0.61495   0.61498   0.84379   0.00000  Uiso   1.00
H1143  H     0.57832   0.61228   0.87220   0.00000  Uiso   1.00
H1144  H     0.64125   0.59678   0.85384   0.00000  Uiso   1.00
C1145  C     0.63070   0.66081   0.83809   0.00000  Uiso   1.00
H1146  H     0.33429   0.66413   0.81034   0.00000  Uiso   1.00
H1147  H     0.63196   0.33949   0.87120   0.00000  Uiso   1.00
H1148  H     0.60432   0.34650   0.82894   0.00000  Uiso   1.00
C1149  C     0.83342   0.58001   0.74996   0.00000  Uiso   1.00
C1150  C     0.83325   0.42000   0.74994   0.00000  Uiso   1.00
C1151  C     0.78552   0.45836   0.54479   0.00000  Uiso   1.00
C1152  C     0.89427   0.49787   0.94638   0.00000  Uiso   1.00
C1153  C     0.75163   0.45325   0.52411   0.00000  Uiso   1.00
C1154  C     0.92831   0.50263   0.96693   0.00000  Uiso   1.00
C1155  C     0.87764   0.64544   0.72925   0.00000  Uiso   1.00
C1156  C     0.78889   0.35461   0.76992   0.00000  Uiso   1.00
C1157  C     0.87758   0.35493   0.72946   0.00000  Uiso   1.00
C1158  C     0.78897   0.64511   0.76991   0.00000  Uiso   1.00
C1159  C     0.83320   0.37588   0.74973   0.00000  Uiso   1.00
C1160  C     0.83340   0.62415   0.74978   0.00000  Uiso   1.00
C1161  C     0.98618   0.47195   0.72354   0.00000  Uiso   1.00
C1162  C     0.68029   0.52765   0.77677   0.00000  Uiso   1.00
C1163  C     0.70164   0.47143   0.72335   0.00000  Uiso   1.00
C1164  C     0.96558   0.52839   0.77635   0.00000  Uiso   1.00
C1165  C     0.80283   0.49985   0.83796   0.00000  Uiso   1.00
C1166  C     0.86387   0.49941   0.66202   0.00000  Uiso   1.00
C1167  C     0.78440   0.49423   0.88811   0.00000  Uiso   1.00
C1168  C     0.88316   0.49682   0.61142   0.00000  Uiso   1.00
C1169  C     0.72776   0.46262   0.95833   0.00000  Uiso   1.00
C1170  C     0.94713   0.50757   0.53608   0.00000  Uiso   1.00
C1171  C     0.73912   0.47540   0.91258   0.00000  Uiso   1.00
C1172  C     0.93180   0.50671   0.58433   0.00000  Uiso   1.00
C1173  C     0.81706   0.50157   0.90987   0.00000  Uiso   1.00
C1174  C     0.85102   0.48535   0.59019   0.00000  Uiso   1.00
C1175  C     0.80866   0.48533   0.95374   0.00000  Uiso   1.00
C1176  C     0.86555   0.48555   0.54193   0.00000  Uiso   1.00
C1177  C     0.76238   0.46717   0.97898   0.00000  Uiso   1.00
C1178  C     0.91402   0.49821   0.51477   0.00000  Uiso   1.00
C1179  C     0.84502   0.48708   0.97308   0.00000  Uiso   1.00
C1180  C     0.83189   0.47678   0.52046   0.00000  Uiso   1.00
H1181  H     0.71668   0.43874   0.54372   0.00000  Uiso   1.00
H1182  H     0.96550   0.51140   0.94551   0.00000  Uiso   1.00
H1183  H     0.81369   0.47871   0.61222   0.00000  Uiso   1.00
H1184  H     0.84971   0.51930   0.89120   0.00000  Uiso   1.00
H1185  H     0.95728   0.51529   0.60041   0.00000  Uiso   1.00
H1186  H     0.71351   0.46923   0.89593   0.00000  Uiso   1.00
H1187  H     0.69271   0.44790   0.97698   0.00000  Uiso   1.00
H1188  H     0.98427   0.51712   0.51557   0.00000  Uiso   1.00
H1189  H     0.77505   0.44615   0.57942   0.00000  Uiso   1.00
H1190  H     0.90795   0.50178   0.90916   0.00000  Uiso   1.00
H1191  H     0.91189   0.62900   0.71290   0.00000  Uiso   1.00
H1192  H     0.75461   0.37104   0.78616   0.00000  Uiso   1.00
H1193  H     0.91182   0.37164   0.71345   0.00000  Uiso   1.00
H1194  H     0.75468   0.62845   0.78602   0.00000  Uiso   1.00
H1195  H     0.97417   0.45022   0.70342   0.00000  Uiso   1.00
H1196  H     0.69045   0.54902   0.79863   0.00000  Uiso   1.00
N1197  N     0.71426   0.50001   0.75001   0.00000  Uiso   1.00
N1198  N     0.95241   0.49999   0.74999   0.00000  Uiso   1.00
O1199  O     0.79512   0.56108   0.75001   0.00000  Uiso   1.00
O1200  O     0.87154   0.43892   0.75000   0.00000  Uiso   1.00
O1201  O     0.87157   0.56107   0.75000   0.00000  Uiso   1.00
O1202  O     0.79510   0.43893   0.75000   0.00000  Uiso   1.00
O1203  O     0.77328   0.50001   0.81613   0.00000  Uiso   1.00
O1204  O     0.89339   0.49999   0.68388   0.00000  Uiso   1.00
O1205  O     0.84972   0.50000   0.81612   0.00000  Uiso   1.00
O1206  O     0.81695   0.50000   0.68388   0.00000  Uiso   1.00
Zn1207 Zn    0.78229   0.50001   0.75000   0.00000  Uiso   1.00
Zn1208 Zn    0.88438   0.49999   0.75000   0.00000  Uiso   1.00
O1209  O     0.73817   0.44350   0.69769   0.00000  Uiso   1.00
C1210  C     0.72437   0.41190   0.67306   0.00000  Uiso   1.00
H1211  H     0.75876   0.39872   0.64745   0.00000  Uiso   1.00
H1212  H     0.70479   0.42433   0.65164   0.00000  Uiso   1.00
C1213  C     0.69695   0.37609   0.70524   0.00000  Uiso   1.00
H1214  H     0.71978   0.36382   0.72361   0.00000  Uiso   1.00
H1215  H     0.99541   0.38727   0.73186   0.00000  Uiso   1.00
C1216  C     0.68599   0.34060   0.67765   0.00000  Uiso   1.00
H1217  H     0.99678   0.35207   0.65859   0.00000  Uiso   1.00
H1218  H     0.99891   0.64881   0.70174   0.00000  Uiso   1.00
H1219  H     0.72054   0.66067   0.65240   0.00000  Uiso   1.00
O1220  O     0.93026   0.55511   0.80528   0.00000  Uiso   1.00
C1221  C     0.94596   0.59737   0.79881   0.00000  Uiso   1.00
H1222  H     0.91824   0.61541   0.79078   0.00000  Uiso   1.00
H1223  H     0.98149   0.60269   0.76922   0.00000  Uiso   1.00
C1224  C     0.94828   0.61498   0.84379   0.00000  Uiso   1.00
H1225  H     0.91166   0.61228   0.87220   0.00000  Uiso   1.00
H1226  H     0.97458   0.59678   0.85384   0.00000  Uiso   1.00
C1227  C     0.96403   0.66081   0.83809   0.00000  Uiso   1.00
H1228  H     0.66762   0.66413   0.81034   0.00000  Uiso   1.00
H1229  H     0.96529   0.33949   0.87120   0.00000  Uiso   1.00
H1230  H     0.93765   0.34650   0.82894   0.00000  Uiso   1.00
C1231  C     0.16676   0.91334   0.74996   0.00000  Uiso   1.00
C1232  C     0.16658   0.75334   0.74994   0.00000  Uiso   1.00
C1233  C     0.11886   0.79170   0.54479   0.00000  Uiso   1.00
C1234  C     0.22761   0.83120   0.94638   0.00000  Uiso   1.00
C1235  C     0.08496   0.78659   0.52411   0.00000  Uiso   1.00
C1236  C     0.26164   0.83596   0.96693   0.00000  Uiso   1.00
C1237  C     0.21098   0.97877   0.72925   0.00000  Uiso   1.00
C1238  C     0.12223   0.68794   0.76992   0.00000  Uiso   1.00
C1239  C     0.21092   0.68826   0.72946   0.00000  Uiso   1.00
C1240  C     0.12230   0.97844   0.76991   0.00000  Uiso   1.00
C1241  C     0.16654   0.70921   0.74973   0.00000  Uiso   1.00
C1242  C     0.16674   0.95748   0.74978   0.00000  Uiso   1.00
C1243  C     0.31951   0.80528   0.72354   0.00000  Uiso   1.00
C1244  C     0.01362   0.86098   0.77677   0.00000  Uiso   1.00
C1245  C     0.03497   0.80476   0.72335   0.00000  Uiso   1.00
C1246  C     0.29892   0.86172   0.77635   0.00000  Uiso   1.00
C1247  C     0.13617   0.83319   0.83796   0.00000  Uiso   1.00
C1248  C     0.19721   0.83274   0.66202   0.00000  Uiso   1.00
C1249  C     0.11773   0.82756   0.88811   0.00000  Uiso   1.00
C1250  C     0.21650   0.83015   0.61142   0.00000  Uiso   1.00
C1251  C     0.06110   0.79595   0.95833   0.00000  Uiso   1.00
C1252  C     0.28047   0.84091   0.53608   0.00000  Uiso   1.00
C1253  C     0.07245   0.80874   0.91258   0.00000  Uiso   1.00
C1254  C     0.26514   0.84004   0.58433   0.00000  Uiso   1.00
C1255  C     0.15040   0.83490   0.90987   0.00000  Uiso   1.00
C1256  C     0.18435   0.81868   0.59019   0.00000  Uiso   1.00
C1257  C     0.14200   0.81866   0.95374   0.00000  Uiso   1.00
C1258  C     0.19888   0.81888   0.54193   0.00000  Uiso   1.00
C1259  C     0.09571   0.80050   0.97898   0.00000  Uiso   1.00
C1260  C     0.24735   0.83154   0.51477   0.00000  Uiso   1.00
C1261  C     0.17836   0.82042   0.97308   0.00000  Uiso   1.00
C1262  C     0.16522   0.81011   0.52046   0.00000  Uiso   1.00
H1263  H     0.05001   0.77208   0.54372   0.00000  Uiso   1.00
H1264  H     0.29883   0.84473   0.94551   0.00000  Uiso   1.00
H1265  H     0.14703   0.81204   0.61222   0.00000  Uiso   1.00
H1266  H     0.18304   0.85263   0.89120   0.00000  Uiso   1.00
H1267  H     0.29061   0.84863   0.60041   0.00000  Uiso   1.00
H1268  H     0.04685   0.80257   0.89593   0.00000  Uiso   1.00
H1269  H     0.02604   0.78124   0.97698   0.00000  Uiso   1.00
H1270  H     0.31760   0.85045   0.51557   0.00000  Uiso   1.00
H1271  H     0.10838   0.77948   0.57942   0.00000  Uiso   1.00
H1272  H     0.24128   0.83511   0.90916   0.00000  Uiso   1.00
H1273  H     0.24522   0.96233   0.71290   0.00000  Uiso   1.00
H1274  H     0.08795   0.70438   0.78616   0.00000  Uiso   1.00
H1275  H     0.24516   0.70497   0.71345   0.00000  Uiso   1.00
H1276  H     0.08802   0.96178   0.78602   0.00000  Uiso   1.00
H1277  H     0.30751   0.78355   0.70342   0.00000  Uiso   1.00
H1278  H     0.02378   0.88236   0.79863   0.00000  Uiso   1.00
N1279  N     0.04759   0.83334   0.75001   0.00000  Uiso   1.00
N1280  N     0.28574   0.83332   0.74999   0.00000  Uiso   1.00
O1281  O     0.12846   0.89442   0.75001   0.00000  Uiso   1.00
O1282  O     0.20488   0.77225   0.75000   0.00000  Uiso   1.00
O1283  O     0.20490   0.89441   0.75000   0.00000  Uiso   1.00
O1284  O     0.12843   0.77226   0.75000   0.00000  Uiso   1.00
O1285  O     0.10661   0.83334   0.81613   0.00000  Uiso   1.00
O1286  O     0.22672   0.83333   0.68388   0.00000  Uiso   1.00
O1287  O     0.18305   0.83333   0.81612   0.00000  Uiso   1.00
O1288  O     0.15028   0.83334   0.68388   0.00000  Uiso   1.00
Zn1289 Zn    0.11562   0.83334   0.75000   0.00000  Uiso   1.00
Zn1290 Zn    0.21771   0.83333   0.75000   0.00000  Uiso   1.00
O1291  O     0.07151   0.77683   0.69769   0.00000  Uiso   1.00
C1292  C     0.05770   0.74524   0.67306   0.00000  Uiso   1.00
H1293  H     0.09209   0.73205   0.64745   0.00000  Uiso   1.00
H1294  H     0.03812   0.75766   0.65164   0.00000  Uiso   1.00
C1295  C     0.03029   0.70942   0.70524   0.00000  Uiso   1.00
H1296  H     0.05312   0.69715   0.72361   0.00000  Uiso   1.00
H1297  H     0.32874   0.72060   0.73186   0.00000  Uiso   1.00
C1298  C     0.01933   0.67393   0.67765   0.00000  Uiso   1.00
H1299  H     0.33012   0.68540   0.65859   0.00000  Uiso   1.00
H1300  H     0.33224   0.98214   0.70174   0.00000  Uiso   1.00
H1301  H     0.05387   0.99400   0.65240   0.00000  Uiso   1.00
O1302  O     0.26359   0.88844   0.80528   0.00000  Uiso   1.00
C1303  C     0.27930   0.93070   0.79881   0.00000  Uiso   1.00
H1304  H     0.25157   0.94874   0.79078   0.00000  Uiso   1.00
H1305  H     0.31482   0.93602   0.76922   0.00000  Uiso   1.00
C1306  C     0.28161   0.94832   0.84379   0.00000  Uiso   1.00
H1307  H     0.24499   0.94561   0.87220   0.00000  Uiso   1.00
H1308  H     0.30792   0.93011   0.85384   0.00000  Uiso   1.00
C1309  C     0.29736   0.99414   0.83809   0.00000  Uiso   1.00
H1310  H     0.00095   0.99747   0.81034   0.00000  Uiso   1.00
H1311  H     0.29862   0.67282   0.87120   0.00000  Uiso   1.00
H1312  H     0.27098   0.67984   0.82894   0.00000  Uiso   1.00
C1313  C     0.50009   0.91334   0.74996   0.00000  Uiso   1.00
C1314  C     0.49991   0.75334   0.74994   0.00000  Uiso   1.00
C1315  C     0.45219   0.79170   0.54479   0.00000  Uiso   1.00
C1316  C     0.56094   0.83120   0.94638   0.00000  Uiso   1.00
C1317  C     0.41829   0.78659   0.52411   0.00000  Uiso   1.00
C1318  C     0.59498   0.83596   0.96693   0.00000  Uiso   1.00
C1319  C     0.54431   0.97877   0.72925   0.00000  Uiso   1.00
C1320  C     0.45556   0.68794   0.76992   0.00000  Uiso   1.00
C1321  C     0.54425   0.68826   0.72946   0.00000  Uiso   1.00
C1322  C     0.45564   0.97844   0.76991   0.00000  Uiso   1.00
C1323  C     0.49987   0.70921   0.74973   0.00000  Uiso   1.00
C1324  C     0.50007   0.95748   0.74978   0.00000  Uiso   1.00
C1325  C     0.65284   0.80528   0.72354   0.00000  Uiso   1.00
C1326  C     0.34695   0.86098   0.77677   0.00000  Uiso   1.00
C1327  C     0.36830   0.80476   0.72335   0.00000  Uiso   1.00
C1328  C     0.63225   0.86172   0.77635   0.00000  Uiso   1.00
C1329  C     0.46950   0.83319   0.83796   0.00000  Uiso   1.00
C1330  C     0.53054   0.83274   0.66202   0.00000  Uiso   1.00
C1331  C     0.45106   0.82756   0.88811   0.00000  Uiso   1.00
C1332  C     0.54983   0.83015   0.61142   0.00000  Uiso   1.00
C1333  C     0.39443   0.79595   0.95833   0.00000  Uiso   1.00
C1334  C     0.61380   0.84091   0.53608   0.00000  Uiso   1.00
C1335  C     0.40579   0.80874   0.91258   0.00000  Uiso   1.00
C1336  C     0.59847   0.84004   0.58433   0.00000  Uiso   1.00
C1337  C     0.48373   0.83490   0.90987   0.00000  Uiso   1.00
C1338  C     0.51768   0.81868   0.59019   0.00000  Uiso   1.00
C1339  C     0.47533   0.81866   0.95374   0.00000  Uiso   1.00
C1340  C     0.53221   0.81888   0.54193   0.00000  Uiso   1.00
C1341  C     0.42904   0.80050   0.97898   0.00000  Uiso   1.00
C1342  C     0.58069   0.83154   0.51477   0.00000  Uiso   1.00
C1343  C     0.51169   0.82042   0.97308   0.00000  Uiso   1.00
C1344  C     0.49856   0.81011   0.52046   0.00000  Uiso   1.00
H1345  H     0.38334   0.77208   0.54372   0.00000  Uiso   1.00
H1346  H     0.63216   0.84473   0.94551   0.00000  Uiso   1.00
H1347  H     0.48036   0.81204   0.61222   0.00000  Uiso   1.00
H1348  H     0.51638   0.85263   0.89120   0.00000  Uiso   1.00
H1349  H     0.62395   0.84863   0.60041   0.00000  Uiso   1.00
H1350  H     0.38018   0.80257   0.89593   0.00000  Uiso   1.00
H1351  H     0.35938   0.78124   0.97698   0.00000  Uiso   1.00
H1352  H     0.65093   0.85045   0.51557   0.00000  Uiso   1.00
H1353  H     0.44172   0.77948   0.57942   0.00000  Uiso   1.00
H1354  H     0.57462   0.83511   0.90916   0.00000  Uiso   1.00
H1355  H     0.57855   0.96233   0.71290   0.00000  Uiso   1.00
H1356  H     0.42128   0.70438   0.78616   0.00000  Uiso   1.00
H1357  H     0.57849   0.70497   0.71345   0.00000  Uiso   1.00
H1358  H     0.42135   0.96178   0.78602   0.00000  Uiso   1.00
H1359  H     0.64084   0.78355   0.70342   0.00000  Uiso   1.00
H1360  H     0.35712   0.88236   0.79863   0.00000  Uiso   1.00
N1361  N     0.38093   0.83334   0.75001   0.00000  Uiso   1.00
N1362  N     0.61907   0.83332   0.74999   0.00000  Uiso   1.00
O1363  O     0.46179   0.89442   0.75001   0.00000  Uiso   1.00
O1364  O     0.53821   0.77225   0.75000   0.00000  Uiso   1.00
O1365  O     0.53823   0.89441   0.75000   0.00000  Uiso   1.00
O1366  O     0.46177   0.77226   0.75000   0.00000  Uiso   1.00
O1367  O     0.43994   0.83334   0.81613   0.00000  Uiso   1.00
O1368  O     0.56006   0.83333   0.68388   0.00000  Uiso   1.00
O1369  O     0.51639   0.83333   0.81612   0.00000  Uiso   1.00
O1370  O     0.48361   0.83334   0.68388   0.00000  Uiso   1.00
Zn1371 Zn    0.44896   0.83334   0.75000   0.00000  Uiso   1.00
Zn1372 Zn    0.55104   0.83333   0.75000   0.00000  Uiso   1.00
O1373  O     0.40484   0.77683   0.69769   0.00000  Uiso   1.00
C1374  C     0.39104   0.74524   0.67306   0.00000  Uiso   1.00
H1375  H     0.42543   0.73205   0.64745   0.00000  Uiso   1.00
H1376  H     0.37145   0.75766   0.65164   0.00000  Uiso   1.00
C1377  C     0.36362   0.70942   0.70524   0.00000  Uiso   1.00
H1378  H     0.38645   0.69715   0.72361   0.00000  Uiso   1.00
H1379  H     0.66207   0.72060   0.73186   0.00000  Uiso   1.00
C1380  C     0.35266   0.67393   0.67765   0.00000  Uiso   1.00
H1381  H     0.66345   0.68540   0.65859   0.00000  Uiso   1.00
H1382  H     0.66558   0.98214   0.70174   0.00000  Uiso   1.00
H1383  H     0.38720   0.99400   0.65240   0.00000  Uiso   1.00
O1384  O     0.59692   0.88844   0.80528   0.00000  Uiso   1.00
C1385  C     0.61263   0.93070   0.79881   0.00000  Uiso   1.00
H1386  H     0.58491   0.94874   0.79078   0.00000  Uiso   1.00
H1387  H     0.64816   0.93602   0.76922   0.00000  Uiso   1.00
C1388  C     0.61495   0.94832   0.84379   0.00000  Uiso   1.00
H1389  H     0.57832   0.94561   0.87220   0.00000  Uiso   1.00
H1390  H     0.64125   0.93011   0.85384   0.00000  Uiso   1.00
C1391  C     0.63070   0.99414   0.83809   0.00000  Uiso   1.00
H1392  H     0.33429   0.99747   0.81034   0.00000  Uiso   1.00
H1393  H     0.63196   0.67282   0.87120   0.00000  Uiso   1.00
H1394  H     0.60432   0.67984   0.82894   0.00000  Uiso   1.00
C1395  C     0.83342   0.91334   0.74996   0.00000  Uiso   1.00
C1396  C     0.83325   0.75334   0.74994   0.00000  Uiso   1.00
C1397  C     0.78552   0.79170   0.54479   0.00000  Uiso   1.00
C1398  C     0.89427   0.83120   0.94638   0.00000  Uiso   1.00
C1399  C     0.75163   0.78659   0.52411   0.00000  Uiso   1.00
C1400  C     0.92831   0.83596   0.96693   0.00000  Uiso   1.00
C1401  C     0.87764   0.97877   0.72925   0.00000  Uiso   1.00
C1402  C     0.78889   0.68794   0.76992   0.00000  Uiso   1.00
C1403  C     0.87758   0.68826   0.72946   0.00000  Uiso   1.00
C1404  C     0.78897   0.97844   0.76991   0.00000  Uiso   1.00
C1405  C     0.83320   0.70921   0.74973   0.00000  Uiso   1.00
C1406  C     0.83340   0.95748   0.74978   0.00000  Uiso   1.00
C1407  C     0.98618   0.80528   0.72354   0.00000  Uiso   1.00
C1408  C     0.68029   0.86098   0.77677   0.00000  Uiso   1.00
C1409  C     0.70164   0.80476   0.72335   0.00000  Uiso   1.00
C1410  C     0.96558   0.86172   0.77635   0.00000  Uiso   1.00
C1411  C     0.80283   0.83319   0.83796   0.00000  Uiso   1.00
C1412  C     0.86387   0.83274   0.66202   0.00000  Uiso   1.00
C1413  C     0.78440   0.82756   0.88811   0.00000  Uiso   1.00
C1414  C     0.88316   0.83015   0.61142   0.00000  Uiso   1.00
C1415  C     0.72776   0.79595   0.95833   0.00000  Uiso   1.00
C1416  C     0.94713   0.84091   0.53608   0.00000  Uiso   1.00
C1417  C     0.73912   0.80874   0.91258   0.00000  Uiso   1.00
C1418  C     0.93180   0.84004   0.58433   0.00000  Uiso   1.00
C1419  C     0.81706   0.83490   0.90987   0.00000  Uiso   1.00
C1420  C     0.85102   0.81868   0.59019   0.00000  Uiso   1.00
C1421  C     0.80866   0.81866   0.95374   0.00000  Uiso   1.00
C1422  C     0.86555   0.81888   0.54193   0.00000  Uiso   1.00
C1423  C     0.76238   0.80050   0.97898   0.00000  Uiso   1.00
C1424  C     0.91402   0.83154   0.51477   0.00000  Uiso   1.00
C1425  C     0.84502   0.82042   0.97308   0.00000  Uiso   1.00
C1426  C     0.83189   0.81011   0.52046   0.00000  Uiso   1.00
H1427  H     0.71668   0.77208   0.54372   0.00000  Uiso   1.00
H1428  H     0.96550   0.84473   0.94551   0.00000  Uiso   1.00
H1429  H     0.81369   0.81204   0.61222   0.00000  Uiso   1.00
H1430  H     0.84971   0.85263   0.89120   0.00000  Uiso   1.00
H1431  H     0.95728   0.84863   0.60041   0.00000  Uiso   1.00
H1432  H     0.71351   0.80257   0.89593   0.00000  Uiso   1.00
H1433  H     0.69271   0.78124   0.97698   0.00000  Uiso   1.00
H1434  H     0.98427   0.85045   0.51557   0.00000  Uiso   1.00
H1435  H     0.77505   0.77948   0.57942   0.00000  Uiso   1.00
H1436  H     0.90795   0.83511   0.90916   0.00000  Uiso   1.00
H1437  H     0.91189   0.96233   0.71290   0.00000  Uiso   1.00
H1438  H     0.75461   0.70438   0.78616   0.00000  Uiso   1.00
H1439  H     0.91182   0.70497   0.71345   0.00000  Uiso   1.00
H1440  H     0.75468   0.96178   0.78602   0.00000  Uiso   1.00
H1441  H     0.97417   0.78355   0.70342   0.00000  Uiso   1.00
H1442  H     0.69045   0.88236   0.79863   0.00000  Uiso   1.00
N1443  N     0.71426   0.83334   0.75001   0.00000  Uiso   1.00
N1444  N     0.95241   0.83332   0.74999   0.00000  Uiso   1.00
O1445  O     0.79512   0.89442   0.75001   0.00000  Uiso   1.00
O1446  O     0.87154   0.77225   0.75000   0.00000  Uiso   1.00
O1447  O     0.87157   0.89441   0.75000   0.00000  Uiso   1.00
O1448  O     0.79510   0.77226   0.75000   0.00000  Uiso   1.00
O1449  O     0.77328   0.83334   0.81613   0.00000  Uiso   1.00
O1450  O     0.89339   0.83333   0.68388   0.00000  Uiso   1.00
O1451  O     0.84972   0.83333   0.81612   0.00000  Uiso   1.00
O1452  O     0.81695   0.83334   0.68388   0.00000  Uiso   1.00
Zn1453 Zn    0.78229   0.83334   0.75000   0.00000  Uiso   1.00
Zn1454 Zn    0.88438   0.83333   0.75000   0.00000  Uiso   1.00
O1455  O     0.73817   0.77683   0.69769   0.00000  Uiso   1.00
C1456  C     0.72437   0.74524   0.67306   0.00000  Uiso   1.00
H1457  H     0.75876   0.73205   0.64745   0.00000  Uiso   1.00
H1458  H     0.70479   0.75766   0.65164   0.00000  Uiso   1.00
C1459  C     0.69695   0.70942   0.70524   0.00000  Uiso   1.00
H1460  H     0.71978   0.69715   0.72361   0.00000  Uiso   1.00
H1461  H     0.99541   0.72060   0.73186   0.00000  Uiso   1.00
C1462  C     0.68599   0.67393   0.67765   0.00000  Uiso   1.00
H1463  H     0.99678   0.68540   0.65859   0.00000  Uiso   1.00
H1464  H     0.99891   0.98214   0.70174   0.00000  Uiso   1.00
H1465  H     0.72054   0.99400   0.65240   0.00000  Uiso   1.00
O1466  O     0.93026   0.88844   0.80528   0.00000  Uiso   1.00
C1467  C     0.94596   0.93070   0.79881   0.00000  Uiso   1.00
H1468  H     0.91824   0.94874   0.79078   0.00000  Uiso   1.00
H1469  H     0.98149   0.93602   0.76922   0.00000  Uiso   1.00
C1470  C     0.94828   0.94832   0.84379   0.00000  Uiso   1.00
H1471  H     0.91166   0.94561   0.87220   0.00000  Uiso   1.00
H1472  H     0.97458   0.93011   0.85384   0.00000  Uiso   1.00
C1473  C     0.96403   0.99414   0.83809   0.00000  Uiso   1.00
H1474  H     0.66762   0.99747   0.81034   0.00000  Uiso   1.00
H1475  H     0.96529   0.67282   0.87120   0.00000  Uiso   1.00
H1476  H     0.93765   0.67984   0.82894   0.00000  Uiso   1.00
loop_
_geom_bond_atom_site_label_1
_geom_bond_atom_site_label_2
_geom_bond_distance
_geom_bond_site_symmetry_2
_ccdc_geom_bond_type
C1     O53     1.284   .     A
C1     C12     1.413   .     S
C1     O51     1.280   .     A
C2     C11     1.412   .     S
C2     O54     1.282   .     A
C2     O52     1.281   .     A
C3     H41     1.076   .     S
C3     C5      1.389   .     A
C3     C32     1.417   .     A
C4     C6      1.388   .     A
C4     H42     1.079   .     S
C4     C31     1.418   .     A
C5     H33     1.084   .     S
C5     C767    1.391   1_554 S
C6     H34     1.084   .     S
C6     C768    1.391   .     S
C7     H43     1.084   .     S
C7     C12     1.395   .     A
C7     C255    1.371   .     S
C8     C11     1.395   .     A
C8     H44     1.084   .     S
C8     C502    1.371   1_545 S
C9     H45     1.083   .     S
C9     C11     1.396   .     A
C9     C499    1.371   1_545 S
C10    H46     1.084   .     S
C10    C12     1.397   .     A
C10    C254    1.371   .     S
C13    H47     1.078   .     S
C13    N50     1.364   .     A
C13    C97     1.440   .     S
C14    N49     1.361   .     A
C14    H48     1.080   .     S
C14    C180    1.425   1_455 S
C15    O61     1.398   .     S
C15    N49     1.373   .     A
C15    C177    1.440   1_455 S
C16    O72     1.387   .     S
C16    N50     1.370   .     A
C16    C96     1.425   .     S
C17    O55     1.293   .     A
C17    C19     1.455   .     S
C17    O57     1.292   .     A
C18    O58     1.294   .     A
C18    O56     1.293   .     A
C18    C20     1.458   .     S
C19    C23     1.399   .     A
C19    C25     1.391   .     A
C20    C26     1.393   .     A
C20    C24     1.399   .     A
C21    C23     1.395   .     A
C21    C29     1.405   .     A
C21    H39     1.084   .     S
C22    H40     1.083   .     S
C22    C24     1.393   .     A
C22    C30     1.404   .     A
C23    H38     1.083   .     S
C24    H37     1.083   .     S
C25    C27     1.393   .     A
C25    H36     1.079   .     S
C26    C28     1.395   .     A
C26    H35     1.076   .     S
C27    C29     1.417   .     A
C27    C31     1.417   .     A
C28    C32     1.418   .     A
C28    C30     1.418   .     A
C29    C743    1.391   .     S
C30    C744    1.391   1_554 S
C31    C770    1.414   .     S
C32    C769    1.414   1_554 S
N49    Zn59    2.011   .     S
N50    Zn60    2.011   .     S
O51    Zn59    1.989   .     S
O52    Zn60    1.989   .     S
O53    Zn60    1.993   .     S
O54    Zn59    1.993   .     S
O55    Zn59    1.970   .     S
O56    Zn60    1.970   .     S
O57    Zn60    1.918   .     S
O58    Zn59    1.918   .     S
O61    C62     1.414   .     S
C62    H64     1.111   .     S
C62    H63     1.111   .     S
C62    C65     1.536   .     S
C65    C68     1.525   .     S
C65    H66     1.110   .     S
C65    H231    1.110   1_455 S
H67    C147    1.110   .     S
C68    H233    1.111   1_455 S
C68    H726    1.109   1_445 S
C68    H563    1.111   1_545 S
H69    C150    1.111   .     S
H70    C396    1.109   .     S
H71    C314    1.111   .     S
O72    C73     1.418   .     S
C73    H74     1.109   .     S
C73    H75     1.116   .     S
C73    C76     1.530   .     S
C76    C79     1.527   .     S
C76    H78     1.110   .     S
C76    H77     1.112   .     S
C79    H162    1.111   .     S
C79    H327    1.110   .     S
C79    H328    1.111   .     S
H80    C243    1.111   1_455 S
H81    C571    1.110   1_545 S
H82    C571    1.111   1_545 S
C83    O135    1.284   .     A
C83    C94     1.413   .     S
C83    O133    1.280   .     A
C84    C93     1.412   .     S
C84    O136    1.282   .     A
C84    O134    1.281   .     A
C85    H123    1.076   .     S
C85    C87     1.389   .     A
C85    C114    1.417   .     A
C86    C88     1.388   .     A
C86    H124    1.079   .     S
C86    C113    1.418   .     A
C87    H115    1.084   .     S
C87    C849    1.391   1_554 S
C88    H116    1.084   .     S
C88    C850    1.391   .     S
C89    H125    1.084   .     S
C89    C94     1.395   .     A
C89    C337    1.371   .     S
C90    C93     1.395   .     A
C90    H126    1.084   .     S
C90    C584    1.371   1_545 S
C91    H127    1.083   .     S
C91    C93     1.396   .     A
C91    C581    1.371   1_545 S
C92    H128    1.084   .     S
C92    C94     1.397   .     A
C92    C336    1.371   .     S
C95    H129    1.078   .     S
C95    N132    1.364   .     A
C95    C179    1.440   .     S
C96    N131    1.361   .     A
C96    H130    1.080   .     S
C97    O143    1.398   .     S
C97    N131    1.373   .     A
C98    O154    1.387   .     S
C98    N132    1.370   .     A
C98    C178    1.425   .     S
C99    O137    1.293   .     A
C99    C101    1.455   .     S
C99    O139    1.292   .     A
C100   O140    1.294   .     A
C100   O138    1.293   .     A
C100   C102    1.458   .     S
C101   C105    1.399   .     A
C101   C107    1.391   .     A
C102   C108    1.393   .     A
C102   C106    1.399   .     A
C103   C105    1.395   .     A
C103   C111    1.405   .     A
C103   H121    1.084   .     S
C104   H122    1.083   .     S
C104   C106    1.393   .     A
C104   C112    1.404   .     A
C105   H120    1.083   .     S
C106   H119    1.083   .     S
C107   C109    1.393   .     A
C107   H118    1.079   .     S
C108   C110    1.395   .     A
C108   H117    1.076   .     S
C109   C111    1.417   .     A
C109   C113    1.417   .     A
C110   C114    1.418   .     A
C110   C112    1.418   .     A
C111   C825    1.391   .     S
C112   C826    1.391   1_554 S
C113   C852    1.414   .     S
C114   C851    1.414   1_554 S
N131   Zn141   2.011   .     S
N132   Zn142   2.011   .     S
O133   Zn141   1.989   .     S
O134   Zn142   1.989   .     S
O135   Zn142   1.993   .     S
O136   Zn141   1.993   .     S
O137   Zn141   1.970   .     S
O138   Zn142   1.970   .     S
O139   Zn142   1.918   .     S
O140   Zn141   1.918   .     S
O143   C144    1.414   .     S
C144   H146    1.111   .     S
C144   H145    1.111   .     S
C144   C147    1.536   .     S
C147   C150    1.525   .     S
C147   H148    1.110   .     S
H149   C229    1.110   .     S
C150   H562    1.109   1_545 S
C150   H645    1.111   1_545 S
H151   C232    1.111   .     S
H152   C478    1.109   .     S
H153   C396    1.111   .     S
O154   C155    1.418   .     S
C155   H156    1.109   .     S
C155   H157    1.116   .     S
C155   C158    1.530   .     S
C158   C161    1.527   .     S
C158   H160    1.110   .     S
C158   H159    1.112   .     S
C161   H244    1.111   .     S
C161   H409    1.110   .     S
C161   H410    1.111   .     S
H163   C653    1.110   1_545 S
H164   C653    1.111   1_545 S
C165   O217    1.284   .     A
C165   C176    1.413   .     S
C165   O215    1.280   .     A
C166   C175    1.412   .     S
C166   O218    1.282   .     A
C166   O216    1.281   .     A
C167   H205    1.076   .     S
C167   C169    1.389   .     A
C167   C196    1.417   .     A
C168   C170    1.388   .     A
C168   H206    1.079   .     S
C168   C195    1.418   .     A
C169   H197    1.084   .     S
C169   C931    1.391   1_554 S
C170   H198    1.084   .     S
C170   C932    1.391   .     S
C171   H207    1.084   .     S
C171   C176    1.395   .     A
C171   C419    1.371   .     S
C172   C175    1.395   .     A
C172   H208    1.084   .     S
C172   C666    1.371   1_545 S
C173   H209    1.083   .     S
C173   C175    1.396   .     A
C173   C663    1.371   1_545 S
C174   H210    1.084   .     S
C174   C176    1.397   .     A
C174   C418    1.371   .     S
C177   H211    1.078   .     S
C177   N214    1.364   .     A
C177   C15     1.440   1_655 S
C178   N213    1.361   .     A
C178   H212    1.080   .     S
C179   O225    1.398   .     S
C179   N213    1.373   .     A
C180   O236    1.387   .     S
C180   N214    1.370   .     A
C180   C14     1.425   1_655 S
C181   O219    1.293   .     A
C181   C183    1.455   .     S
C181   O221    1.292   .     A
C182   O222    1.294   .     A
C182   O220    1.293   .     A
C182   C184    1.458   .     S
C183   C187    1.399   .     A
C183   C189    1.391   .     A
C184   C190    1.393   .     A
C184   C188    1.399   .     A
C185   C187    1.395   .     A
C185   C193    1.405   .     A
C185   H203    1.084   .     S
C186   H204    1.083   .     S
C186   C188    1.393   .     A
C186   C194    1.404   .     A
C187   H202    1.083   .     S
C188   H201    1.083   .     S
C189   C191    1.393   .     A
C189   H200    1.079   .     S
C190   C192    1.395   .     A
C190   H199    1.076   .     S
C191   C193    1.417   .     A
C191   C195    1.417   .     A
C192   C196    1.418   .     A
C192   C194    1.418   .     A
C193   C907    1.391   .     S
C194   C908    1.391   1_554 S
C195   C934    1.414   .     S
C196   C933    1.414   1_554 S
N213   Zn223   2.011   .     S
N214   Zn224   2.011   .     S
O215   Zn223   1.989   .     S
O216   Zn224   1.989   .     S
O217   Zn224   1.993   .     S
O218   Zn223   1.993   .     S
O219   Zn223   1.970   .     S
O220   Zn224   1.970   .     S
O221   Zn224   1.918   .     S
O222   Zn223   1.918   .     S
O225   C226    1.414   .     S
C226   H228    1.111   .     S
C226   H227    1.111   .     S
C226   C229    1.536   .     S
C229   C232    1.525   .     S
C229   H230    1.110   .     S
H231   C65     1.110   1_655 S
C232   H644    1.109   1_545 S
C232   H727    1.111   1_545 S
H233   C68     1.111   1_655 S
H234   C314    1.109   1_655 S
H235   C478    1.111   .     S
O236   C237    1.418   .     S
C237   H238    1.109   .     S
C237   H239    1.116   .     S
C237   C240    1.530   .     S
C240   C243    1.527   .     S
C240   H242    1.110   .     S
C240   H241    1.112   .     S
C243   H80     1.111   1_655 S
C243   H491    1.110   .     S
C243   H492    1.111   .     S
H245   C735    1.110   1_545 S
H246   C735    1.111   1_545 S
C247   O299    1.284   .     A
C247   C258    1.413   .     S
C247   O297    1.280   .     A
C248   C257    1.412   .     S
C248   O300    1.282   .     A
C248   O298    1.281   .     A
C249   H287    1.076   .     S
C249   C251    1.389   .     A
C249   C278    1.417   .     A
C250   C252    1.388   .     A
C250   H288    1.079   .     S
C250   C277    1.418   .     A
C251   H279    1.084   .     S
C251   C1013   1.391   1_554 S
C252   H280    1.084   .     S
C252   C1014   1.391   .     S
C253   H289    1.084   .     S
C253   C258    1.395   .     A
C253   C501    1.371   .     S
C254   C257    1.395   .     A
C254   H290    1.084   .     S
C255   H291    1.083   .     S
C255   C257    1.396   .     A
C256   H292    1.084   .     S
C256   C258    1.397   .     A
C256   C500    1.371   .     S
C259   H293    1.078   .     S
C259   N296    1.364   .     A
C259   C343    1.440   .     S
C260   N295    1.361   .     A
C260   H294    1.080   .     S
C260   C426    1.425   1_455 S
C261   O307    1.398   .     S
C261   N295    1.373   .     A
C261   C423    1.440   1_455 S
C262   O318    1.387   .     S
C262   N296    1.370   .     A
C262   C342    1.425   .     S
C263   O301    1.293   .     A
C263   C265    1.455   .     S
C263   O303    1.292   .     A
C264   O304    1.294   .     A
C264   O302    1.293   .     A
C264   C266    1.458   .     S
C265   C269    1.399   .     A
C265   C271    1.391   .     A
C266   C272    1.393   .     A
C266   C270    1.399   .     A
C267   C269    1.395   .     A
C267   C275    1.405   .     A
C267   H285    1.084   .     S
C268   H286    1.083   .     S
C268   C270    1.393   .     A
C268   C276    1.404   .     A
C269   H284    1.083   .     S
C270   H283    1.083   .     S
C271   C273    1.393   .     A
C271   H282    1.079   .     S
C272   C274    1.395   .     A
C272   H281    1.076   .     S
C273   C275    1.417   .     A
C273   C277    1.417   .     A
C274   C278    1.418   .     A
C274   C276    1.418   .     A
C275   C989    1.391   .     S
C276   C990    1.391   1_554 S
C277   C1016   1.414   .     S
C278   C1015   1.414   1_554 S
N295   Zn305   2.011   .     S
N296   Zn306   2.011   .     S
O297   Zn305   1.989   .     S
O298   Zn306   1.989   .     S
O299   Zn306   1.993   .     S
O300   Zn305   1.993   .     S
O301   Zn305   1.970   .     S
O302   Zn306   1.970   .     S
O303   Zn306   1.918   .     S
O304   Zn305   1.918   .     S
O307   C308    1.414   .     S
C308   H310    1.111   .     S
C308   H309    1.111   .     S
C308   C311    1.536   .     S
C311   C314    1.525   .     S
C311   H312    1.110   .     S
C311   H477    1.110   1_455 S
H313   C393    1.110   .     S
C314   H479    1.111   1_455 S
C314   H234    1.109   1_455 S
H315   C396    1.111   .     S
H316   C642    1.109   .     S
H317   C560    1.111   .     S
O318   C319    1.418   .     S
C319   H320    1.109   .     S
C319   H321    1.116   .     S
C319   C322    1.530   .     S
C322   C325    1.527   .     S
C322   H324    1.110   .     S
C322   H323    1.112   .     S
C325   H408    1.111   .     S
C325   H573    1.110   .     S
C325   H574    1.111   .     S
H326   C489    1.111   1_455 S
C329   O381    1.284   .     A
C329   C340    1.413   .     S
C329   O379    1.280   .     A
C330   C339    1.412   .     S
C330   O382    1.282   .     A
C330   O380    1.281   .     A
C331   H369    1.076   .     S
C331   C333    1.389   .     A
C331   C360    1.417   .     A
C332   C334    1.388   .     A
C332   H370    1.079   .     S
C332   C359    1.418   .     A
C333   H361    1.084   .     S
C333   C1095   1.391   1_554 S
C334   H362    1.084   .     S
C334   C1096   1.391   .     S
C335   H371    1.084   .     S
C335   C340    1.395   .     A
C335   C583    1.371   .     S
C336   C339    1.395   .     A
C336   H372    1.084   .     S
C337   H373    1.083   .     S
C337   C339    1.396   .     A
C338   H374    1.084   .     S
C338   C340    1.397   .     A
C338   C582    1.371   .     S
C341   H375    1.078   .     S
C341   N378    1.364   .     A
C341   C425    1.440   .     S
C342   N377    1.361   .     A
C342   H376    1.080   .     S
C343   O389    1.398   .     S
C343   N377    1.373   .     A
C344   O400    1.387   .     S
C344   N378    1.370   .     A
C344   C424    1.425   .     S
C345   O383    1.293   .     A
C345   C347    1.455   .     S
C345   O385    1.292   .     A
C346   O386    1.294   .     A
C346   O384    1.293   .     A
C346   C348    1.458   .     S
C347   C351    1.399   .     A
C347   C353    1.391   .     A
C348   C354    1.393   .     A
C348   C352    1.399   .     A
C349   C351    1.395   .     A
C349   C357    1.405   .     A
C349   H367    1.084   .     S
C350   H368    1.083   .     S
C350   C352    1.393   .     A
C350   C358    1.404   .     A
C351   H366    1.083   .     S
C352   H365    1.083   .     S
C353   C355    1.393   .     A
C353   H364    1.079   .     S
C354   C356    1.395   .     A
C354   H363    1.076   .     S
C355   C357    1.417   .     A
C355   C359    1.417   .     A
C356   C360    1.418   .     A
C356   C358    1.418   .     A
C357   C1071   1.391   .     S
C358   C1072   1.391   1_554 S
C359   C1098   1.414   .     S
C360   C1097   1.414   1_554 S
N377   Zn387   2.011   .     S
N378   Zn388   2.011   .     S
O379   Zn387   1.989   .     S
O380   Zn388   1.989   .     S
O381   Zn388   1.993   .     S
O382   Zn387   1.993   .     S
O383   Zn387   1.970   .     S
O384   Zn388   1.970   .     S
O385   Zn388   1.918   .     S
O386   Zn387   1.918   .     S
O389   C390    1.414   .     S
C390   H392    1.111   .     S
C390   H391    1.111   .     S
C390   C393    1.536   .     S
C393   C396    1.525   .     S
C393   H394    1.110   .     S
H395   C475    1.110   .     S
H397   C478    1.111   .     S
H398   C724    1.109   .     S
H399   C642    1.111   .     S
O400   C401    1.418   .     S
C401   H402    1.109   .     S
C401   H403    1.116   .     S
C401   C404    1.530   .     S
C404   C407    1.527   .     S
C404   H406    1.110   .     S
C404   H405    1.112   .     S
C407   H490    1.111   .     S
C407   H655    1.110   .     S
C407   H656    1.111   .     S
C411   O463    1.284   .     A
C411   C422    1.413   .     S
C411   O461    1.280   .     A
C412   C421    1.412   .     S
C412   O464    1.282   .     A
C412   O462    1.281   .     A
C413   H451    1.076   .     S
C413   C415    1.389   .     A
C413   C442    1.417   .     A
C414   C416    1.388   .     A
C414   H452    1.079   .     S
C414   C441    1.418   .     A
C415   H443    1.084   .     S
C415   C1177   1.391   1_554 S
C416   H444    1.084   .     S
C416   C1178   1.391   .     S
C417   H453    1.084   .     S
C417   C422    1.395   .     A
C417   C665    1.371   .     S
C418   C421    1.395   .     A
C418   H454    1.084   .     S
C419   H455    1.083   .     S
C419   C421    1.396   .     A
C420   H456    1.084   .     S
C420   C422    1.397   .     A
C420   C664    1.371   .     S
C423   H457    1.078   .     S
C423   N460    1.364   .     A
C423   C261    1.440   1_655 S
C424   N459    1.361   .     A
C424   H458    1.080   .     S
C425   O471    1.398   .     S
C425   N459    1.373   .     A
C426   O482    1.387   .     S
C426   N460    1.370   .     A
C426   C260    1.425   1_655 S
C427   O465    1.293   .     A
C427   C429    1.455   .     S
C427   O467    1.292   .     A
C428   O468    1.294   .     A
C428   O466    1.293   .     A
C428   C430    1.458   .     S
C429   C433    1.399   .     A
C429   C435    1.391   .     A
C430   C436    1.393   .     A
C430   C434    1.399   .     A
C431   C433    1.395   .     A
C431   C439    1.405   .     A
C431   H449    1.084   .     S
C432   H450    1.083   .     S
C432   C434    1.393   .     A
C432   C440    1.404   .     A
C433   H448    1.083   .     S
C434   H447    1.083   .     S
C435   C437    1.393   .     A
C435   H446    1.079   .     S
C436   C438    1.395   .     A
C436   H445    1.076   .     S
C437   C439    1.417   .     A
C437   C441    1.417   .     A
C438   C442    1.418   .     A
C438   C440    1.418   .     A
C439   C1153   1.391   .     S
C440   C1154   1.391   1_554 S
C441   C1180   1.414   .     S
C442   C1179   1.414   1_554 S
N459   Zn469   2.011   .     S
N460   Zn470   2.011   .     S
O461   Zn469   1.989   .     S
O462   Zn470   1.989   .     S
O463   Zn470   1.993   .     S
O464   Zn469   1.993   .     S
O465   Zn469   1.970   .     S
O466   Zn470   1.970   .     S
O467   Zn470   1.918   .     S
O468   Zn469   1.918   .     S
O471   C472    1.414   .     S
C472   H474    1.111   .     S
C472   H473    1.111   .     S
C472   C475    1.536   .     S
C475   C478    1.525   .     S
C475   H476    1.110   .     S
H477   C311    1.110   1_655 S
H479   C314    1.111   1_655 S
H480   C560    1.109   1_655 S
H481   C724    1.111   .     S
O482   C483    1.418   .     S
C483   H484    1.109   .     S
C483   H485    1.116   .     S
C483   C486    1.530   .     S
C486   C489    1.527   .     S
C486   H488    1.110   .     S
C486   H487    1.112   .     S
C489   H326    1.111   1_655 S
C489   H737    1.110   .     S
C489   H738    1.111   .     S
C493   O545    1.284   .     A
C493   C504    1.413   .     S
C493   O543    1.280   .     A
C494   C503    1.412   .     S
C494   O546    1.282   .     A
C494   O544    1.281   .     A
C495   H533    1.076   .     S
C495   C497    1.389   .     A
C495   C524    1.417   .     A
C496   C498    1.388   .     A
C496   H534    1.079   .     S
C496   C523    1.418   .     A
C497   H525    1.084   .     S
C497   C1259   1.391   1_554 S
C498   H526    1.084   .     S
C498   C1260   1.391   .     S
C499   H535    1.084   .     S
C499   C504    1.395   .     A
C499   C9      1.371   1_565 S
C500   C503    1.395   .     A
C500   H536    1.084   .     S
C501   H537    1.083   .     S
C501   C503    1.396   .     A
C502   H538    1.084   .     S
C502   C504    1.397   .     A
C502   C8      1.371   1_565 S
C505   H539    1.078   .     S
C505   N542    1.364   .     A
C505   C589    1.440   .     S
C506   N541    1.361   .     A
C506   H540    1.080   .     S
C506   C672    1.425   1_455 S
C507   O553    1.398   .     S
C507   N541    1.373   .     A
C507   C669    1.440   1_455 S
C508   O564    1.387   .     S
C508   N542    1.370   .     A
C508   C588    1.425   .     S
C509   O547    1.293   .     A
C509   C511    1.455   .     S
C509   O549    1.292   .     A
C510   O550    1.294   .     A
C510   O548    1.293   .     A
C510   C512    1.458   .     S
C511   C515    1.399   .     A
C511   C517    1.391   .     A
C512   C518    1.393   .     A
C512   C516    1.399   .     A
C513   C515    1.395   .     A
C513   C521    1.405   .     A
C513   H531    1.084   .     S
C514   H532    1.083   .     S
C514   C516    1.393   .     A
C514   C522    1.404   .     A
C515   H530    1.083   .     S
C516   H529    1.083   .     S
C517   C519    1.393   .     A
C517   H528    1.079   .     S
C518   C520    1.395   .     A
C518   H527    1.076   .     S
C519   C521    1.417   .     A
C519   C523    1.417   .     A
C520   C524    1.418   .     A
C520   C522    1.418   .     A
C521   C1235   1.391   .     S
C522   C1236   1.391   1_554 S
C523   C1262   1.414   .     S
C524   C1261   1.414   1_554 S
N541   Zn551   2.011   .     S
N542   Zn552   2.011   .     S
O543   Zn551   1.989   .     S
O544   Zn552   1.989   .     S
O545   Zn552   1.993   .     S
O546   Zn551   1.993   .     S
O547   Zn551   1.970   .     S
O548   Zn552   1.970   .     S
O549   Zn552   1.918   .     S
O550   Zn551   1.918   .     S
O553   C554    1.414   .     S
C554   H556    1.111   .     S
C554   H555    1.111   .     S
C554   C557    1.536   .     S
C557   C560    1.525   .     S
C557   H558    1.110   .     S
C557   H723    1.110   1_455 S
H559   C639    1.110   .     S
C560   H725    1.111   1_455 S
C560   H480    1.109   1_455 S
H561   C642    1.111   .     S
H562   C150    1.109   1_565 S
H563   C68     1.111   1_565 S
O564   C565    1.418   .     S
C565   H566    1.109   .     S
C565   H567    1.116   .     S
C565   C568    1.530   .     S
C568   C571    1.527   .     S
C568   H570    1.110   .     S
C568   H569    1.112   .     S
C571   H654    1.111   .     S
C571   H81     1.110   1_565 S
C571   H82     1.111   1_565 S
H572   C735    1.111   1_455 S
C575   O627    1.284   .     A
C575   C586    1.413   .     S
C575   O625    1.280   .     A
C576   C585    1.412   .     S
C576   O628    1.282   .     A
C576   O626    1.281   .     A
C577   H615    1.076   .     S
C577   C579    1.389   .     A
C577   C606    1.417   .     A
C578   C580    1.388   .     A
C578   H616    1.079   .     S
C578   C605    1.418   .     A
C579   H607    1.084   .     S
C579   C1341   1.391   1_554 S
C580   H608    1.084   .     S
C580   C1342   1.391   .     S
C581   H617    1.084   .     S
C581   C586    1.395   .     A
C581   C91     1.371   1_565 S
C582   C585    1.395   .     A
C582   H618    1.084   .     S
C583   H619    1.083   .     S
C583   C585    1.396   .     A
C584   H620    1.084   .     S
C584   C586    1.397   .     A
C584   C90     1.371   1_565 S
C587   H621    1.078   .     S
C587   N624    1.364   .     A
C587   C671    1.440   .     S
C588   N623    1.361   .     A
C588   H622    1.080   .     S
C589   O635    1.398   .     S
C589   N623    1.373   .     A
C590   O646    1.387   .     S
C590   N624    1.370   .     A
C590   C670    1.425   .     S
C591   O629    1.293   .     A
C591   C593    1.455   .     S
C591   O631    1.292   .     A
C592   O632    1.294   .     A
C592   O630    1.293   .     A
C592   C594    1.458   .     S
C593   C597    1.399   .     A
C593   C599    1.391   .     A
C594   C600    1.393   .     A
C594   C598    1.399   .     A
C595   C597    1.395   .     A
C595   C603    1.405   .     A
C595   H613    1.084   .     S
C596   H614    1.083   .     S
C596   C598    1.393   .     A
C596   C604    1.404   .     A
C597   H612    1.083   .     S
C598   H611    1.083   .     S
C599   C601    1.393   .     A
C599   H610    1.079   .     S
C600   C602    1.395   .     A
C600   H609    1.076   .     S
C601   C603    1.417   .     A
C601   C605    1.417   .     A
C602   C606    1.418   .     A
C602   C604    1.418   .     A
C603   C1317   1.391   .     S
C604   C1318   1.391   1_554 S
C605   C1344   1.414   .     S
C606   C1343   1.414   1_554 S
N623   Zn633   2.011   .     S
N624   Zn634   2.011   .     S
O625   Zn633   1.989   .     S
O626   Zn634   1.989   .     S
O627   Zn634   1.993   .     S
O628   Zn633   1.993   .     S
O629   Zn633   1.970   .     S
O630   Zn634   1.970   .     S
O631   Zn634   1.918   .     S
O632   Zn633   1.918   .     S
O635   C636    1.414   .     S
C636   H638    1.111   .     S
C636   H637    1.111   .     S
C636   C639    1.536   .     S
C639   C642    1.525   .     S
C639   H640    1.110   .     S
H641   C721    1.110   .     S
H643   C724    1.111   .     S
H644   C232    1.109   1_565 S
H645   C150    1.111   1_565 S
O646   C647    1.418   .     S
C647   H648    1.109   .     S
C647   H649    1.116   .     S
C647   C650    1.530   .     S
C650   C653    1.527   .     S
C650   H652    1.110   .     S
C650   H651    1.112   .     S
C653   H736    1.111   .     S
C653   H163    1.110   1_565 S
C653   H164    1.111   1_565 S
C657   O709    1.284   .     A
C657   C668    1.413   .     S
C657   O707    1.280   .     A
C658   C667    1.412   .     S
C658   O710    1.282   .     A
C658   O708    1.281   .     A
C659   H697    1.076   .     S
C659   C661    1.389   .     A
C659   C688    1.417   .     A
C660   C662    1.388   .     A
C660   H698    1.079   .     S
C660   C687    1.418   .     A
C661   H689    1.084   .     S
C661   C1423   1.391   1_554 S
C662   H690    1.084   .     S
C662   C1424   1.391   .     S
C663   H699    1.084   .     S
C663   C668    1.395   .     A
C663   C173    1.371   1_565 S
C664   C667    1.395   .     A
C664   H700    1.084   .     S
C665   H701    1.083   .     S
C665   C667    1.396   .     A
C666   H702    1.084   .     S
C666   C668    1.397   .     A
C666   C172    1.371   1_565 S
C669   H703    1.078   .     S
C669   N706    1.364   .     A
C669   C507    1.440   1_655 S
C670   N705    1.361   .     A
C670   H704    1.080   .     S
C671   O717    1.398   .     S
C671   N705    1.373   .     A
C672   O728    1.387   .     S
C672   N706    1.370   .     A
C672   C506    1.425   1_655 S
C673   O711    1.293   .     A
C673   C675    1.455   .     S
C673   O713    1.292   .     A
C674   O714    1.294   .     A
C674   O712    1.293   .     A
C674   C676    1.458   .     S
C675   C679    1.399   .     A
C675   C681    1.391   .     A
C676   C682    1.393   .     A
C676   C680    1.399   .     A
C677   C679    1.395   .     A
C677   C685    1.405   .     A
C677   H695    1.084   .     S
C678   H696    1.083   .     S
C678   C680    1.393   .     A
C678   C686    1.404   .     A
C679   H694    1.083   .     S
C680   H693    1.083   .     S
C681   C683    1.393   .     A
C681   H692    1.079   .     S
C682   C684    1.395   .     A
C682   H691    1.076   .     S
C683   C685    1.417   .     A
C683   C687    1.417   .     A
C684   C688    1.418   .     A
C684   C686    1.418   .     A
C685   C1399   1.391   .     S
C686   C1400   1.391   1_554 S
C687   C1426   1.414   .     S
C688   C1425   1.414   1_554 S
N705   Zn715   2.011   .     S
N706   Zn716   2.011   .     S
O707   Zn715   1.989   .     S
O708   Zn716   1.989   .     S
O709   Zn716   1.993   .     S
O710   Zn715   1.993   .     S
O711   Zn715   1.970   .     S
O712   Zn716   1.970   .     S
O713   Zn716   1.918   .     S
O714   Zn715   1.918   .     S
O717   C718    1.414   .     S
C718   H720    1.111   .     S
C718   H719    1.111   .     S
C718   C721    1.536   .     S
C721   C724    1.525   .     S
C721   H722    1.110   .     S
H723   C557    1.110   1_655 S
H725   C560    1.111   1_655 S
H726   C68     1.109   1_665 S
H727   C232    1.111   1_565 S
O728   C729    1.418   .     S
C729   H730    1.109   .     S
C729   H731    1.116   .     S
C729   C732    1.530   .     S
C732   C735    1.527   .     S
C732   H734    1.110   .     S
C732   H733    1.112   .     S
C735   H572    1.111   1_655 S
C735   H245    1.110   1_565 S
C735   H246    1.111   1_565 S
C739   O791    1.284   .     A
C739   C750    1.413   .     S
C739   O789    1.280   .     A
C740   C749    1.412   .     S
C740   O792    1.282   .     A
C740   O790    1.281   .     A
C741   H779    1.076   .     S
C741   C743    1.389   .     A
C741   C770    1.417   .     A
C742   C744    1.388   .     A
C742   H780    1.079   .     S
C742   C769    1.418   .     A
C743   H771    1.084   .     S
C744   H772    1.084   .     S
C744   C30     1.391   1_556 S
C745   H781    1.084   .     S
C745   C750    1.395   .     A
C745   C993    1.371   .     S
C746   C749    1.395   .     A
C746   H782    1.084   .     S
C746   C1240   1.371   1_545 S
C747   H783    1.083   .     S
C747   C749    1.396   .     A
C747   C1237   1.371   1_545 S
C748   H784    1.084   .     S
C748   C750    1.397   .     A
C748   C992    1.371   .     S
C751   H785    1.078   .     S
C751   N788    1.364   .     A
C751   C835    1.440   .     S
C752   N787    1.361   .     A
C752   H786    1.080   .     S
C752   C918    1.425   1_455 S
C753   O799    1.398   .     S
C753   N787    1.373   .     A
C753   C915    1.440   1_455 S
C754   O810    1.387   .     S
C754   N788    1.370   .     A
C754   C834    1.425   .     S
C755   O793    1.293   .     A
C755   C757    1.455   .     S
C755   O795    1.292   .     A
C756   O796    1.294   .     A
C756   O794    1.293   .     A
C756   C758    1.458   .     S
C757   C761    1.399   .     A
C757   C763    1.391   .     A
C758   C764    1.393   .     A
C758   C762    1.399   .     A
C759   C761    1.395   .     A
C759   C767    1.405   .     A
C759   H777    1.084   .     S
C760   H778    1.083   .     S
C760   C762    1.393   .     A
C760   C768    1.404   .     A
C761   H776    1.083   .     S
C762   H775    1.083   .     S
C763   C765    1.393   .     A
C763   H774    1.079   .     S
C764   C766    1.395   .     A
C764   H773    1.076   .     S
C765   C767    1.417   .     A
C765   C769    1.417   .     A
C766   C770    1.418   .     A
C766   C768    1.418   .     A
C767   C5      1.391   1_556 S
C769   C32     1.414   1_556 S
N787   Zn797   2.011   .     S
N788   Zn798   2.011   .     S
O789   Zn797   1.989   .     S
O790   Zn798   1.989   .     S
O791   Zn798   1.993   .     S
O792   Zn797   1.993   .     S
O793   Zn797   1.970   .     S
O794   Zn798   1.970   .     S
O795   Zn798   1.918   .     S
O796   Zn797   1.918   .     S
O799   C800    1.414   .     S
C800   H802    1.111   .     S
C800   H801    1.111   .     S
C800   C803    1.536   .     S
C803   C806    1.525   .     S
C803   H804    1.110   .     S
C803   H969    1.110   1_455 S
H805   C885    1.110   .     S
C806   H971    1.111   1_455 S
C806   H1464   1.109   1_445 S
C806   H1301   1.111   1_545 S
H807   C888    1.111   .     S
H808   C1134   1.109   .     S
H809   C1052   1.111   .     S
O810   C811    1.418   .     S
C811   H812    1.109   .     S
C811   H813    1.116   .     S
C811   C814    1.530   .     S
C814   C817    1.527   .     S
C814   H816    1.110   .     S
C814   H815    1.112   .     S
C817   H900    1.111   .     S
C817   H1065   1.110   .     S
C817   H1066   1.111   .     S
H818   C981    1.111   1_455 S
H819   C1309   1.110   1_545 S
H820   C1309   1.111   1_545 S
C821   O873    1.284   .     A
C821   C832    1.413   .     S
C821   O871    1.280   .     A
C822   C831    1.412   .     S
C822   O874    1.282   .     A
C822   O872    1.281   .     A
C823   H861    1.076   .     S
C823   C825    1.389   .     A
C823   C852    1.417   .     A
C824   C826    1.388   .     A
C824   H862    1.079   .     S
C824   C851    1.418   .     A
C825   H853    1.084   .     S
C826   H854    1.084   .     S
C826   C112    1.391   1_556 S
C827   H863    1.084   .     S
C827   C832    1.395   .     A
C827   C1075   1.371   .     S
C828   C831    1.395   .     A
C828   H864    1.084   .     S
C828   C1322   1.371   1_545 S
C829   H865    1.083   .     S
C829   C831    1.396   .     A
C829   C1319   1.371   1_545 S
C830   H866    1.084   .     S
C830   C832    1.397   .     A
C830   C1074   1.371   .     S
C833   H867    1.078   .     S
C833   N870    1.364   .     A
C833   C917    1.440   .     S
C834   N869    1.361   .     A
C834   H868    1.080   .     S
C835   O881    1.398   .     S
C835   N869    1.373   .     A
C836   O892    1.387   .     S
C836   N870    1.370   .     A
C836   C916    1.425   .     S
C837   O875    1.293   .     A
C837   C839    1.455   .     S
C837   O877    1.292   .     A
C838   O878    1.294   .     A
C838   O876    1.293   .     A
C838   C840    1.458   .     S
C839   C843    1.399   .     A
C839   C845    1.391   .     A
C840   C846    1.393   .     A
C840   C844    1.399   .     A
C841   C843    1.395   .     A
C841   C849    1.405   .     A
C841   H859    1.084   .     S
C842   H860    1.083   .     S
C842   C844    1.393   .     A
C842   C850    1.404   .     A
C843   H858    1.083   .     S
C844   H857    1.083   .     S
C845   C847    1.393   .     A
C845   H856    1.079   .     S
C846   C848    1.395   .     A
C846   H855    1.076   .     S
C847   C849    1.417   .     A
C847   C851    1.417   .     A
C848   C852    1.418   .     A
C848   C850    1.418   .     A
C849   C87     1.391   1_556 S
C851   C114    1.414   1_556 S
N869   Zn879   2.011   .     S
N870   Zn880   2.011   .     S
O871   Zn879   1.989   .     S
O872   Zn880   1.989   .     S
O873   Zn880   1.993   .     S
O874   Zn879   1.993   .     S
O875   Zn879   1.970   .     S
O876   Zn880   1.970   .     S
O877   Zn880   1.918   .     S
O878   Zn879   1.918   .     S
O881   C882    1.414   .     S
C882   H884    1.111   .     S
C882   H883    1.111   .     S
C882   C885    1.536   .     S
C885   C888    1.525   .     S
C885   H886    1.110   .     S
H887   C967    1.110   .     S
C888   H1300   1.109   1_545 S
C888   H1383   1.111   1_545 S
H889   C970    1.111   .     S
H890   C1216   1.109   .     S
H891   C1134   1.111   .     S
O892   C893    1.418   .     S
C893   H894    1.109   .     S
C893   H895    1.116   .     S
C893   C896    1.530   .     S
C896   C899    1.527   .     S
C896   H898    1.110   .     S
C896   H897    1.112   .     S
C899   H982    1.111   .     S
C899   H1147   1.110   .     S
C899   H1148   1.111   .     S
H901   C1391   1.110   1_545 S
H902   C1391   1.111   1_545 S
C903   O955    1.284   .     A
C903   C914    1.413   .     S
C903   O953    1.280   .     A
C904   C913    1.412   .     S
C904   O956    1.282   .     A
C904   O954    1.281   .     A
C905   H943    1.076   .     S
C905   C907    1.389   .     A
C905   C934    1.417   .     A
C906   C908    1.388   .     A
C906   H944    1.079   .     S
C906   C933    1.418   .     A
C907   H935    1.084   .     S
C908   H936    1.084   .     S
C908   C194    1.391   1_556 S
C909   H945    1.084   .     S
C909   C914    1.395   .     A
C909   C1157   1.371   .     S
C910   C913    1.395   .     A
C910   H946    1.084   .     S
C910   C1404   1.371   1_545 S
C911   H947    1.083   .     S
C911   C913    1.396   .     A
C911   C1401   1.371   1_545 S
C912   H948    1.084   .     S
C912   C914    1.397   .     A
C912   C1156   1.371   .     S
C915   H949    1.078   .     S
C915   N952    1.364   .     A
C915   C753    1.440   1_655 S
C916   N951    1.361   .     A
C916   H950    1.080   .     S
C917   O963    1.398   .     S
C917   N951    1.373   .     A
C918   O974    1.387   .     S
C918   N952    1.370   .     A
C918   C752    1.425   1_655 S
C919   O957    1.293   .     A
C919   C921    1.455   .     S
C919   O959    1.292   .     A
C920   O960    1.294   .     A
C920   O958    1.293   .     A
C920   C922    1.458   .     S
C921   C925    1.399   .     A
C921   C927    1.391   .     A
C922   C928    1.393   .     A
C922   C926    1.399   .     A
C923   C925    1.395   .     A
C923   C931    1.405   .     A
C923   H941    1.084   .     S
C924   H942    1.083   .     S
C924   C926    1.393   .     A
C924   C932    1.404   .     A
C925   H940    1.083   .     S
C926   H939    1.083   .     S
C927   C929    1.393   .     A
C927   H938    1.079   .     S
C928   C930    1.395   .     A
C928   H937    1.076   .     S
C929   C931    1.417   .     A
C929   C933    1.417   .     A
C930   C934    1.418   .     A
C930   C932    1.418   .     A
C931   C169    1.391   1_556 S
C933   C196    1.414   1_556 S
N951   Zn961   2.011   .     S
N952   Zn962   2.011   .     S
O953   Zn961   1.989   .     S
O954   Zn962   1.989   .     S
O955   Zn962   1.993   .     S
O956   Zn961   1.993   .     S
O957   Zn961   1.970   .     S
O958   Zn962   1.970   .     S
O959   Zn962   1.918   .     S
O960   Zn961   1.918   .     S
O963   C964    1.414   .     S
C964   H966    1.111   .     S
C964   H965    1.111   .     S
C964   C967    1.536   .     S
C967   C970    1.525   .     S
C967   H968    1.110   .     S
H969   C803    1.110   1_655 S
C970   H1382   1.109   1_545 S
C970   H1465   1.111   1_545 S
H971   C806    1.111   1_655 S
H972   C1052   1.109   1_655 S
H973   C1216   1.111   .     S
O974   C975    1.418   .     S
C975   H976    1.109   .     S
C975   H977    1.116   .     S
C975   C978    1.530   .     S
C978   C981    1.527   .     S
C978   H980    1.110   .     S
C978   H979    1.112   .     S
C981   H818    1.111   1_655 S
C981   H1229   1.110   .     S
C981   H1230   1.111   .     S
H983   C1473   1.110   1_545 S
H984   C1473   1.111   1_545 S
C985   O1037   1.284   .     A
C985   C996    1.413   .     S
C985   O1035   1.280   .     A
C986   C995    1.412   .     S
C986   O1038   1.282   .     A
C986   O1036   1.281   .     A
C987   H1025   1.076   .     S
C987   C989    1.389   .     A
C987   C1016   1.417   .     A
C988   C990    1.388   .     A
C988   H1026   1.079   .     S
C988   C1015   1.418   .     A
C989   H1017   1.084   .     S
C990   H1018   1.084   .     S
C990   C276    1.391   1_556 S
C991   H1027   1.084   .     S
C991   C996    1.395   .     A
C991   C1239   1.371   .     S
C992   C995    1.395   .     A
C992   H1028   1.084   .     S
C993   H1029   1.083   .     S
C993   C995    1.396   .     A
C994   H1030   1.084   .     S
C994   C996    1.397   .     A
C994   C1238   1.371   .     S
C997   H1031   1.078   .     S
C997   N1034   1.364   .     A
C997   C1081   1.440   .     S
C998   N1033   1.361   .     A
C998   H1032   1.080   .     S
C998   C1164   1.425   1_455 S
C999   O1045   1.398   .     S
C999   N1033   1.373   .     A
C999   C1161   1.440   1_455 S
C1000  O1056   1.387   .     S
C1000  N1034   1.370   .     A
C1000  C1080   1.425   .     S
C1001  O1039   1.293   .     A
C1001  C1003   1.455   .     S
C1001  O1041   1.292   .     A
C1002  O1042   1.294   .     A
C1002  O1040   1.293   .     A
C1002  C1004   1.458   .     S
C1003  C1007   1.399   .     A
C1003  C1009   1.391   .     A
C1004  C1010   1.393   .     A
C1004  C1008   1.399   .     A
C1005  C1007   1.395   .     A
C1005  C1013   1.405   .     A
C1005  H1023   1.084   .     S
C1006  H1024   1.083   .     S
C1006  C1008   1.393   .     A
C1006  C1014   1.404   .     A
C1007  H1022   1.083   .     S
C1008  H1021   1.083   .     S
C1009  C1011   1.393   .     A
C1009  H1020   1.079   .     S
C1010  C1012   1.395   .     A
C1010  H1019   1.076   .     S
C1011  C1013   1.417   .     A
C1011  C1015   1.417   .     A
C1012  C1016   1.418   .     A
C1012  C1014   1.418   .     A
C1013  C251    1.391   1_556 S
C1015  C278    1.414   1_556 S
N1033  Zn1043  2.011   .     S
N1034  Zn1044  2.011   .     S
O1035  Zn1043  1.989   .     S
O1036  Zn1044  1.989   .     S
O1037  Zn1044  1.993   .     S
O1038  Zn1043  1.993   .     S
O1039  Zn1043  1.970   .     S
O1040  Zn1044  1.970   .     S
O1041  Zn1044  1.918   .     S
O1042  Zn1043  1.918   .     S
O1045  C1046   1.414   .     S
C1046  H1048   1.111   .     S
C1046  H1047   1.111   .     S
C1046  C1049   1.536   .     S
C1049  C1052   1.525   .     S
C1049  H1050   1.110   .     S
C1049  H1215   1.110   1_455 S
H1051  C1131   1.110   .     S
C1052  H1217   1.111   1_455 S
C1052  H972    1.109   1_455 S
H1053  C1134   1.111   .     S
H1054  C1380   1.109   .     S
H1055  C1298   1.111   .     S
O1056  C1057   1.418   .     S
C1057  H1058   1.109   .     S
C1057  H1059   1.116   .     S
C1057  C1060   1.530   .     S
C1060  C1063   1.527   .     S
C1060  H1062   1.110   .     S
C1060  H1061   1.112   .     S
C1063  H1146   1.111   .     S
C1063  H1311   1.110   .     S
C1063  H1312   1.111   .     S
H1064  C1227   1.111   1_455 S
C1067  O1119   1.284   .     A
C1067  C1078   1.413   .     S
C1067  O1117   1.280   .     A
C1068  C1077   1.412   .     S
C1068  O1120   1.282   .     A
C1068  O1118   1.281   .     A
C1069  H1107   1.076   .     S
C1069  C1071   1.389   .     A
C1069  C1098   1.417   .     A
C1070  C1072   1.388   .     A
C1070  H1108   1.079   .     S
C1070  C1097   1.418   .     A
C1071  H1099   1.084   .     S
C1072  H1100   1.084   .     S
C1072  C358    1.391   1_556 S
C1073  H1109   1.084   .     S
C1073  C1078   1.395   .     A
C1073  C1321   1.371   .     S
C1074  C1077   1.395   .     A
C1074  H1110   1.084   .     S
C1075  H1111   1.083   .     S
C1075  C1077   1.396   .     A
C1076  H1112   1.084   .     S
C1076  C1078   1.397   .     A
C1076  C1320   1.371   .     S
C1079  H1113   1.078   .     S
C1079  N1116   1.364   .     A
C1079  C1163   1.440   .     S
C1080  N1115   1.361   .     A
C1080  H1114   1.080   .     S
C1081  O1127   1.398   .     S
C1081  N1115   1.373   .     A
C1082  O1138   1.387   .     S
C1082  N1116   1.370   .     A
C1082  C1162   1.425   .     S
C1083  O1121   1.293   .     A
C1083  C1085   1.455   .     S
C1083  O1123   1.292   .     A
C1084  O1124   1.294   .     A
C1084  O1122   1.293   .     A
C1084  C1086   1.458   .     S
C1085  C1089   1.399   .     A
C1085  C1091   1.391   .     A
C1086  C1092   1.393   .     A
C1086  C1090   1.399   .     A
C1087  C1089   1.395   .     A
C1087  C1095   1.405   .     A
C1087  H1105   1.084   .     S
C1088  H1106   1.083   .     S
C1088  C1090   1.393   .     A
C1088  C1096   1.404   .     A
C1089  H1104   1.083   .     S
C1090  H1103   1.083   .     S
C1091  C1093   1.393   .     A
C1091  H1102   1.079   .     S
C1092  C1094   1.395   .     A
C1092  H1101   1.076   .     S
C1093  C1095   1.417   .     A
C1093  C1097   1.417   .     A
C1094  C1098   1.418   .     A
C1094  C1096   1.418   .     A
C1095  C333    1.391   1_556 S
C1097  C360    1.414   1_556 S
N1115  Zn1125  2.011   .     S
N1116  Zn1126  2.011   .     S
O1117  Zn1125  1.989   .     S
O1118  Zn1126  1.989   .     S
O1119  Zn1126  1.993   .     S
O1120  Zn1125  1.993   .     S
O1121  Zn1125  1.970   .     S
O1122  Zn1126  1.970   .     S
O1123  Zn1126  1.918   .     S
O1124  Zn1125  1.918   .     S
O1127  C1128   1.414   .     S
C1128  H1130   1.111   .     S
C1128  H1129   1.111   .     S
C1128  C1131   1.536   .     S
C1131  C1134   1.525   .     S
C1131  H1132   1.110   .     S
H1133  C1213   1.110   .     S
H1135  C1216   1.111   .     S
H1136  C1462   1.109   .     S
H1137  C1380   1.111   .     S
O1138  C1139   1.418   .     S
C1139  H1140   1.109   .     S
C1139  H1141   1.116   .     S
C1139  C1142   1.530   .     S
C1142  C1145   1.527   .     S
C1142  H1144   1.110   .     S
C1142  H1143   1.112   .     S
C1145  H1228   1.111   .     S
C1145  H1393   1.110   .     S
C1145  H1394   1.111   .     S
C1149  O1201   1.284   .     A
C1149  C1160   1.413   .     S
C1149  O1199   1.280   .     A
C1150  C1159   1.412   .     S
C1150  O1202   1.282   .     A
C1150  O1200   1.281   .     A
C1151  H1189   1.076   .     S
C1151  C1153   1.389   .     A
C1151  C1180   1.417   .     A
C1152  C1154   1.388   .     A
C1152  H1190   1.079   .     S
C1152  C1179   1.418   .     A
C1153  H1181   1.084   .     S
C1154  H1182   1.084   .     S
C1154  C440    1.391   1_556 S
C1155  H1191   1.084   .     S
C1155  C1160   1.395   .     A
C1155  C1403   1.371   .     S
C1156  C1159   1.395   .     A
C1156  H1192   1.084   .     S
C1157  H1193   1.083   .     S
C1157  C1159   1.396   .     A
C1158  H1194   1.084   .     S
C1158  C1160   1.397   .     A
C1158  C1402   1.371   .     S
C1161  H1195   1.078   .     S
C1161  N1198   1.364   .     A
C1161  C999    1.440   1_655 S
C1162  N1197   1.361   .     A
C1162  H1196   1.080   .     S
C1163  O1209   1.398   .     S
C1163  N1197   1.373   .     A
C1164  O1220   1.387   .     S
C1164  N1198   1.370   .     A
C1164  C998    1.425   1_655 S
C1165  O1203   1.293   .     A
C1165  C1167   1.455   .     S
C1165  O1205   1.292   .     A
C1166  O1206   1.294   .     A
C1166  O1204   1.293   .     A
C1166  C1168   1.458   .     S
C1167  C1171   1.399   .     A
C1167  C1173   1.391   .     A
C1168  C1174   1.393   .     A
C1168  C1172   1.399   .     A
C1169  C1171   1.395   .     A
C1169  C1177   1.405   .     A
C1169  H1187   1.084   .     S
C1170  H1188   1.083   .     S
C1170  C1172   1.393   .     A
C1170  C1178   1.404   .     A
C1171  H1186   1.083   .     S
C1172  H1185   1.083   .     S
C1173  C1175   1.393   .     A
C1173  H1184   1.079   .     S
C1174  C1176   1.395   .     A
C1174  H1183   1.076   .     S
C1175  C1177   1.417   .     A
C1175  C1179   1.417   .     A
C1176  C1180   1.418   .     A
C1176  C1178   1.418   .     A
C1177  C415    1.391   1_556 S
C1179  C442    1.414   1_556 S
N1197  Zn1207  2.011   .     S
N1198  Zn1208  2.011   .     S
O1199  Zn1207  1.989   .     S
O1200  Zn1208  1.989   .     S
O1201  Zn1208  1.993   .     S
O1202  Zn1207  1.993   .     S
O1203  Zn1207  1.970   .     S
O1204  Zn1208  1.970   .     S
O1205  Zn1208  1.918   .     S
O1206  Zn1207  1.918   .     S
O1209  C1210   1.414   .     S
C1210  H1212   1.111   .     S
C1210  H1211   1.111   .     S
C1210  C1213   1.536   .     S
C1213  C1216   1.525   .     S
C1213  H1214   1.110   .     S
H1215  C1049   1.110   1_655 S
H1217  C1052   1.111   1_655 S
H1218  C1298   1.109   1_655 S
H1219  C1462   1.111   .     S
O1220  C1221   1.418   .     S
C1221  H1222   1.109   .     S
C1221  H1223   1.116   .     S
C1221  C1224   1.530   .     S
C1224  C1227   1.527   .     S
C1224  H1226   1.110   .     S
C1224  H1225   1.112   .     S
C1227  H1064   1.111   1_655 S
C1227  H1475   1.110   .     S
C1227  H1476   1.111   .     S
C1231  O1283   1.284   .     A
C1231  C1242   1.413   .     S
C1231  O1281   1.280   .     A
C1232  C1241   1.412   .     S
C1232  O1284   1.282   .     A
C1232  O1282   1.281   .     A
C1233  H1271   1.076   .     S
C1233  C1235   1.389   .     A
C1233  C1262   1.417   .     A
C1234  C1236   1.388   .     A
C1234  H1272   1.079   .     S
C1234  C1261   1.418   .     A
C1235  H1263   1.084   .     S
C1236  H1264   1.084   .     S
C1236  C522    1.391   1_556 S
C1237  H1273   1.084   .     S
C1237  C1242   1.395   .     A
C1237  C747    1.371   1_565 S
C1238  C1241   1.395   .     A
C1238  H1274   1.084   .     S
C1239  H1275   1.083   .     S
C1239  C1241   1.396   .     A
C1240  H1276   1.084   .     S
C1240  C1242   1.397   .     A
C1240  C746    1.371   1_565 S
C1243  H1277   1.078   .     S
C1243  N1280   1.364   .     A
C1243  C1327   1.440   .     S
C1244  N1279   1.361   .     A
C1244  H1278   1.080   .     S
C1244  C1410   1.425   1_455 S
C1245  O1291   1.398   .     S
C1245  N1279   1.373   .     A
C1245  C1407   1.440   1_455 S
C1246  O1302   1.387   .     S
C1246  N1280   1.370   .     A
C1246  C1326   1.425   .     S
C1247  O1285   1.293   .     A
C1247  C1249   1.455   .     S
C1247  O1287   1.292   .     A
C1248  O1288   1.294   .     A
C1248  O1286   1.293   .     A
C1248  C1250   1.458   .     S
C1249  C1253   1.399   .     A
C1249  C1255   1.391   .     A
C1250  C1256   1.393   .     A
C1250  C1254   1.399   .     A
C1251  C1253   1.395   .     A
C1251  C1259   1.405   .     A
C1251  H1269   1.084   .     S
C1252  H1270   1.083   .     S
C1252  C1254   1.393   .     A
C1252  C1260   1.404   .     A
C1253  H1268   1.083   .     S
C1254  H1267   1.083   .     S
C1255  C1257   1.393   .     A
C1255  H1266   1.079   .     S
C1256  C1258   1.395   .     A
C1256  H1265   1.076   .     S
C1257  C1259   1.417   .     A
C1257  C1261   1.417   .     A
C1258  C1262   1.418   .     A
C1258  C1260   1.418   .     A
C1259  C497    1.391   1_556 S
C1261  C524    1.414   1_556 S
N1279  Zn1289  2.011   .     S
N1280  Zn1290  2.011   .     S
O1281  Zn1289  1.989   .     S
O1282  Zn1290  1.989   .     S
O1283  Zn1290  1.993   .     S
O1284  Zn1289  1.993   .     S
O1285  Zn1289  1.970   .     S
O1286  Zn1290  1.970   .     S
O1287  Zn1290  1.918   .     S
O1288  Zn1289  1.918   .     S
O1291  C1292   1.414   .     S
C1292  H1294   1.111   .     S
C1292  H1293   1.111   .     S
C1292  C1295   1.536   .     S
C1295  C1298   1.525   .     S
C1295  H1296   1.110   .     S
C1295  H1461   1.110   1_455 S
H1297  C1377   1.110   .     S
C1298  H1463   1.111   1_455 S
C1298  H1218   1.109   1_455 S
H1299  C1380   1.111   .     S
H1300  C888    1.109   1_565 S
H1301  C806    1.111   1_565 S
O1302  C1303   1.418   .     S
C1303  H1304   1.109   .     S
C1303  H1305   1.116   .     S
C1303  C1306   1.530   .     S
C1306  C1309   1.527   .     S
C1306  H1308   1.110   .     S
C1306  H1307   1.112   .     S
C1309  H1392   1.111   .     S
C1309  H819    1.110   1_565 S
C1309  H820    1.111   1_565 S
H1310  C1473   1.111   1_455 S
C1313  O1365   1.284   .     A
C1313  C1324   1.413   .     S
C1313  O1363   1.280   .     A
C1314  C1323   1.412   .     S
C1314  O1366   1.282   .     A
C1314  O1364   1.281   .     A
C1315  H1353   1.076   .     S
C1315  C1317   1.389   .     A
C1315  C1344   1.417   .     A
C1316  C1318   1.388   .     A
C1316  H1354   1.079   .     S
C1316  C1343   1.418   .     A
C1317  H1345   1.084   .     S
C1318  H1346   1.084   .     S
C1318  C604    1.391   1_556 S
C1319  H1355   1.084   .     S
C1319  C1324   1.395   .     A
C1319  C829    1.371   1_565 S
C1320  C1323   1.395   .     A
C1320  H1356   1.084   .     S
C1321  H1357   1.083   .     S
C1321  C1323   1.396   .     A
C1322  H1358   1.084   .     S
C1322  C1324   1.397   .     A
C1322  C828    1.371   1_565 S
C1325  H1359   1.078   .     S
C1325  N1362   1.364   .     A
C1325  C1409   1.440   .     S
C1326  N1361   1.361   .     A
C1326  H1360   1.080   .     S
C1327  O1373   1.398   .     S
C1327  N1361   1.373   .     A
C1328  O1384   1.387   .     S
C1328  N1362   1.370   .     A
C1328  C1408   1.425   .     S
C1329  O1367   1.293   .     A
C1329  C1331   1.455   .     S
C1329  O1369   1.292   .     A
C1330  O1370   1.294   .     A
C1330  O1368   1.293   .     A
C1330  C1332   1.458   .     S
C1331  C1335   1.399   .     A
C1331  C1337   1.391   .     A
C1332  C1338   1.393   .     A
C1332  C1336   1.399   .     A
C1333  C1335   1.395   .     A
C1333  C1341   1.405   .     A
C1333  H1351   1.084   .     S
C1334  H1352   1.083   .     S
C1334  C1336   1.393   .     A
C1334  C1342   1.404   .     A
C1335  H1350   1.083   .     S
C1336  H1349   1.083   .     S
C1337  C1339   1.393   .     A
C1337  H1348   1.079   .     S
C1338  C1340   1.395   .     A
C1338  H1347   1.076   .     S
C1339  C1341   1.417   .     A
C1339  C1343   1.417   .     A
C1340  C1344   1.418   .     A
C1340  C1342   1.418   .     A
C1341  C579    1.391   1_556 S
C1343  C606    1.414   1_556 S
N1361  Zn1371  2.011   .     S
N1362  Zn1372  2.011   .     S
O1363  Zn1371  1.989   .     S
O1364  Zn1372  1.989   .     S
O1365  Zn1372  1.993   .     S
O1366  Zn1371  1.993   .     S
O1367  Zn1371  1.970   .     S
O1368  Zn1372  1.970   .     S
O1369  Zn1372  1.918   .     S
O1370  Zn1371  1.918   .     S
O1373  C1374   1.414   .     S
C1374  H1376   1.111   .     S
C1374  H1375   1.111   .     S
C1374  C1377   1.536   .     S
C1377  C1380   1.525   .     S
C1377  H1378   1.110   .     S
H1379  C1459   1.110   .     S
H1381  C1462   1.111   .     S
H1382  C970    1.109   1_565 S
H1383  C888    1.111   1_565 S
O1384  C1385   1.418   .     S
C1385  H1386   1.109   .     S
C1385  H1387   1.116   .     S
C1385  C1388   1.530   .     S
C1388  C1391   1.527   .     S
C1388  H1390   1.110   .     S
C1388  H1389   1.112   .     S
C1391  H1474   1.111   .     S
C1391  H901    1.110   1_565 S
C1391  H902    1.111   1_565 S
C1395  O1447   1.284   .     A
C1395  C1406   1.413   .     S
C1395  O1445   1.280   .     A
C1396  C1405   1.412   .     S
C1396  O1448   1.282   .     A
C1396  O1446   1.281   .     A
C1397  H1435   1.076   .     S
C1397  C1399   1.389   .     A
C1397  C1426   1.417   .     A
C1398  C1400   1.388   .     A
C1398  H1436   1.079   .     S
C1398  C1425   1.418   .     A
C1399  H1427   1.084   .     S
C1400  H1428   1.084   .     S
C1400  C686    1.391   1_556 S
C1401  H1437   1.084   .     S
C1401  C1406   1.395   .     A
C1401  C911    1.371   1_565 S
C1402  C1405   1.395   .     A
C1402  H1438   1.084   .     S
C1403  H1439   1.083   .     S
C1403  C1405   1.396   .     A
C1404  H1440   1.084   .     S
C1404  C1406   1.397   .     A
C1404  C910    1.371   1_565 S
C1407  H1441   1.078   .     S
C1407  N1444   1.364   .     A
C1407  C1245   1.440   1_655 S
C1408  N1443   1.361   .     A
C1408  H1442   1.080   .     S
C1409  O1455   1.398   .     S
C1409  N1443   1.373   .     A
C1410  O1466   1.387   .     S
C1410  N1444   1.370   .     A
C1410  C1244   1.425   1_655 S
C1411  O1449   1.293   .     A
C1411  C1413   1.455   .     S
C1411  O1451   1.292   .     A
C1412  O1452   1.294   .     A
C1412  O1450   1.293   .     A
C1412  C1414   1.458   .     S
C1413  C1417   1.399   .     A
C1413  C1419   1.391   .     A
C1414  C1420   1.393   .     A
C1414  C1418   1.399   .     A
C1415  C1417   1.395   .     A
C1415  C1423   1.405   .     A
C1415  H1433   1.084   .     S
C1416  H1434   1.083   .     S
C1416  C1418   1.393   .     A
C1416  C1424   1.404   .     A
C1417  H1432   1.083   .     S
C1418  H1431   1.083   .     S
C1419  C1421   1.393   .     A
C1419  H1430   1.079   .     S
C1420  C1422   1.395   .     A
C1420  H1429   1.076   .     S
C1421  C1423   1.417   .     A
C1421  C1425   1.417   .     A
C1422  C1426   1.418   .     A
C1422  C1424   1.418   .     A
C1423  C661    1.391   1_556 S
C1425  C688    1.414   1_556 S
N1443  Zn1453  2.011   .     S
N1444  Zn1454  2.011   .     S
O1445  Zn1453  1.989   .     S
O1446  Zn1454  1.989   .     S
O1447  Zn1454  1.993   .     S
O1448  Zn1453  1.993   .     S
O1449  Zn1453  1.970   .     S
O1450  Zn1454  1.970   .     S
O1451  Zn1454  1.918   .     S
O1452  Zn1453  1.918   .     S
O1455  C1456   1.414   .     S
C1456  H1458   1.111   .     S
C1456  H1457   1.111   .     S
C1456  C1459   1.536   .     S
C1459  C1462   1.525   .     S
C1459  H1460   1.110   .     S
H1461  C1295   1.110   1_655 S
H1463  C1298   1.111   1_655 S
H1464  C806    1.109   1_665 S
H1465  C970    1.111   1_565 S
O1466  C1467   1.418   .     S
C1467  H1468   1.109   .     S
C1467  H1469   1.116   .     S
C1467  C1470   1.530   .     S
C1470  C1473   1.527   .     S
C1470  H1472   1.110   .     S
C1470  H1471   1.112   .     S
C1473  H1310   1.111   1_655 S
C1473  H983    1.110   1_565 S
C1473  H984    1.111   1_565 S
