data_str_m3_o1_o2_pcu_sym.140
_audit_creation_date              2020-01-03
_audit_creation_method            'Materials Studio'
_symmetry_space_group_name_H-M    'P1'
_symmetry_Int_Tables_number       1
_symmetry_cell_setting            triclinic
loop_
_symmetry_equiv_pos_as_xyz
  x,y,z
_cell_length_a                    32.3997
_cell_length_b                    29.7634
_cell_length_c                    30.0053
_cell_angle_alpha                 90.0578
_cell_angle_beta                  92.6781
_cell_angle_gamma                 90.6807
loop_
_atom_site_label
_atom_site_type_symbol
_atom_site_fract_x
_atom_site_fract_y
_atom_site_fract_z
_atom_site_U_iso_or_equiv
_atom_site_adp_type
_atom_site_occupancy
C1     C     0.08671   0.16633   0.25268   0.00000  Uiso   1.00
C2     C     0.24621   0.16687   0.24550   0.00000  Uiso   1.00
C3     C     0.16659   0.16664   0.16400   0.00000  Uiso   1.00
C4     C     0.16682   0.16668   0.33600   0.00000  Uiso   1.00
C5     C     0.19057   0.02443   0.28085   0.00000  Uiso   1.00
C6     C     0.14014   0.30909   0.22157   0.00000  Uiso   1.00
C7     C     0.14288   0.02371   0.21906   0.00000  Uiso   1.00
C8     C     0.19317   0.30982   0.27855   0.00000  Uiso   1.00
C9     C     0.01984   0.12465   0.24693   0.00000  Uiso   1.00
C10    C     0.31270   0.20779   0.24375   0.00000  Uiso   1.00
C11    C     0.31107   0.12585   0.23689   0.00000  Uiso   1.00
C12    C     0.02094   0.20672   0.25601   0.00000  Uiso   1.00
C13    C     0.15314   0.20414   0.04629   0.00000  Uiso   1.00
C14    C     0.15324   0.12847   0.45222   0.00000  Uiso   1.00
C15    C     0.18197   0.20440   0.45370   0.00000  Uiso   1.00
C16    C     0.18167   0.12886   0.04797   0.00000  Uiso   1.00
C17    C     0.15303   0.20430   0.09228   0.00000  Uiso   1.00
C18    C     0.15315   0.12848   0.40621   0.00000  Uiso   1.00
C19    C     0.18140   0.20464   0.40767   0.00000  Uiso   1.00
C20    C     0.18107   0.12878   0.09394   0.00000  Uiso   1.00
C21    C     0.16685   0.16656   0.11610   0.00000  Uiso   1.00
C22    C     0.16708   0.16663   0.38393   0.00000  Uiso   1.00
C23    C     0.16758   0.16648   0.02412   0.00000  Uiso   1.00
C24    C     0.16772   0.16640   0.47598   0.00000  Uiso   1.00
C25    C     0.29035   0.16706   0.23978   0.00000  Uiso   1.00
C26    C     0.04201   0.16556   0.25401   0.00000  Uiso   1.00
H27    H     0.14159   0.23312   0.02803   0.00000  Uiso   1.00
H28    H     0.14158   0.09917   0.46920   0.00000  Uiso   1.00
H29    H     0.19377   0.23366   0.47189   0.00000  Uiso   1.00
H30    H     0.19343   0.09983   0.03107   0.00000  Uiso   1.00
H31    H     0.14169   0.23359   0.10907   0.00000  Uiso   1.00
H32    H     0.14168   0.09902   0.38811   0.00000  Uiso   1.00
H33    H     0.19258   0.23420   0.39077   0.00000  Uiso   1.00
H34    H     0.19222   0.09956   0.11212   0.00000  Uiso   1.00
N35    N     0.16667   0.28573   0.25000   0.00000  Uiso   1.00
N36    N     0.16667   0.04760   0.25000   0.00000  Uiso   1.00
O37    O     0.10559   0.20487   0.25000   0.00000  Uiso   1.00
O38    O     0.22774   0.12846   0.25000   0.00000  Uiso   1.00
O39    O     0.22774   0.20487   0.25000   0.00000  Uiso   1.00
O40    O     0.10559   0.12846   0.24999   0.00000  Uiso   1.00
O41    O     0.16666   0.20489   0.18453   0.00000  Uiso   1.00
O42    O     0.16667   0.12845   0.31547   0.00000  Uiso   1.00
O43    O     0.16667   0.20489   0.31547   0.00000  Uiso   1.00
O44    O     0.16666   0.12845   0.18453   0.00000  Uiso   1.00
Zn45   Zn    0.16667   0.21771   0.25000   0.00000  Uiso   1.00
Zn46   Zn    0.16667   0.11563   0.25000   0.00000  Uiso   1.00
C47    C     0.21236   0.04935   0.31772   0.00000  Uiso   1.00
H48    H     0.23014   0.07933   0.31149   0.00000  Uiso   1.00
O49    O     0.21015   0.03652   0.35619   0.00000  Uiso   1.00
C50    C     0.10694   0.28476   0.19518   0.00000  Uiso   1.00
H51    H     0.11091   0.25119   0.18334   0.00000  Uiso   1.00
O52    O     0.07336   0.30197   0.18730   0.00000  Uiso   1.00
C53    C     0.12116   0.04790   0.18202   0.00000  Uiso   1.00
H54    H     0.10518   0.07875   0.18784   0.00000  Uiso   1.00
O55    O     0.12151   0.03361   0.14388   0.00000  Uiso   1.00
C56    C     0.22592   0.28622   0.30556   0.00000  Uiso   1.00
H57    H     0.22253   0.25186   0.31529   0.00000  Uiso   1.00
O58    O     0.25867   0.30492   0.31620   0.00000  Uiso   1.00
C59    C     0.03857   0.08082   0.25334   0.00000  Uiso   1.00
N60    N     0.05306   0.04580   0.25879   0.00000  Uiso   1.00
C61    C     0.29459   0.25059   0.23108   0.00000  Uiso   1.00
N62    N     0.28045   0.28464   0.22036   0.00000  Uiso   1.00
C63    C     0.29004   0.08495   0.22101   0.00000  Uiso   1.00
N64    N     0.27331   0.05254   0.20822   0.00000  Uiso   1.00
C65    C     0.04034   0.24742   0.27443   0.00000  Uiso   1.00
N66    N     0.05564   0.27970   0.28948   0.00000  Uiso   1.00
C67    C     0.42005   0.16633   0.25268   0.00000  Uiso   1.00
C68    C     0.57954   0.16687   0.24550   0.00000  Uiso   1.00
C69    C     0.49992   0.16664   0.16400   0.00000  Uiso   1.00
C70    C     0.50015   0.16668   0.33600   0.00000  Uiso   1.00
C71    C     0.52390   0.02443   0.28085   0.00000  Uiso   1.00
C72    C     0.47347   0.30909   0.22157   0.00000  Uiso   1.00
C73    C     0.47621   0.02371   0.21906   0.00000  Uiso   1.00
C74    C     0.52650   0.30982   0.27855   0.00000  Uiso   1.00
C75    C     0.35317   0.12465   0.24693   0.00000  Uiso   1.00
C76    C     0.64603   0.20779   0.24375   0.00000  Uiso   1.00
C77    C     0.64441   0.12585   0.23689   0.00000  Uiso   1.00
C78    C     0.35427   0.20672   0.25601   0.00000  Uiso   1.00
C79    C     0.48647   0.20414   0.04629   0.00000  Uiso   1.00
C80    C     0.48657   0.12847   0.45222   0.00000  Uiso   1.00
C81    C     0.51531   0.20440   0.45370   0.00000  Uiso   1.00
C82    C     0.51501   0.12886   0.04797   0.00000  Uiso   1.00
C83    C     0.48636   0.20430   0.09228   0.00000  Uiso   1.00
C84    C     0.48649   0.12848   0.40621   0.00000  Uiso   1.00
C85    C     0.51473   0.20464   0.40767   0.00000  Uiso   1.00
C86    C     0.51441   0.12878   0.09394   0.00000  Uiso   1.00
C87    C     0.50019   0.16656   0.11610   0.00000  Uiso   1.00
C88    C     0.50042   0.16663   0.38393   0.00000  Uiso   1.00
C89    C     0.50091   0.16648   0.02412   0.00000  Uiso   1.00
C90    C     0.50105   0.16640   0.47598   0.00000  Uiso   1.00
C91    C     0.62368   0.16706   0.23978   0.00000  Uiso   1.00
C92    C     0.37535   0.16556   0.25401   0.00000  Uiso   1.00
H93    H     0.47492   0.23312   0.02803   0.00000  Uiso   1.00
H94    H     0.47491   0.09917   0.46920   0.00000  Uiso   1.00
H95    H     0.52710   0.23366   0.47189   0.00000  Uiso   1.00
H96    H     0.52676   0.09983   0.03107   0.00000  Uiso   1.00
H97    H     0.47502   0.23359   0.10907   0.00000  Uiso   1.00
H98    H     0.47501   0.09902   0.38811   0.00000  Uiso   1.00
H99    H     0.52591   0.23420   0.39077   0.00000  Uiso   1.00
H100   H     0.52556   0.09956   0.11212   0.00000  Uiso   1.00
N101   N     0.50000   0.28573   0.25000   0.00000  Uiso   1.00
N102   N     0.50000   0.04760   0.25000   0.00000  Uiso   1.00
O103   O     0.43892   0.20487   0.25000   0.00000  Uiso   1.00
O104   O     0.56108   0.12846   0.25000   0.00000  Uiso   1.00
O105   O     0.56108   0.20487   0.25000   0.00000  Uiso   1.00
O106   O     0.43892   0.12846   0.24999   0.00000  Uiso   1.00
O107   O     0.50000   0.20489   0.18453   0.00000  Uiso   1.00
O108   O     0.50000   0.12845   0.31547   0.00000  Uiso   1.00
O109   O     0.50000   0.20489   0.31547   0.00000  Uiso   1.00
O110   O     0.50000   0.12845   0.18453   0.00000  Uiso   1.00
Zn111  Zn    0.50000   0.21771   0.25000   0.00000  Uiso   1.00
Zn112  Zn    0.50000   0.11563   0.25000   0.00000  Uiso   1.00
C113   C     0.54569   0.04935   0.31772   0.00000  Uiso   1.00
H114   H     0.56347   0.07933   0.31149   0.00000  Uiso   1.00
O115   O     0.54348   0.03652   0.35619   0.00000  Uiso   1.00
C116   C     0.44028   0.28476   0.19518   0.00000  Uiso   1.00
H117   H     0.44425   0.25119   0.18334   0.00000  Uiso   1.00
O118   O     0.40669   0.30197   0.18730   0.00000  Uiso   1.00
C119   C     0.45449   0.04790   0.18202   0.00000  Uiso   1.00
H120   H     0.43851   0.07875   0.18784   0.00000  Uiso   1.00
O121   O     0.45484   0.03361   0.14388   0.00000  Uiso   1.00
C122   C     0.55925   0.28622   0.30556   0.00000  Uiso   1.00
H123   H     0.55586   0.25186   0.31529   0.00000  Uiso   1.00
O124   O     0.59201   0.30492   0.31620   0.00000  Uiso   1.00
C125   C     0.37190   0.08082   0.25334   0.00000  Uiso   1.00
N126   N     0.38639   0.04580   0.25879   0.00000  Uiso   1.00
C127   C     0.62792   0.25059   0.23108   0.00000  Uiso   1.00
N128   N     0.61378   0.28464   0.22036   0.00000  Uiso   1.00
C129   C     0.62337   0.08495   0.22101   0.00000  Uiso   1.00
N130   N     0.60664   0.05254   0.20822   0.00000  Uiso   1.00
C131   C     0.37368   0.24742   0.27443   0.00000  Uiso   1.00
N132   N     0.38897   0.27970   0.28948   0.00000  Uiso   1.00
C133   C     0.75338   0.16633   0.25268   0.00000  Uiso   1.00
C134   C     0.91288   0.16687   0.24550   0.00000  Uiso   1.00
C135   C     0.83325   0.16664   0.16400   0.00000  Uiso   1.00
C136   C     0.83348   0.16668   0.33600   0.00000  Uiso   1.00
C137   C     0.85723   0.02443   0.28085   0.00000  Uiso   1.00
C138   C     0.80680   0.30909   0.22157   0.00000  Uiso   1.00
C139   C     0.80954   0.02371   0.21906   0.00000  Uiso   1.00
C140   C     0.85983   0.30982   0.27855   0.00000  Uiso   1.00
C141   C     0.68650   0.12465   0.24693   0.00000  Uiso   1.00
C142   C     0.97937   0.20779   0.24375   0.00000  Uiso   1.00
C143   C     0.97774   0.12585   0.23689   0.00000  Uiso   1.00
C144   C     0.68760   0.20672   0.25601   0.00000  Uiso   1.00
C145   C     0.81980   0.20414   0.04629   0.00000  Uiso   1.00
C146   C     0.81991   0.12847   0.45222   0.00000  Uiso   1.00
C147   C     0.84864   0.20440   0.45370   0.00000  Uiso   1.00
C148   C     0.84834   0.12886   0.04797   0.00000  Uiso   1.00
C149   C     0.81970   0.20430   0.09228   0.00000  Uiso   1.00
C150   C     0.81982   0.12848   0.40621   0.00000  Uiso   1.00
C151   C     0.84807   0.20464   0.40767   0.00000  Uiso   1.00
C152   C     0.84774   0.12878   0.09394   0.00000  Uiso   1.00
C153   C     0.83352   0.16656   0.11610   0.00000  Uiso   1.00
C154   C     0.83375   0.16663   0.38393   0.00000  Uiso   1.00
C155   C     0.83425   0.16648   0.02412   0.00000  Uiso   1.00
C156   C     0.83438   0.16640   0.47598   0.00000  Uiso   1.00
C157   C     0.95701   0.16706   0.23978   0.00000  Uiso   1.00
C158   C     0.70868   0.16556   0.25401   0.00000  Uiso   1.00
H159   H     0.80825   0.23312   0.02803   0.00000  Uiso   1.00
H160   H     0.80825   0.09917   0.46920   0.00000  Uiso   1.00
H161   H     0.86044   0.23366   0.47189   0.00000  Uiso   1.00
H162   H     0.86010   0.09983   0.03107   0.00000  Uiso   1.00
H163   H     0.80835   0.23359   0.10907   0.00000  Uiso   1.00
H164   H     0.80834   0.09902   0.38811   0.00000  Uiso   1.00
H165   H     0.85924   0.23420   0.39077   0.00000  Uiso   1.00
H166   H     0.85889   0.09956   0.11212   0.00000  Uiso   1.00
N167   N     0.83333   0.28573   0.25000   0.00000  Uiso   1.00
N168   N     0.83333   0.04760   0.25000   0.00000  Uiso   1.00
O169   O     0.77226   0.20487   0.25000   0.00000  Uiso   1.00
O170   O     0.89441   0.12846   0.25000   0.00000  Uiso   1.00
O171   O     0.89441   0.20487   0.25000   0.00000  Uiso   1.00
O172   O     0.77226   0.12846   0.24999   0.00000  Uiso   1.00
O173   O     0.83333   0.20489   0.18453   0.00000  Uiso   1.00
O174   O     0.83334   0.12845   0.31547   0.00000  Uiso   1.00
O175   O     0.83334   0.20489   0.31547   0.00000  Uiso   1.00
O176   O     0.83333   0.12845   0.18453   0.00000  Uiso   1.00
Zn177  Zn    0.83333   0.21771   0.25000   0.00000  Uiso   1.00
Zn178  Zn    0.83333   0.11563   0.25000   0.00000  Uiso   1.00
C179   C     0.87903   0.04935   0.31772   0.00000  Uiso   1.00
H180   H     0.89681   0.07933   0.31149   0.00000  Uiso   1.00
O181   O     0.87682   0.03652   0.35619   0.00000  Uiso   1.00
C182   C     0.77361   0.28476   0.19518   0.00000  Uiso   1.00
H183   H     0.77758   0.25119   0.18334   0.00000  Uiso   1.00
O184   O     0.74003   0.30197   0.18730   0.00000  Uiso   1.00
C185   C     0.78783   0.04790   0.18202   0.00000  Uiso   1.00
H186   H     0.77184   0.07875   0.18784   0.00000  Uiso   1.00
O187   O     0.78817   0.03361   0.14388   0.00000  Uiso   1.00
C188   C     0.89258   0.28622   0.30556   0.00000  Uiso   1.00
H189   H     0.88920   0.25186   0.31529   0.00000  Uiso   1.00
O190   O     0.92534   0.30492   0.31620   0.00000  Uiso   1.00
C191   C     0.70523   0.08082   0.25334   0.00000  Uiso   1.00
N192   N     0.71973   0.04580   0.25879   0.00000  Uiso   1.00
C193   C     0.96126   0.25059   0.23108   0.00000  Uiso   1.00
N194   N     0.94712   0.28464   0.22036   0.00000  Uiso   1.00
C195   C     0.95671   0.08495   0.22101   0.00000  Uiso   1.00
N196   N     0.93997   0.05254   0.20822   0.00000  Uiso   1.00
C197   C     0.70701   0.24742   0.27443   0.00000  Uiso   1.00
N198   N     0.72230   0.27970   0.28948   0.00000  Uiso   1.00
C199   C     0.08671   0.49966   0.25268   0.00000  Uiso   1.00
C200   C     0.24621   0.50021   0.24550   0.00000  Uiso   1.00
C201   C     0.16659   0.49997   0.16400   0.00000  Uiso   1.00
C202   C     0.16682   0.50001   0.33600   0.00000  Uiso   1.00
C203   C     0.19057   0.35776   0.28085   0.00000  Uiso   1.00
C204   C     0.14014   0.64242   0.22157   0.00000  Uiso   1.00
C205   C     0.14288   0.35705   0.21906   0.00000  Uiso   1.00
C206   C     0.19317   0.64315   0.27855   0.00000  Uiso   1.00
C207   C     0.01984   0.45798   0.24693   0.00000  Uiso   1.00
C208   C     0.31270   0.54112   0.24375   0.00000  Uiso   1.00
C209   C     0.31107   0.45918   0.23689   0.00000  Uiso   1.00
C210   C     0.02094   0.54005   0.25601   0.00000  Uiso   1.00
C211   C     0.15314   0.53747   0.04629   0.00000  Uiso   1.00
C212   C     0.15324   0.46180   0.45222   0.00000  Uiso   1.00
C213   C     0.18197   0.53774   0.45370   0.00000  Uiso   1.00
C214   C     0.18167   0.46219   0.04797   0.00000  Uiso   1.00
C215   C     0.15303   0.53764   0.09228   0.00000  Uiso   1.00
C216   C     0.15315   0.46181   0.40621   0.00000  Uiso   1.00
C217   C     0.18140   0.53797   0.40767   0.00000  Uiso   1.00
C218   C     0.18107   0.46211   0.09394   0.00000  Uiso   1.00
C219   C     0.16685   0.49989   0.11610   0.00000  Uiso   1.00
C220   C     0.16708   0.49997   0.38393   0.00000  Uiso   1.00
C221   C     0.16758   0.49982   0.02412   0.00000  Uiso   1.00
C222   C     0.16772   0.49973   0.47598   0.00000  Uiso   1.00
C223   C     0.29035   0.50040   0.23978   0.00000  Uiso   1.00
C224   C     0.04201   0.49889   0.25401   0.00000  Uiso   1.00
H225   H     0.14159   0.56646   0.02803   0.00000  Uiso   1.00
H226   H     0.14158   0.43251   0.46920   0.00000  Uiso   1.00
H227   H     0.19377   0.56699   0.47189   0.00000  Uiso   1.00
H228   H     0.19343   0.43316   0.03107   0.00000  Uiso   1.00
H229   H     0.14169   0.56693   0.10907   0.00000  Uiso   1.00
H230   H     0.14168   0.43236   0.38811   0.00000  Uiso   1.00
H231   H     0.19258   0.56754   0.39077   0.00000  Uiso   1.00
H232   H     0.19222   0.43290   0.11212   0.00000  Uiso   1.00
N233   N     0.16667   0.61907   0.25000   0.00000  Uiso   1.00
N234   N     0.16667   0.38093   0.25000   0.00000  Uiso   1.00
O235   O     0.10559   0.53821   0.25000   0.00000  Uiso   1.00
O236   O     0.22774   0.46179   0.25000   0.00000  Uiso   1.00
O237   O     0.22774   0.53821   0.25000   0.00000  Uiso   1.00
O238   O     0.10559   0.46179   0.24999   0.00000  Uiso   1.00
O239   O     0.16666   0.53822   0.18453   0.00000  Uiso   1.00
O240   O     0.16667   0.46178   0.31547   0.00000  Uiso   1.00
O241   O     0.16667   0.53822   0.31547   0.00000  Uiso   1.00
O242   O     0.16666   0.46178   0.18453   0.00000  Uiso   1.00
Zn243  Zn    0.16667   0.55104   0.25000   0.00000  Uiso   1.00
Zn244  Zn    0.16667   0.44896   0.25000   0.00000  Uiso   1.00
C245   C     0.21236   0.38268   0.31772   0.00000  Uiso   1.00
H246   H     0.23014   0.41266   0.31149   0.00000  Uiso   1.00
O247   O     0.21015   0.36985   0.35619   0.00000  Uiso   1.00
C248   C     0.10694   0.61809   0.19518   0.00000  Uiso   1.00
H249   H     0.11091   0.58453   0.18334   0.00000  Uiso   1.00
O250   O     0.07336   0.63530   0.18730   0.00000  Uiso   1.00
C251   C     0.12116   0.38124   0.18202   0.00000  Uiso   1.00
H252   H     0.10518   0.41208   0.18784   0.00000  Uiso   1.00
O253   O     0.12151   0.36694   0.14388   0.00000  Uiso   1.00
C254   C     0.22592   0.61956   0.30556   0.00000  Uiso   1.00
H255   H     0.22253   0.58519   0.31529   0.00000  Uiso   1.00
O256   O     0.25867   0.63825   0.31620   0.00000  Uiso   1.00
C257   C     0.03857   0.41415   0.25334   0.00000  Uiso   1.00
N258   N     0.05306   0.37913   0.25879   0.00000  Uiso   1.00
C259   C     0.29459   0.58393   0.23108   0.00000  Uiso   1.00
N260   N     0.28045   0.61797   0.22036   0.00000  Uiso   1.00
C261   C     0.29004   0.41828   0.22101   0.00000  Uiso   1.00
N262   N     0.27331   0.38587   0.20822   0.00000  Uiso   1.00
C263   C     0.04034   0.58075   0.27443   0.00000  Uiso   1.00
N264   N     0.05564   0.61303   0.28948   0.00000  Uiso   1.00
C265   C     0.42005   0.49966   0.25268   0.00000  Uiso   1.00
C266   C     0.57954   0.50021   0.24550   0.00000  Uiso   1.00
C267   C     0.49992   0.49997   0.16400   0.00000  Uiso   1.00
C268   C     0.50015   0.50001   0.33600   0.00000  Uiso   1.00
C269   C     0.52390   0.35776   0.28085   0.00000  Uiso   1.00
C270   C     0.47347   0.64242   0.22157   0.00000  Uiso   1.00
C271   C     0.47621   0.35705   0.21906   0.00000  Uiso   1.00
C272   C     0.52650   0.64315   0.27855   0.00000  Uiso   1.00
C273   C     0.35317   0.45798   0.24693   0.00000  Uiso   1.00
C274   C     0.64603   0.54112   0.24375   0.00000  Uiso   1.00
C275   C     0.64441   0.45918   0.23689   0.00000  Uiso   1.00
C276   C     0.35427   0.54005   0.25601   0.00000  Uiso   1.00
C277   C     0.48647   0.53747   0.04629   0.00000  Uiso   1.00
C278   C     0.48657   0.46180   0.45222   0.00000  Uiso   1.00
C279   C     0.51531   0.53774   0.45370   0.00000  Uiso   1.00
C280   C     0.51501   0.46219   0.04797   0.00000  Uiso   1.00
C281   C     0.48636   0.53764   0.09228   0.00000  Uiso   1.00
C282   C     0.48649   0.46181   0.40621   0.00000  Uiso   1.00
C283   C     0.51473   0.53797   0.40767   0.00000  Uiso   1.00
C284   C     0.51441   0.46211   0.09394   0.00000  Uiso   1.00
C285   C     0.50019   0.49989   0.11610   0.00000  Uiso   1.00
C286   C     0.50042   0.49997   0.38393   0.00000  Uiso   1.00
C287   C     0.50091   0.49982   0.02412   0.00000  Uiso   1.00
C288   C     0.50105   0.49973   0.47598   0.00000  Uiso   1.00
C289   C     0.62368   0.50040   0.23978   0.00000  Uiso   1.00
C290   C     0.37535   0.49889   0.25401   0.00000  Uiso   1.00
H291   H     0.47492   0.56646   0.02803   0.00000  Uiso   1.00
H292   H     0.47491   0.43251   0.46920   0.00000  Uiso   1.00
H293   H     0.52710   0.56699   0.47189   0.00000  Uiso   1.00
H294   H     0.52676   0.43316   0.03107   0.00000  Uiso   1.00
H295   H     0.47502   0.56693   0.10907   0.00000  Uiso   1.00
H296   H     0.47501   0.43236   0.38811   0.00000  Uiso   1.00
H297   H     0.52591   0.56754   0.39077   0.00000  Uiso   1.00
H298   H     0.52556   0.43290   0.11212   0.00000  Uiso   1.00
N299   N     0.50000   0.61907   0.25000   0.00000  Uiso   1.00
N300   N     0.50000   0.38093   0.25000   0.00000  Uiso   1.00
O301   O     0.43892   0.53821   0.25000   0.00000  Uiso   1.00
O302   O     0.56108   0.46179   0.25000   0.00000  Uiso   1.00
O303   O     0.56108   0.53821   0.25000   0.00000  Uiso   1.00
O304   O     0.43892   0.46179   0.24999   0.00000  Uiso   1.00
O305   O     0.50000   0.53822   0.18453   0.00000  Uiso   1.00
O306   O     0.50000   0.46178   0.31547   0.00000  Uiso   1.00
O307   O     0.50000   0.53822   0.31547   0.00000  Uiso   1.00
O308   O     0.50000   0.46178   0.18453   0.00000  Uiso   1.00
Zn309  Zn    0.50000   0.55104   0.25000   0.00000  Uiso   1.00
Zn310  Zn    0.50000   0.44896   0.25000   0.00000  Uiso   1.00
C311   C     0.54569   0.38268   0.31772   0.00000  Uiso   1.00
H312   H     0.56347   0.41266   0.31149   0.00000  Uiso   1.00
O313   O     0.54348   0.36985   0.35619   0.00000  Uiso   1.00
C314   C     0.44028   0.61809   0.19518   0.00000  Uiso   1.00
H315   H     0.44425   0.58453   0.18334   0.00000  Uiso   1.00
O316   O     0.40669   0.63530   0.18730   0.00000  Uiso   1.00
C317   C     0.45449   0.38124   0.18202   0.00000  Uiso   1.00
H318   H     0.43851   0.41208   0.18784   0.00000  Uiso   1.00
O319   O     0.45484   0.36694   0.14388   0.00000  Uiso   1.00
C320   C     0.55925   0.61956   0.30556   0.00000  Uiso   1.00
H321   H     0.55586   0.58519   0.31529   0.00000  Uiso   1.00
O322   O     0.59201   0.63825   0.31620   0.00000  Uiso   1.00
C323   C     0.37190   0.41415   0.25334   0.00000  Uiso   1.00
N324   N     0.38639   0.37913   0.25879   0.00000  Uiso   1.00
C325   C     0.62792   0.58393   0.23108   0.00000  Uiso   1.00
N326   N     0.61378   0.61797   0.22036   0.00000  Uiso   1.00
C327   C     0.62337   0.41828   0.22101   0.00000  Uiso   1.00
N328   N     0.60664   0.38587   0.20822   0.00000  Uiso   1.00
C329   C     0.37368   0.58075   0.27443   0.00000  Uiso   1.00
N330   N     0.38897   0.61303   0.28948   0.00000  Uiso   1.00
C331   C     0.75338   0.49966   0.25268   0.00000  Uiso   1.00
C332   C     0.91288   0.50021   0.24550   0.00000  Uiso   1.00
C333   C     0.83325   0.49997   0.16400   0.00000  Uiso   1.00
C334   C     0.83348   0.50001   0.33600   0.00000  Uiso   1.00
C335   C     0.85723   0.35776   0.28085   0.00000  Uiso   1.00
C336   C     0.80680   0.64242   0.22157   0.00000  Uiso   1.00
C337   C     0.80954   0.35705   0.21906   0.00000  Uiso   1.00
C338   C     0.85983   0.64315   0.27855   0.00000  Uiso   1.00
C339   C     0.68650   0.45798   0.24693   0.00000  Uiso   1.00
C340   C     0.97937   0.54112   0.24375   0.00000  Uiso   1.00
C341   C     0.97774   0.45918   0.23689   0.00000  Uiso   1.00
C342   C     0.68760   0.54005   0.25601   0.00000  Uiso   1.00
C343   C     0.81980   0.53747   0.04629   0.00000  Uiso   1.00
C344   C     0.81991   0.46180   0.45222   0.00000  Uiso   1.00
C345   C     0.84864   0.53774   0.45370   0.00000  Uiso   1.00
C346   C     0.84834   0.46219   0.04797   0.00000  Uiso   1.00
C347   C     0.81970   0.53764   0.09228   0.00000  Uiso   1.00
C348   C     0.81982   0.46181   0.40621   0.00000  Uiso   1.00
C349   C     0.84807   0.53797   0.40767   0.00000  Uiso   1.00
C350   C     0.84774   0.46211   0.09394   0.00000  Uiso   1.00
C351   C     0.83352   0.49989   0.11610   0.00000  Uiso   1.00
C352   C     0.83375   0.49997   0.38393   0.00000  Uiso   1.00
C353   C     0.83425   0.49982   0.02412   0.00000  Uiso   1.00
C354   C     0.83438   0.49973   0.47598   0.00000  Uiso   1.00
C355   C     0.95701   0.50040   0.23978   0.00000  Uiso   1.00
C356   C     0.70868   0.49889   0.25401   0.00000  Uiso   1.00
H357   H     0.80825   0.56646   0.02803   0.00000  Uiso   1.00
H358   H     0.80825   0.43251   0.46920   0.00000  Uiso   1.00
H359   H     0.86044   0.56699   0.47189   0.00000  Uiso   1.00
H360   H     0.86010   0.43316   0.03107   0.00000  Uiso   1.00
H361   H     0.80835   0.56693   0.10907   0.00000  Uiso   1.00
H362   H     0.80834   0.43236   0.38811   0.00000  Uiso   1.00
H363   H     0.85924   0.56754   0.39077   0.00000  Uiso   1.00
H364   H     0.85889   0.43290   0.11212   0.00000  Uiso   1.00
N365   N     0.83333   0.61907   0.25000   0.00000  Uiso   1.00
N366   N     0.83333   0.38093   0.25000   0.00000  Uiso   1.00
O367   O     0.77226   0.53821   0.25000   0.00000  Uiso   1.00
O368   O     0.89441   0.46179   0.25000   0.00000  Uiso   1.00
O369   O     0.89441   0.53821   0.25000   0.00000  Uiso   1.00
O370   O     0.77226   0.46179   0.24999   0.00000  Uiso   1.00
O371   O     0.83333   0.53822   0.18453   0.00000  Uiso   1.00
O372   O     0.83334   0.46178   0.31547   0.00000  Uiso   1.00
O373   O     0.83334   0.53822   0.31547   0.00000  Uiso   1.00
O374   O     0.83333   0.46178   0.18453   0.00000  Uiso   1.00
Zn375  Zn    0.83333   0.55104   0.25000   0.00000  Uiso   1.00
Zn376  Zn    0.83333   0.44896   0.25000   0.00000  Uiso   1.00
C377   C     0.87903   0.38268   0.31772   0.00000  Uiso   1.00
H378   H     0.89681   0.41266   0.31149   0.00000  Uiso   1.00
O379   O     0.87682   0.36985   0.35619   0.00000  Uiso   1.00
C380   C     0.77361   0.61809   0.19518   0.00000  Uiso   1.00
H381   H     0.77758   0.58453   0.18334   0.00000  Uiso   1.00
O382   O     0.74003   0.63530   0.18730   0.00000  Uiso   1.00
C383   C     0.78783   0.38124   0.18202   0.00000  Uiso   1.00
H384   H     0.77184   0.41208   0.18784   0.00000  Uiso   1.00
O385   O     0.78817   0.36694   0.14388   0.00000  Uiso   1.00
C386   C     0.89258   0.61956   0.30556   0.00000  Uiso   1.00
H387   H     0.88920   0.58519   0.31529   0.00000  Uiso   1.00
O388   O     0.92534   0.63825   0.31620   0.00000  Uiso   1.00
C389   C     0.70523   0.41415   0.25334   0.00000  Uiso   1.00
N390   N     0.71973   0.37913   0.25879   0.00000  Uiso   1.00
C391   C     0.96126   0.58393   0.23108   0.00000  Uiso   1.00
N392   N     0.94712   0.61797   0.22036   0.00000  Uiso   1.00
C393   C     0.95671   0.41828   0.22101   0.00000  Uiso   1.00
N394   N     0.93997   0.38587   0.20822   0.00000  Uiso   1.00
C395   C     0.70701   0.58075   0.27443   0.00000  Uiso   1.00
N396   N     0.72230   0.61303   0.28948   0.00000  Uiso   1.00
C397   C     0.08671   0.83299   0.25268   0.00000  Uiso   1.00
C398   C     0.24621   0.83354   0.24550   0.00000  Uiso   1.00
C399   C     0.16659   0.83330   0.16400   0.00000  Uiso   1.00
C400   C     0.16682   0.83334   0.33600   0.00000  Uiso   1.00
C401   C     0.19057   0.69110   0.28085   0.00000  Uiso   1.00
C402   C     0.14014   0.97575   0.22157   0.00000  Uiso   1.00
C403   C     0.14288   0.69038   0.21906   0.00000  Uiso   1.00
C404   C     0.19317   0.97648   0.27855   0.00000  Uiso   1.00
C405   C     0.01984   0.79132   0.24693   0.00000  Uiso   1.00
C406   C     0.31270   0.87445   0.24375   0.00000  Uiso   1.00
C407   C     0.31107   0.79252   0.23689   0.00000  Uiso   1.00
C408   C     0.02094   0.87338   0.25601   0.00000  Uiso   1.00
C409   C     0.15314   0.87081   0.04629   0.00000  Uiso   1.00
C410   C     0.15324   0.79513   0.45222   0.00000  Uiso   1.00
C411   C     0.18197   0.87107   0.45370   0.00000  Uiso   1.00
C412   C     0.18167   0.79552   0.04797   0.00000  Uiso   1.00
C413   C     0.15303   0.87097   0.09228   0.00000  Uiso   1.00
C414   C     0.15315   0.79514   0.40621   0.00000  Uiso   1.00
C415   C     0.18140   0.87131   0.40767   0.00000  Uiso   1.00
C416   C     0.18107   0.79545   0.09394   0.00000  Uiso   1.00
C417   C     0.16685   0.83323   0.11610   0.00000  Uiso   1.00
C418   C     0.16708   0.83330   0.38393   0.00000  Uiso   1.00
C419   C     0.16758   0.83315   0.02412   0.00000  Uiso   1.00
C420   C     0.16772   0.83307   0.47598   0.00000  Uiso   1.00
C421   C     0.29035   0.83373   0.23978   0.00000  Uiso   1.00
C422   C     0.04201   0.83223   0.25401   0.00000  Uiso   1.00
H423   H     0.14159   0.89979   0.02803   0.00000  Uiso   1.00
H424   H     0.14158   0.76584   0.46920   0.00000  Uiso   1.00
H425   H     0.19377   0.90032   0.47189   0.00000  Uiso   1.00
H426   H     0.19343   0.76649   0.03107   0.00000  Uiso   1.00
H427   H     0.14169   0.90026   0.10907   0.00000  Uiso   1.00
H428   H     0.14168   0.76569   0.38811   0.00000  Uiso   1.00
H429   H     0.19258   0.90087   0.39077   0.00000  Uiso   1.00
H430   H     0.19222   0.76623   0.11212   0.00000  Uiso   1.00
N431   N     0.16667   0.95240   0.25000   0.00000  Uiso   1.00
N432   N     0.16667   0.71427   0.25000   0.00000  Uiso   1.00
O433   O     0.10559   0.87154   0.25000   0.00000  Uiso   1.00
O434   O     0.22774   0.79513   0.25000   0.00000  Uiso   1.00
O435   O     0.22774   0.87154   0.25000   0.00000  Uiso   1.00
O436   O     0.10559   0.79513   0.24999   0.00000  Uiso   1.00
O437   O     0.16666   0.87155   0.18453   0.00000  Uiso   1.00
O438   O     0.16667   0.79511   0.31547   0.00000  Uiso   1.00
O439   O     0.16667   0.87155   0.31547   0.00000  Uiso   1.00
O440   O     0.16666   0.79511   0.18453   0.00000  Uiso   1.00
Zn441  Zn    0.16667   0.88437   0.25000   0.00000  Uiso   1.00
Zn442  Zn    0.16667   0.78229   0.25000   0.00000  Uiso   1.00
C443   C     0.21236   0.71602   0.31772   0.00000  Uiso   1.00
H444   H     0.23014   0.74599   0.31149   0.00000  Uiso   1.00
O445   O     0.21015   0.70319   0.35619   0.00000  Uiso   1.00
C446   C     0.10694   0.95142   0.19518   0.00000  Uiso   1.00
H447   H     0.11091   0.91786   0.18334   0.00000  Uiso   1.00
O448   O     0.07336   0.96863   0.18730   0.00000  Uiso   1.00
C449   C     0.12116   0.71457   0.18202   0.00000  Uiso   1.00
H450   H     0.10518   0.74542   0.18784   0.00000  Uiso   1.00
O451   O     0.12151   0.70027   0.14388   0.00000  Uiso   1.00
C452   C     0.22592   0.95289   0.30556   0.00000  Uiso   1.00
H453   H     0.22253   0.91853   0.31529   0.00000  Uiso   1.00
O454   O     0.25867   0.97158   0.31620   0.00000  Uiso   1.00
C455   C     0.03857   0.74749   0.25334   0.00000  Uiso   1.00
N456   N     0.05306   0.71247   0.25879   0.00000  Uiso   1.00
C457   C     0.29459   0.91726   0.23108   0.00000  Uiso   1.00
N458   N     0.28045   0.95131   0.22036   0.00000  Uiso   1.00
C459   C     0.29004   0.75161   0.22101   0.00000  Uiso   1.00
N460   N     0.27331   0.71921   0.20822   0.00000  Uiso   1.00
C461   C     0.04034   0.91409   0.27443   0.00000  Uiso   1.00
N462   N     0.05564   0.94637   0.28948   0.00000  Uiso   1.00
C463   C     0.42005   0.83299   0.25268   0.00000  Uiso   1.00
C464   C     0.57954   0.83354   0.24550   0.00000  Uiso   1.00
C465   C     0.49992   0.83330   0.16400   0.00000  Uiso   1.00
C466   C     0.50015   0.83334   0.33600   0.00000  Uiso   1.00
C467   C     0.52390   0.69110   0.28085   0.00000  Uiso   1.00
C468   C     0.47347   0.97575   0.22157   0.00000  Uiso   1.00
C469   C     0.47621   0.69038   0.21906   0.00000  Uiso   1.00
C470   C     0.52650   0.97648   0.27855   0.00000  Uiso   1.00
C471   C     0.35317   0.79132   0.24693   0.00000  Uiso   1.00
C472   C     0.64603   0.87445   0.24375   0.00000  Uiso   1.00
C473   C     0.64441   0.79252   0.23689   0.00000  Uiso   1.00
C474   C     0.35427   0.87338   0.25601   0.00000  Uiso   1.00
C475   C     0.48647   0.87081   0.04629   0.00000  Uiso   1.00
C476   C     0.48657   0.79513   0.45222   0.00000  Uiso   1.00
C477   C     0.51531   0.87107   0.45370   0.00000  Uiso   1.00
C478   C     0.51501   0.79552   0.04797   0.00000  Uiso   1.00
C479   C     0.48636   0.87097   0.09228   0.00000  Uiso   1.00
C480   C     0.48649   0.79514   0.40621   0.00000  Uiso   1.00
C481   C     0.51473   0.87131   0.40767   0.00000  Uiso   1.00
C482   C     0.51441   0.79545   0.09394   0.00000  Uiso   1.00
C483   C     0.50019   0.83323   0.11610   0.00000  Uiso   1.00
C484   C     0.50042   0.83330   0.38393   0.00000  Uiso   1.00
C485   C     0.50091   0.83315   0.02412   0.00000  Uiso   1.00
C486   C     0.50105   0.83307   0.47598   0.00000  Uiso   1.00
C487   C     0.62368   0.83373   0.23978   0.00000  Uiso   1.00
C488   C     0.37535   0.83223   0.25401   0.00000  Uiso   1.00
H489   H     0.47492   0.89979   0.02803   0.00000  Uiso   1.00
H490   H     0.47491   0.76584   0.46920   0.00000  Uiso   1.00
H491   H     0.52710   0.90032   0.47189   0.00000  Uiso   1.00
H492   H     0.52676   0.76649   0.03107   0.00000  Uiso   1.00
H493   H     0.47502   0.90026   0.10907   0.00000  Uiso   1.00
H494   H     0.47501   0.76569   0.38811   0.00000  Uiso   1.00
H495   H     0.52591   0.90087   0.39077   0.00000  Uiso   1.00
H496   H     0.52556   0.76623   0.11212   0.00000  Uiso   1.00
N497   N     0.50000   0.95240   0.25000   0.00000  Uiso   1.00
N498   N     0.50000   0.71427   0.25000   0.00000  Uiso   1.00
O499   O     0.43892   0.87154   0.25000   0.00000  Uiso   1.00
O500   O     0.56108   0.79513   0.25000   0.00000  Uiso   1.00
O501   O     0.56108   0.87154   0.25000   0.00000  Uiso   1.00
O502   O     0.43892   0.79513   0.24999   0.00000  Uiso   1.00
O503   O     0.50000   0.87155   0.18453   0.00000  Uiso   1.00
O504   O     0.50000   0.79511   0.31547   0.00000  Uiso   1.00
O505   O     0.50000   0.87155   0.31547   0.00000  Uiso   1.00
O506   O     0.50000   0.79511   0.18453   0.00000  Uiso   1.00
Zn507  Zn    0.50000   0.88437   0.25000   0.00000  Uiso   1.00
Zn508  Zn    0.50000   0.78229   0.25000   0.00000  Uiso   1.00
C509   C     0.54569   0.71602   0.31772   0.00000  Uiso   1.00
H510   H     0.56347   0.74599   0.31149   0.00000  Uiso   1.00
O511   O     0.54348   0.70319   0.35619   0.00000  Uiso   1.00
C512   C     0.44028   0.95142   0.19518   0.00000  Uiso   1.00
H513   H     0.44425   0.91786   0.18334   0.00000  Uiso   1.00
O514   O     0.40669   0.96863   0.18730   0.00000  Uiso   1.00
C515   C     0.45449   0.71457   0.18202   0.00000  Uiso   1.00
H516   H     0.43851   0.74542   0.18784   0.00000  Uiso   1.00
O517   O     0.45484   0.70027   0.14388   0.00000  Uiso   1.00
C518   C     0.55925   0.95289   0.30556   0.00000  Uiso   1.00
H519   H     0.55586   0.91853   0.31529   0.00000  Uiso   1.00
O520   O     0.59201   0.97158   0.31620   0.00000  Uiso   1.00
C521   C     0.37190   0.74749   0.25334   0.00000  Uiso   1.00
N522   N     0.38639   0.71247   0.25879   0.00000  Uiso   1.00
C523   C     0.62792   0.91726   0.23108   0.00000  Uiso   1.00
N524   N     0.61378   0.95131   0.22036   0.00000  Uiso   1.00
C525   C     0.62337   0.75161   0.22101   0.00000  Uiso   1.00
N526   N     0.60664   0.71921   0.20822   0.00000  Uiso   1.00
C527   C     0.37368   0.91409   0.27443   0.00000  Uiso   1.00
N528   N     0.38897   0.94637   0.28948   0.00000  Uiso   1.00
C529   C     0.75338   0.83299   0.25268   0.00000  Uiso   1.00
C530   C     0.91288   0.83354   0.24550   0.00000  Uiso   1.00
C531   C     0.83325   0.83330   0.16400   0.00000  Uiso   1.00
C532   C     0.83348   0.83334   0.33600   0.00000  Uiso   1.00
C533   C     0.85723   0.69110   0.28085   0.00000  Uiso   1.00
C534   C     0.80680   0.97575   0.22157   0.00000  Uiso   1.00
C535   C     0.80954   0.69038   0.21906   0.00000  Uiso   1.00
C536   C     0.85983   0.97648   0.27855   0.00000  Uiso   1.00
C537   C     0.68650   0.79132   0.24693   0.00000  Uiso   1.00
C538   C     0.97937   0.87445   0.24375   0.00000  Uiso   1.00
C539   C     0.97774   0.79252   0.23689   0.00000  Uiso   1.00
C540   C     0.68760   0.87338   0.25601   0.00000  Uiso   1.00
C541   C     0.81980   0.87081   0.04629   0.00000  Uiso   1.00
C542   C     0.81991   0.79513   0.45222   0.00000  Uiso   1.00
C543   C     0.84864   0.87107   0.45370   0.00000  Uiso   1.00
C544   C     0.84834   0.79552   0.04797   0.00000  Uiso   1.00
C545   C     0.81970   0.87097   0.09228   0.00000  Uiso   1.00
C546   C     0.81982   0.79514   0.40621   0.00000  Uiso   1.00
C547   C     0.84807   0.87131   0.40767   0.00000  Uiso   1.00
C548   C     0.84774   0.79545   0.09394   0.00000  Uiso   1.00
C549   C     0.83352   0.83323   0.11610   0.00000  Uiso   1.00
C550   C     0.83375   0.83330   0.38393   0.00000  Uiso   1.00
C551   C     0.83425   0.83315   0.02412   0.00000  Uiso   1.00
C552   C     0.83438   0.83307   0.47598   0.00000  Uiso   1.00
C553   C     0.95701   0.83373   0.23978   0.00000  Uiso   1.00
C554   C     0.70868   0.83223   0.25401   0.00000  Uiso   1.00
H555   H     0.80825   0.89979   0.02803   0.00000  Uiso   1.00
H556   H     0.80825   0.76584   0.46920   0.00000  Uiso   1.00
H557   H     0.86044   0.90032   0.47189   0.00000  Uiso   1.00
H558   H     0.86010   0.76649   0.03107   0.00000  Uiso   1.00
H559   H     0.80835   0.90026   0.10907   0.00000  Uiso   1.00
H560   H     0.80834   0.76569   0.38811   0.00000  Uiso   1.00
H561   H     0.85924   0.90087   0.39077   0.00000  Uiso   1.00
H562   H     0.85889   0.76623   0.11212   0.00000  Uiso   1.00
N563   N     0.83333   0.95240   0.25000   0.00000  Uiso   1.00
N564   N     0.83333   0.71427   0.25000   0.00000  Uiso   1.00
O565   O     0.77226   0.87154   0.25000   0.00000  Uiso   1.00
O566   O     0.89441   0.79513   0.25000   0.00000  Uiso   1.00
O567   O     0.89441   0.87154   0.25000   0.00000  Uiso   1.00
O568   O     0.77226   0.79513   0.24999   0.00000  Uiso   1.00
O569   O     0.83333   0.87155   0.18453   0.00000  Uiso   1.00
O570   O     0.83334   0.79511   0.31547   0.00000  Uiso   1.00
O571   O     0.83334   0.87155   0.31547   0.00000  Uiso   1.00
O572   O     0.83333   0.79511   0.18453   0.00000  Uiso   1.00
Zn573  Zn    0.83333   0.88437   0.25000   0.00000  Uiso   1.00
Zn574  Zn    0.83333   0.78229   0.25000   0.00000  Uiso   1.00
C575   C     0.87903   0.71602   0.31772   0.00000  Uiso   1.00
H576   H     0.89681   0.74599   0.31149   0.00000  Uiso   1.00
O577   O     0.87682   0.70319   0.35619   0.00000  Uiso   1.00
C578   C     0.77361   0.95142   0.19518   0.00000  Uiso   1.00
H579   H     0.77758   0.91786   0.18334   0.00000  Uiso   1.00
O580   O     0.74003   0.96863   0.18730   0.00000  Uiso   1.00
C581   C     0.78783   0.71457   0.18202   0.00000  Uiso   1.00
H582   H     0.77184   0.74542   0.18784   0.00000  Uiso   1.00
O583   O     0.78817   0.70027   0.14388   0.00000  Uiso   1.00
C584   C     0.89258   0.95289   0.30556   0.00000  Uiso   1.00
H585   H     0.88920   0.91853   0.31529   0.00000  Uiso   1.00
O586   O     0.92534   0.97158   0.31620   0.00000  Uiso   1.00
C587   C     0.70523   0.74749   0.25334   0.00000  Uiso   1.00
N588   N     0.71973   0.71247   0.25879   0.00000  Uiso   1.00
C589   C     0.96126   0.91726   0.23108   0.00000  Uiso   1.00
N590   N     0.94712   0.95131   0.22036   0.00000  Uiso   1.00
C591   C     0.95671   0.75161   0.22101   0.00000  Uiso   1.00
N592   N     0.93997   0.71921   0.20822   0.00000  Uiso   1.00
C593   C     0.70701   0.91409   0.27443   0.00000  Uiso   1.00
N594   N     0.72230   0.94637   0.28948   0.00000  Uiso   1.00
C595   C     0.08671   0.16633   0.75268   0.00000  Uiso   1.00
C596   C     0.24621   0.16687   0.74550   0.00000  Uiso   1.00
C597   C     0.16659   0.16664   0.66400   0.00000  Uiso   1.00
C598   C     0.16682   0.16668   0.83600   0.00000  Uiso   1.00
C599   C     0.19057   0.02443   0.78085   0.00000  Uiso   1.00
C600   C     0.14014   0.30909   0.72157   0.00000  Uiso   1.00
C601   C     0.14288   0.02371   0.71906   0.00000  Uiso   1.00
C602   C     0.19317   0.30982   0.77855   0.00000  Uiso   1.00
C603   C     0.01984   0.12465   0.74693   0.00000  Uiso   1.00
C604   C     0.31270   0.20779   0.74375   0.00000  Uiso   1.00
C605   C     0.31107   0.12585   0.73689   0.00000  Uiso   1.00
C606   C     0.02094   0.20672   0.75601   0.00000  Uiso   1.00
C607   C     0.15314   0.20414   0.54629   0.00000  Uiso   1.00
C608   C     0.15324   0.12847   0.95222   0.00000  Uiso   1.00
C609   C     0.18197   0.20440   0.95370   0.00000  Uiso   1.00
C610   C     0.18167   0.12886   0.54797   0.00000  Uiso   1.00
C611   C     0.15303   0.20430   0.59228   0.00000  Uiso   1.00
C612   C     0.15315   0.12848   0.90621   0.00000  Uiso   1.00
C613   C     0.18140   0.20464   0.90767   0.00000  Uiso   1.00
C614   C     0.18107   0.12878   0.59394   0.00000  Uiso   1.00
C615   C     0.16685   0.16656   0.61610   0.00000  Uiso   1.00
C616   C     0.16708   0.16663   0.88393   0.00000  Uiso   1.00
C617   C     0.16758   0.16648   0.52412   0.00000  Uiso   1.00
C618   C     0.16772   0.16640   0.97598   0.00000  Uiso   1.00
C619   C     0.29035   0.16706   0.73978   0.00000  Uiso   1.00
C620   C     0.04201   0.16556   0.75401   0.00000  Uiso   1.00
H621   H     0.14159   0.23312   0.52803   0.00000  Uiso   1.00
H622   H     0.14158   0.09917   0.96920   0.00000  Uiso   1.00
H623   H     0.19377   0.23366   0.97189   0.00000  Uiso   1.00
H624   H     0.19343   0.09983   0.53107   0.00000  Uiso   1.00
H625   H     0.14169   0.23359   0.60907   0.00000  Uiso   1.00
H626   H     0.14168   0.09902   0.88811   0.00000  Uiso   1.00
H627   H     0.19258   0.23420   0.89077   0.00000  Uiso   1.00
H628   H     0.19222   0.09956   0.61212   0.00000  Uiso   1.00
N629   N     0.16667   0.28573   0.75000   0.00000  Uiso   1.00
N630   N     0.16667   0.04760   0.75000   0.00000  Uiso   1.00
O631   O     0.10559   0.20487   0.75000   0.00000  Uiso   1.00
O632   O     0.22774   0.12846   0.75000   0.00000  Uiso   1.00
O633   O     0.22774   0.20487   0.75000   0.00000  Uiso   1.00
O634   O     0.10559   0.12846   0.74999   0.00000  Uiso   1.00
O635   O     0.16666   0.20489   0.68453   0.00000  Uiso   1.00
O636   O     0.16667   0.12845   0.81547   0.00000  Uiso   1.00
O637   O     0.16667   0.20489   0.81547   0.00000  Uiso   1.00
O638   O     0.16666   0.12845   0.68453   0.00000  Uiso   1.00
Zn639  Zn    0.16667   0.21771   0.75000   0.00000  Uiso   1.00
Zn640  Zn    0.16667   0.11563   0.75000   0.00000  Uiso   1.00
C641   C     0.21236   0.04935   0.81772   0.00000  Uiso   1.00
H642   H     0.23014   0.07933   0.81149   0.00000  Uiso   1.00
O643   O     0.21015   0.03652   0.85619   0.00000  Uiso   1.00
C644   C     0.10694   0.28476   0.69518   0.00000  Uiso   1.00
H645   H     0.11091   0.25119   0.68334   0.00000  Uiso   1.00
O646   O     0.07336   0.30197   0.68730   0.00000  Uiso   1.00
C647   C     0.12116   0.04790   0.68202   0.00000  Uiso   1.00
H648   H     0.10518   0.07875   0.68784   0.00000  Uiso   1.00
O649   O     0.12151   0.03361   0.64388   0.00000  Uiso   1.00
C650   C     0.22592   0.28622   0.80556   0.00000  Uiso   1.00
H651   H     0.22253   0.25186   0.81529   0.00000  Uiso   1.00
O652   O     0.25867   0.30492   0.81620   0.00000  Uiso   1.00
C653   C     0.03857   0.08082   0.75334   0.00000  Uiso   1.00
N654   N     0.05306   0.04580   0.75879   0.00000  Uiso   1.00
C655   C     0.29459   0.25059   0.73108   0.00000  Uiso   1.00
N656   N     0.28045   0.28464   0.72036   0.00000  Uiso   1.00
C657   C     0.29004   0.08495   0.72101   0.00000  Uiso   1.00
N658   N     0.27331   0.05254   0.70822   0.00000  Uiso   1.00
C659   C     0.04034   0.24742   0.77443   0.00000  Uiso   1.00
N660   N     0.05564   0.27970   0.78948   0.00000  Uiso   1.00
C661   C     0.42005   0.16633   0.75268   0.00000  Uiso   1.00
C662   C     0.57954   0.16687   0.74550   0.00000  Uiso   1.00
C663   C     0.49992   0.16664   0.66400   0.00000  Uiso   1.00
C664   C     0.50015   0.16668   0.83600   0.00000  Uiso   1.00
C665   C     0.52390   0.02443   0.78085   0.00000  Uiso   1.00
C666   C     0.47347   0.30909   0.72157   0.00000  Uiso   1.00
C667   C     0.47621   0.02371   0.71906   0.00000  Uiso   1.00
C668   C     0.52650   0.30982   0.77855   0.00000  Uiso   1.00
C669   C     0.35317   0.12465   0.74693   0.00000  Uiso   1.00
C670   C     0.64603   0.20779   0.74375   0.00000  Uiso   1.00
C671   C     0.64441   0.12585   0.73689   0.00000  Uiso   1.00
C672   C     0.35427   0.20672   0.75601   0.00000  Uiso   1.00
C673   C     0.48647   0.20414   0.54629   0.00000  Uiso   1.00
C674   C     0.48657   0.12847   0.95222   0.00000  Uiso   1.00
C675   C     0.51531   0.20440   0.95370   0.00000  Uiso   1.00
C676   C     0.51501   0.12886   0.54797   0.00000  Uiso   1.00
C677   C     0.48636   0.20430   0.59228   0.00000  Uiso   1.00
C678   C     0.48649   0.12848   0.90621   0.00000  Uiso   1.00
C679   C     0.51473   0.20464   0.90767   0.00000  Uiso   1.00
C680   C     0.51441   0.12878   0.59394   0.00000  Uiso   1.00
C681   C     0.50019   0.16656   0.61610   0.00000  Uiso   1.00
C682   C     0.50042   0.16663   0.88393   0.00000  Uiso   1.00
C683   C     0.50091   0.16648   0.52412   0.00000  Uiso   1.00
C684   C     0.50105   0.16640   0.97598   0.00000  Uiso   1.00
C685   C     0.62368   0.16706   0.73978   0.00000  Uiso   1.00
C686   C     0.37535   0.16556   0.75401   0.00000  Uiso   1.00
H687   H     0.47492   0.23312   0.52803   0.00000  Uiso   1.00
H688   H     0.47491   0.09917   0.96920   0.00000  Uiso   1.00
H689   H     0.52710   0.23366   0.97189   0.00000  Uiso   1.00
H690   H     0.52676   0.09983   0.53107   0.00000  Uiso   1.00
H691   H     0.47502   0.23359   0.60907   0.00000  Uiso   1.00
H692   H     0.47501   0.09902   0.88811   0.00000  Uiso   1.00
H693   H     0.52591   0.23420   0.89077   0.00000  Uiso   1.00
H694   H     0.52556   0.09956   0.61212   0.00000  Uiso   1.00
N695   N     0.50000   0.28573   0.75000   0.00000  Uiso   1.00
N696   N     0.50000   0.04760   0.75000   0.00000  Uiso   1.00
O697   O     0.43892   0.20487   0.75000   0.00000  Uiso   1.00
O698   O     0.56108   0.12846   0.75000   0.00000  Uiso   1.00
O699   O     0.56108   0.20487   0.75000   0.00000  Uiso   1.00
O700   O     0.43892   0.12846   0.74999   0.00000  Uiso   1.00
O701   O     0.50000   0.20489   0.68453   0.00000  Uiso   1.00
O702   O     0.50000   0.12845   0.81547   0.00000  Uiso   1.00
O703   O     0.50000   0.20489   0.81547   0.00000  Uiso   1.00
O704   O     0.50000   0.12845   0.68453   0.00000  Uiso   1.00
Zn705  Zn    0.50000   0.21771   0.75000   0.00000  Uiso   1.00
Zn706  Zn    0.50000   0.11563   0.75000   0.00000  Uiso   1.00
C707   C     0.54569   0.04935   0.81772   0.00000  Uiso   1.00
H708   H     0.56347   0.07933   0.81149   0.00000  Uiso   1.00
O709   O     0.54348   0.03652   0.85619   0.00000  Uiso   1.00
C710   C     0.44028   0.28476   0.69518   0.00000  Uiso   1.00
H711   H     0.44425   0.25119   0.68334   0.00000  Uiso   1.00
O712   O     0.40669   0.30197   0.68730   0.00000  Uiso   1.00
C713   C     0.45449   0.04790   0.68202   0.00000  Uiso   1.00
H714   H     0.43851   0.07875   0.68784   0.00000  Uiso   1.00
O715   O     0.45484   0.03361   0.64388   0.00000  Uiso   1.00
C716   C     0.55925   0.28622   0.80556   0.00000  Uiso   1.00
H717   H     0.55586   0.25186   0.81529   0.00000  Uiso   1.00
O718   O     0.59201   0.30492   0.81620   0.00000  Uiso   1.00
C719   C     0.37190   0.08082   0.75334   0.00000  Uiso   1.00
N720   N     0.38639   0.04580   0.75879   0.00000  Uiso   1.00
C721   C     0.62792   0.25059   0.73108   0.00000  Uiso   1.00
N722   N     0.61378   0.28464   0.72036   0.00000  Uiso   1.00
C723   C     0.62337   0.08495   0.72101   0.00000  Uiso   1.00
N724   N     0.60664   0.05254   0.70822   0.00000  Uiso   1.00
C725   C     0.37368   0.24742   0.77443   0.00000  Uiso   1.00
N726   N     0.38897   0.27970   0.78948   0.00000  Uiso   1.00
C727   C     0.75338   0.16633   0.75268   0.00000  Uiso   1.00
C728   C     0.91288   0.16687   0.74550   0.00000  Uiso   1.00
C729   C     0.83325   0.16664   0.66400   0.00000  Uiso   1.00
C730   C     0.83348   0.16668   0.83600   0.00000  Uiso   1.00
C731   C     0.85723   0.02443   0.78085   0.00000  Uiso   1.00
C732   C     0.80680   0.30909   0.72157   0.00000  Uiso   1.00
C733   C     0.80954   0.02371   0.71906   0.00000  Uiso   1.00
C734   C     0.85983   0.30982   0.77855   0.00000  Uiso   1.00
C735   C     0.68650   0.12465   0.74693   0.00000  Uiso   1.00
C736   C     0.97937   0.20779   0.74375   0.00000  Uiso   1.00
C737   C     0.97774   0.12585   0.73689   0.00000  Uiso   1.00
C738   C     0.68760   0.20672   0.75601   0.00000  Uiso   1.00
C739   C     0.81980   0.20414   0.54629   0.00000  Uiso   1.00
C740   C     0.81991   0.12847   0.95222   0.00000  Uiso   1.00
C741   C     0.84864   0.20440   0.95370   0.00000  Uiso   1.00
C742   C     0.84834   0.12886   0.54797   0.00000  Uiso   1.00
C743   C     0.81970   0.20430   0.59228   0.00000  Uiso   1.00
C744   C     0.81982   0.12848   0.90621   0.00000  Uiso   1.00
C745   C     0.84807   0.20464   0.90767   0.00000  Uiso   1.00
C746   C     0.84774   0.12878   0.59394   0.00000  Uiso   1.00
C747   C     0.83352   0.16656   0.61610   0.00000  Uiso   1.00
C748   C     0.83375   0.16663   0.88393   0.00000  Uiso   1.00
C749   C     0.83425   0.16648   0.52412   0.00000  Uiso   1.00
C750   C     0.83438   0.16640   0.97598   0.00000  Uiso   1.00
C751   C     0.95701   0.16706   0.73978   0.00000  Uiso   1.00
C752   C     0.70868   0.16556   0.75401   0.00000  Uiso   1.00
H753   H     0.80825   0.23312   0.52803   0.00000  Uiso   1.00
H754   H     0.80825   0.09917   0.96920   0.00000  Uiso   1.00
H755   H     0.86044   0.23366   0.97189   0.00000  Uiso   1.00
H756   H     0.86010   0.09983   0.53107   0.00000  Uiso   1.00
H757   H     0.80835   0.23359   0.60907   0.00000  Uiso   1.00
H758   H     0.80834   0.09902   0.88811   0.00000  Uiso   1.00
H759   H     0.85924   0.23420   0.89077   0.00000  Uiso   1.00
H760   H     0.85889   0.09956   0.61212   0.00000  Uiso   1.00
N761   N     0.83333   0.28573   0.75000   0.00000  Uiso   1.00
N762   N     0.83333   0.04760   0.75000   0.00000  Uiso   1.00
O763   O     0.77226   0.20487   0.75000   0.00000  Uiso   1.00
O764   O     0.89441   0.12846   0.75000   0.00000  Uiso   1.00
O765   O     0.89441   0.20487   0.75000   0.00000  Uiso   1.00
O766   O     0.77226   0.12846   0.74999   0.00000  Uiso   1.00
O767   O     0.83333   0.20489   0.68453   0.00000  Uiso   1.00
O768   O     0.83334   0.12845   0.81547   0.00000  Uiso   1.00
O769   O     0.83334   0.20489   0.81547   0.00000  Uiso   1.00
O770   O     0.83333   0.12845   0.68453   0.00000  Uiso   1.00
Zn771  Zn    0.83333   0.21771   0.75000   0.00000  Uiso   1.00
Zn772  Zn    0.83333   0.11563   0.75000   0.00000  Uiso   1.00
C773   C     0.87903   0.04935   0.81772   0.00000  Uiso   1.00
H774   H     0.89681   0.07933   0.81149   0.00000  Uiso   1.00
O775   O     0.87682   0.03652   0.85619   0.00000  Uiso   1.00
C776   C     0.77361   0.28476   0.69518   0.00000  Uiso   1.00
H777   H     0.77758   0.25119   0.68334   0.00000  Uiso   1.00
O778   O     0.74003   0.30197   0.68730   0.00000  Uiso   1.00
C779   C     0.78783   0.04790   0.68202   0.00000  Uiso   1.00
H780   H     0.77184   0.07875   0.68784   0.00000  Uiso   1.00
O781   O     0.78817   0.03361   0.64388   0.00000  Uiso   1.00
C782   C     0.89258   0.28622   0.80556   0.00000  Uiso   1.00
H783   H     0.88920   0.25186   0.81529   0.00000  Uiso   1.00
O784   O     0.92534   0.30492   0.81620   0.00000  Uiso   1.00
C785   C     0.70523   0.08082   0.75334   0.00000  Uiso   1.00
N786   N     0.71973   0.04580   0.75879   0.00000  Uiso   1.00
C787   C     0.96126   0.25059   0.73108   0.00000  Uiso   1.00
N788   N     0.94712   0.28464   0.72036   0.00000  Uiso   1.00
C789   C     0.95671   0.08495   0.72101   0.00000  Uiso   1.00
N790   N     0.93997   0.05254   0.70822   0.00000  Uiso   1.00
C791   C     0.70701   0.24742   0.77443   0.00000  Uiso   1.00
N792   N     0.72230   0.27970   0.78948   0.00000  Uiso   1.00
C793   C     0.08671   0.49966   0.75268   0.00000  Uiso   1.00
C794   C     0.24621   0.50021   0.74550   0.00000  Uiso   1.00
C795   C     0.16659   0.49997   0.66400   0.00000  Uiso   1.00
C796   C     0.16682   0.50001   0.83600   0.00000  Uiso   1.00
C797   C     0.19057   0.35776   0.78085   0.00000  Uiso   1.00
C798   C     0.14014   0.64242   0.72157   0.00000  Uiso   1.00
C799   C     0.14288   0.35705   0.71906   0.00000  Uiso   1.00
C800   C     0.19317   0.64315   0.77855   0.00000  Uiso   1.00
C801   C     0.01984   0.45798   0.74693   0.00000  Uiso   1.00
C802   C     0.31270   0.54112   0.74375   0.00000  Uiso   1.00
C803   C     0.31107   0.45918   0.73689   0.00000  Uiso   1.00
C804   C     0.02094   0.54005   0.75601   0.00000  Uiso   1.00
C805   C     0.15314   0.53747   0.54629   0.00000  Uiso   1.00
C806   C     0.15324   0.46180   0.95222   0.00000  Uiso   1.00
C807   C     0.18197   0.53774   0.95370   0.00000  Uiso   1.00
C808   C     0.18167   0.46219   0.54797   0.00000  Uiso   1.00
C809   C     0.15303   0.53764   0.59228   0.00000  Uiso   1.00
C810   C     0.15315   0.46181   0.90621   0.00000  Uiso   1.00
C811   C     0.18140   0.53797   0.90767   0.00000  Uiso   1.00
C812   C     0.18107   0.46211   0.59394   0.00000  Uiso   1.00
C813   C     0.16685   0.49989   0.61610   0.00000  Uiso   1.00
C814   C     0.16708   0.49997   0.88393   0.00000  Uiso   1.00
C815   C     0.16758   0.49982   0.52412   0.00000  Uiso   1.00
C816   C     0.16772   0.49973   0.97598   0.00000  Uiso   1.00
C817   C     0.29035   0.50040   0.73978   0.00000  Uiso   1.00
C818   C     0.04201   0.49889   0.75401   0.00000  Uiso   1.00
H819   H     0.14159   0.56646   0.52803   0.00000  Uiso   1.00
H820   H     0.14158   0.43251   0.96920   0.00000  Uiso   1.00
H821   H     0.19377   0.56699   0.97189   0.00000  Uiso   1.00
H822   H     0.19343   0.43316   0.53107   0.00000  Uiso   1.00
H823   H     0.14169   0.56693   0.60907   0.00000  Uiso   1.00
H824   H     0.14168   0.43236   0.88811   0.00000  Uiso   1.00
H825   H     0.19258   0.56754   0.89077   0.00000  Uiso   1.00
H826   H     0.19222   0.43290   0.61212   0.00000  Uiso   1.00
N827   N     0.16667   0.61907   0.75000   0.00000  Uiso   1.00
N828   N     0.16667   0.38093   0.75000   0.00000  Uiso   1.00
O829   O     0.10559   0.53821   0.75000   0.00000  Uiso   1.00
O830   O     0.22774   0.46179   0.75000   0.00000  Uiso   1.00
O831   O     0.22774   0.53821   0.75000   0.00000  Uiso   1.00
O832   O     0.10559   0.46179   0.74999   0.00000  Uiso   1.00
O833   O     0.16666   0.53822   0.68453   0.00000  Uiso   1.00
O834   O     0.16667   0.46178   0.81547   0.00000  Uiso   1.00
O835   O     0.16667   0.53822   0.81547   0.00000  Uiso   1.00
O836   O     0.16666   0.46178   0.68453   0.00000  Uiso   1.00
Zn837  Zn    0.16667   0.55104   0.75000   0.00000  Uiso   1.00
Zn838  Zn    0.16667   0.44896   0.75000   0.00000  Uiso   1.00
C839   C     0.21236   0.38268   0.81772   0.00000  Uiso   1.00
H840   H     0.23014   0.41266   0.81149   0.00000  Uiso   1.00
O841   O     0.21015   0.36985   0.85619   0.00000  Uiso   1.00
C842   C     0.10694   0.61809   0.69518   0.00000  Uiso   1.00
H843   H     0.11091   0.58453   0.68334   0.00000  Uiso   1.00
O844   O     0.07336   0.63530   0.68730   0.00000  Uiso   1.00
C845   C     0.12116   0.38124   0.68202   0.00000  Uiso   1.00
H846   H     0.10518   0.41208   0.68784   0.00000  Uiso   1.00
O847   O     0.12151   0.36694   0.64388   0.00000  Uiso   1.00
C848   C     0.22592   0.61956   0.80556   0.00000  Uiso   1.00
H849   H     0.22253   0.58519   0.81529   0.00000  Uiso   1.00
O850   O     0.25867   0.63825   0.81620   0.00000  Uiso   1.00
C851   C     0.03857   0.41415   0.75334   0.00000  Uiso   1.00
N852   N     0.05306   0.37913   0.75879   0.00000  Uiso   1.00
C853   C     0.29459   0.58393   0.73108   0.00000  Uiso   1.00
N854   N     0.28045   0.61797   0.72036   0.00000  Uiso   1.00
C855   C     0.29004   0.41828   0.72101   0.00000  Uiso   1.00
N856   N     0.27331   0.38587   0.70822   0.00000  Uiso   1.00
C857   C     0.04034   0.58075   0.77443   0.00000  Uiso   1.00
N858   N     0.05564   0.61303   0.78948   0.00000  Uiso   1.00
C859   C     0.42005   0.49966   0.75268   0.00000  Uiso   1.00
C860   C     0.57954   0.50021   0.74550   0.00000  Uiso   1.00
C861   C     0.49992   0.49997   0.66400   0.00000  Uiso   1.00
C862   C     0.50015   0.50001   0.83600   0.00000  Uiso   1.00
C863   C     0.52390   0.35776   0.78085   0.00000  Uiso   1.00
C864   C     0.47347   0.64242   0.72157   0.00000  Uiso   1.00
C865   C     0.47621   0.35705   0.71906   0.00000  Uiso   1.00
C866   C     0.52650   0.64315   0.77855   0.00000  Uiso   1.00
C867   C     0.35317   0.45798   0.74693   0.00000  Uiso   1.00
C868   C     0.64603   0.54112   0.74375   0.00000  Uiso   1.00
C869   C     0.64441   0.45918   0.73689   0.00000  Uiso   1.00
C870   C     0.35427   0.54005   0.75601   0.00000  Uiso   1.00
C871   C     0.48647   0.53747   0.54629   0.00000  Uiso   1.00
C872   C     0.48657   0.46180   0.95222   0.00000  Uiso   1.00
C873   C     0.51531   0.53774   0.95370   0.00000  Uiso   1.00
C874   C     0.51501   0.46219   0.54797   0.00000  Uiso   1.00
C875   C     0.48636   0.53764   0.59228   0.00000  Uiso   1.00
C876   C     0.48649   0.46181   0.90621   0.00000  Uiso   1.00
C877   C     0.51473   0.53797   0.90767   0.00000  Uiso   1.00
C878   C     0.51441   0.46211   0.59394   0.00000  Uiso   1.00
C879   C     0.50019   0.49989   0.61610   0.00000  Uiso   1.00
C880   C     0.50042   0.49997   0.88393   0.00000  Uiso   1.00
C881   C     0.50091   0.49982   0.52412   0.00000  Uiso   1.00
C882   C     0.50105   0.49973   0.97598   0.00000  Uiso   1.00
C883   C     0.62368   0.50040   0.73978   0.00000  Uiso   1.00
C884   C     0.37535   0.49889   0.75401   0.00000  Uiso   1.00
H885   H     0.47492   0.56646   0.52803   0.00000  Uiso   1.00
H886   H     0.47491   0.43251   0.96920   0.00000  Uiso   1.00
H887   H     0.52710   0.56699   0.97189   0.00000  Uiso   1.00
H888   H     0.52676   0.43316   0.53107   0.00000  Uiso   1.00
H889   H     0.47502   0.56693   0.60907   0.00000  Uiso   1.00
H890   H     0.47501   0.43236   0.88811   0.00000  Uiso   1.00
H891   H     0.52591   0.56754   0.89077   0.00000  Uiso   1.00
H892   H     0.52556   0.43290   0.61212   0.00000  Uiso   1.00
N893   N     0.50000   0.61907   0.75000   0.00000  Uiso   1.00
N894   N     0.50000   0.38093   0.75000   0.00000  Uiso   1.00
O895   O     0.43892   0.53821   0.75000   0.00000  Uiso   1.00
O896   O     0.56108   0.46179   0.75000   0.00000  Uiso   1.00
O897   O     0.56108   0.53821   0.75000   0.00000  Uiso   1.00
O898   O     0.43892   0.46179   0.74999   0.00000  Uiso   1.00
O899   O     0.50000   0.53822   0.68453   0.00000  Uiso   1.00
O900   O     0.50000   0.46178   0.81547   0.00000  Uiso   1.00
O901   O     0.50000   0.53822   0.81547   0.00000  Uiso   1.00
O902   O     0.50000   0.46178   0.68453   0.00000  Uiso   1.00
Zn903  Zn    0.50000   0.55104   0.75000   0.00000  Uiso   1.00
Zn904  Zn    0.50000   0.44896   0.75000   0.00000  Uiso   1.00
C905   C     0.54569   0.38268   0.81772   0.00000  Uiso   1.00
H906   H     0.56347   0.41266   0.81149   0.00000  Uiso   1.00
O907   O     0.54348   0.36985   0.85619   0.00000  Uiso   1.00
C908   C     0.44028   0.61809   0.69518   0.00000  Uiso   1.00
H909   H     0.44425   0.58453   0.68334   0.00000  Uiso   1.00
O910   O     0.40669   0.63530   0.68730   0.00000  Uiso   1.00
C911   C     0.45449   0.38124   0.68202   0.00000  Uiso   1.00
H912   H     0.43851   0.41208   0.68784   0.00000  Uiso   1.00
O913   O     0.45484   0.36694   0.64388   0.00000  Uiso   1.00
C914   C     0.55925   0.61956   0.80556   0.00000  Uiso   1.00
H915   H     0.55586   0.58519   0.81529   0.00000  Uiso   1.00
O916   O     0.59201   0.63825   0.81620   0.00000  Uiso   1.00
C917   C     0.37190   0.41415   0.75334   0.00000  Uiso   1.00
N918   N     0.38639   0.37913   0.75879   0.00000  Uiso   1.00
C919   C     0.62792   0.58393   0.73108   0.00000  Uiso   1.00
N920   N     0.61378   0.61797   0.72036   0.00000  Uiso   1.00
C921   C     0.62337   0.41828   0.72101   0.00000  Uiso   1.00
N922   N     0.60664   0.38587   0.70822   0.00000  Uiso   1.00
C923   C     0.37368   0.58075   0.77443   0.00000  Uiso   1.00
N924   N     0.38897   0.61303   0.78948   0.00000  Uiso   1.00
C925   C     0.75338   0.49966   0.75268   0.00000  Uiso   1.00
C926   C     0.91288   0.50021   0.74550   0.00000  Uiso   1.00
C927   C     0.83325   0.49997   0.66400   0.00000  Uiso   1.00
C928   C     0.83348   0.50001   0.83600   0.00000  Uiso   1.00
C929   C     0.85723   0.35776   0.78085   0.00000  Uiso   1.00
C930   C     0.80680   0.64242   0.72157   0.00000  Uiso   1.00
C931   C     0.80954   0.35705   0.71906   0.00000  Uiso   1.00
C932   C     0.85983   0.64315   0.77855   0.00000  Uiso   1.00
C933   C     0.68650   0.45798   0.74693   0.00000  Uiso   1.00
C934   C     0.97937   0.54112   0.74375   0.00000  Uiso   1.00
C935   C     0.97774   0.45918   0.73689   0.00000  Uiso   1.00
C936   C     0.68760   0.54005   0.75601   0.00000  Uiso   1.00
C937   C     0.81980   0.53747   0.54629   0.00000  Uiso   1.00
C938   C     0.81991   0.46180   0.95222   0.00000  Uiso   1.00
C939   C     0.84864   0.53774   0.95370   0.00000  Uiso   1.00
C940   C     0.84834   0.46219   0.54797   0.00000  Uiso   1.00
C941   C     0.81970   0.53764   0.59228   0.00000  Uiso   1.00
C942   C     0.81982   0.46181   0.90621   0.00000  Uiso   1.00
C943   C     0.84807   0.53797   0.90767   0.00000  Uiso   1.00
C944   C     0.84774   0.46211   0.59394   0.00000  Uiso   1.00
C945   C     0.83352   0.49989   0.61610   0.00000  Uiso   1.00
C946   C     0.83375   0.49997   0.88393   0.00000  Uiso   1.00
C947   C     0.83425   0.49982   0.52412   0.00000  Uiso   1.00
C948   C     0.83438   0.49973   0.97598   0.00000  Uiso   1.00
C949   C     0.95701   0.50040   0.73978   0.00000  Uiso   1.00
C950   C     0.70868   0.49889   0.75401   0.00000  Uiso   1.00
H951   H     0.80825   0.56646   0.52803   0.00000  Uiso   1.00
H952   H     0.80825   0.43251   0.96920   0.00000  Uiso   1.00
H953   H     0.86044   0.56699   0.97189   0.00000  Uiso   1.00
H954   H     0.86010   0.43316   0.53107   0.00000  Uiso   1.00
H955   H     0.80835   0.56693   0.60907   0.00000  Uiso   1.00
H956   H     0.80834   0.43236   0.88811   0.00000  Uiso   1.00
H957   H     0.85924   0.56754   0.89077   0.00000  Uiso   1.00
H958   H     0.85889   0.43290   0.61212   0.00000  Uiso   1.00
N959   N     0.83333   0.61907   0.75000   0.00000  Uiso   1.00
N960   N     0.83333   0.38093   0.75000   0.00000  Uiso   1.00
O961   O     0.77226   0.53821   0.75000   0.00000  Uiso   1.00
O962   O     0.89441   0.46179   0.75000   0.00000  Uiso   1.00
O963   O     0.89441   0.53821   0.75000   0.00000  Uiso   1.00
O964   O     0.77226   0.46179   0.74999   0.00000  Uiso   1.00
O965   O     0.83333   0.53822   0.68453   0.00000  Uiso   1.00
O966   O     0.83334   0.46178   0.81547   0.00000  Uiso   1.00
O967   O     0.83334   0.53822   0.81547   0.00000  Uiso   1.00
O968   O     0.83333   0.46178   0.68453   0.00000  Uiso   1.00
Zn969  Zn    0.83333   0.55104   0.75000   0.00000  Uiso   1.00
Zn970  Zn    0.83333   0.44896   0.75000   0.00000  Uiso   1.00
C971   C     0.87903   0.38268   0.81772   0.00000  Uiso   1.00
H972   H     0.89681   0.41266   0.81149   0.00000  Uiso   1.00
O973   O     0.87682   0.36985   0.85619   0.00000  Uiso   1.00
C974   C     0.77361   0.61809   0.69518   0.00000  Uiso   1.00
H975   H     0.77758   0.58453   0.68334   0.00000  Uiso   1.00
O976   O     0.74003   0.63530   0.68730   0.00000  Uiso   1.00
C977   C     0.78783   0.38124   0.68202   0.00000  Uiso   1.00
H978   H     0.77184   0.41208   0.68784   0.00000  Uiso   1.00
O979   O     0.78817   0.36694   0.64388   0.00000  Uiso   1.00
C980   C     0.89258   0.61956   0.80556   0.00000  Uiso   1.00
H981   H     0.88920   0.58519   0.81529   0.00000  Uiso   1.00
O982   O     0.92534   0.63825   0.81620   0.00000  Uiso   1.00
C983   C     0.70523   0.41415   0.75334   0.00000  Uiso   1.00
N984   N     0.71973   0.37913   0.75879   0.00000  Uiso   1.00
C985   C     0.96126   0.58393   0.73108   0.00000  Uiso   1.00
N986   N     0.94712   0.61797   0.72036   0.00000  Uiso   1.00
C987   C     0.95671   0.41828   0.72101   0.00000  Uiso   1.00
N988   N     0.93997   0.38587   0.70822   0.00000  Uiso   1.00
C989   C     0.70701   0.58075   0.77443   0.00000  Uiso   1.00
N990   N     0.72230   0.61303   0.78948   0.00000  Uiso   1.00
C991   C     0.08671   0.83299   0.75268   0.00000  Uiso   1.00
C992   C     0.24621   0.83354   0.74550   0.00000  Uiso   1.00
C993   C     0.16659   0.83330   0.66400   0.00000  Uiso   1.00
C994   C     0.16682   0.83334   0.83600   0.00000  Uiso   1.00
C995   C     0.19057   0.69110   0.78085   0.00000  Uiso   1.00
C996   C     0.14014   0.97575   0.72157   0.00000  Uiso   1.00
C997   C     0.14288   0.69038   0.71906   0.00000  Uiso   1.00
C998   C     0.19317   0.97648   0.77855   0.00000  Uiso   1.00
C999   C     0.01984   0.79132   0.74693   0.00000  Uiso   1.00
C1000  C     0.31270   0.87445   0.74375   0.00000  Uiso   1.00
C1001  C     0.31107   0.79252   0.73689   0.00000  Uiso   1.00
C1002  C     0.02094   0.87338   0.75601   0.00000  Uiso   1.00
C1003  C     0.15314   0.87081   0.54629   0.00000  Uiso   1.00
C1004  C     0.15324   0.79513   0.95222   0.00000  Uiso   1.00
C1005  C     0.18197   0.87107   0.95370   0.00000  Uiso   1.00
C1006  C     0.18167   0.79552   0.54797   0.00000  Uiso   1.00
C1007  C     0.15303   0.87097   0.59228   0.00000  Uiso   1.00
C1008  C     0.15315   0.79514   0.90621   0.00000  Uiso   1.00
C1009  C     0.18140   0.87131   0.90767   0.00000  Uiso   1.00
C1010  C     0.18107   0.79545   0.59394   0.00000  Uiso   1.00
C1011  C     0.16685   0.83323   0.61610   0.00000  Uiso   1.00
C1012  C     0.16708   0.83330   0.88393   0.00000  Uiso   1.00
C1013  C     0.16758   0.83315   0.52412   0.00000  Uiso   1.00
C1014  C     0.16772   0.83307   0.97598   0.00000  Uiso   1.00
C1015  C     0.29035   0.83373   0.73978   0.00000  Uiso   1.00
C1016  C     0.04201   0.83223   0.75401   0.00000  Uiso   1.00
H1017  H     0.14159   0.89979   0.52803   0.00000  Uiso   1.00
H1018  H     0.14158   0.76584   0.96920   0.00000  Uiso   1.00
H1019  H     0.19377   0.90032   0.97189   0.00000  Uiso   1.00
H1020  H     0.19343   0.76649   0.53107   0.00000  Uiso   1.00
H1021  H     0.14169   0.90026   0.60907   0.00000  Uiso   1.00
H1022  H     0.14168   0.76569   0.88811   0.00000  Uiso   1.00
H1023  H     0.19258   0.90087   0.89077   0.00000  Uiso   1.00
H1024  H     0.19222   0.76623   0.61212   0.00000  Uiso   1.00
N1025  N     0.16667   0.95240   0.75000   0.00000  Uiso   1.00
N1026  N     0.16667   0.71427   0.75000   0.00000  Uiso   1.00
O1027  O     0.10559   0.87154   0.75000   0.00000  Uiso   1.00
O1028  O     0.22774   0.79513   0.75000   0.00000  Uiso   1.00
O1029  O     0.22774   0.87154   0.75000   0.00000  Uiso   1.00
O1030  O     0.10559   0.79513   0.74999   0.00000  Uiso   1.00
O1031  O     0.16666   0.87155   0.68453   0.00000  Uiso   1.00
O1032  O     0.16667   0.79511   0.81547   0.00000  Uiso   1.00
O1033  O     0.16667   0.87155   0.81547   0.00000  Uiso   1.00
O1034  O     0.16666   0.79511   0.68453   0.00000  Uiso   1.00
Zn1035 Zn    0.16667   0.88437   0.75000   0.00000  Uiso   1.00
Zn1036 Zn    0.16667   0.78229   0.75000   0.00000  Uiso   1.00
C1037  C     0.21236   0.71602   0.81772   0.00000  Uiso   1.00
H1038  H     0.23014   0.74599   0.81149   0.00000  Uiso   1.00
O1039  O     0.21015   0.70319   0.85619   0.00000  Uiso   1.00
C1040  C     0.10694   0.95142   0.69518   0.00000  Uiso   1.00
H1041  H     0.11091   0.91786   0.68334   0.00000  Uiso   1.00
O1042  O     0.07336   0.96863   0.68730   0.00000  Uiso   1.00
C1043  C     0.12116   0.71457   0.68202   0.00000  Uiso   1.00
H1044  H     0.10518   0.74542   0.68784   0.00000  Uiso   1.00
O1045  O     0.12151   0.70027   0.64388   0.00000  Uiso   1.00
C1046  C     0.22592   0.95289   0.80556   0.00000  Uiso   1.00
H1047  H     0.22253   0.91853   0.81529   0.00000  Uiso   1.00
O1048  O     0.25867   0.97158   0.81620   0.00000  Uiso   1.00
C1049  C     0.03857   0.74749   0.75334   0.00000  Uiso   1.00
N1050  N     0.05306   0.71247   0.75879   0.00000  Uiso   1.00
C1051  C     0.29459   0.91726   0.73108   0.00000  Uiso   1.00
N1052  N     0.28045   0.95131   0.72036   0.00000  Uiso   1.00
C1053  C     0.29004   0.75161   0.72101   0.00000  Uiso   1.00
N1054  N     0.27331   0.71921   0.70822   0.00000  Uiso   1.00
C1055  C     0.04034   0.91409   0.77443   0.00000  Uiso   1.00
N1056  N     0.05564   0.94637   0.78948   0.00000  Uiso   1.00
C1057  C     0.42005   0.83299   0.75268   0.00000  Uiso   1.00
C1058  C     0.57954   0.83354   0.74550   0.00000  Uiso   1.00
C1059  C     0.49992   0.83330   0.66400   0.00000  Uiso   1.00
C1060  C     0.50015   0.83334   0.83600   0.00000  Uiso   1.00
C1061  C     0.52390   0.69110   0.78085   0.00000  Uiso   1.00
C1062  C     0.47347   0.97575   0.72157   0.00000  Uiso   1.00
C1063  C     0.47621   0.69038   0.71906   0.00000  Uiso   1.00
C1064  C     0.52650   0.97648   0.77855   0.00000  Uiso   1.00
C1065  C     0.35317   0.79132   0.74693   0.00000  Uiso   1.00
C1066  C     0.64603   0.87445   0.74375   0.00000  Uiso   1.00
C1067  C     0.64441   0.79252   0.73689   0.00000  Uiso   1.00
C1068  C     0.35427   0.87338   0.75601   0.00000  Uiso   1.00
C1069  C     0.48647   0.87081   0.54629   0.00000  Uiso   1.00
C1070  C     0.48657   0.79513   0.95222   0.00000  Uiso   1.00
C1071  C     0.51531   0.87107   0.95370   0.00000  Uiso   1.00
C1072  C     0.51501   0.79552   0.54797   0.00000  Uiso   1.00
C1073  C     0.48636   0.87097   0.59228   0.00000  Uiso   1.00
C1074  C     0.48649   0.79514   0.90621   0.00000  Uiso   1.00
C1075  C     0.51473   0.87131   0.90767   0.00000  Uiso   1.00
C1076  C     0.51441   0.79545   0.59394   0.00000  Uiso   1.00
C1077  C     0.50019   0.83323   0.61610   0.00000  Uiso   1.00
C1078  C     0.50042   0.83330   0.88393   0.00000  Uiso   1.00
C1079  C     0.50091   0.83315   0.52412   0.00000  Uiso   1.00
C1080  C     0.50105   0.83307   0.97598   0.00000  Uiso   1.00
C1081  C     0.62368   0.83373   0.73978   0.00000  Uiso   1.00
C1082  C     0.37535   0.83223   0.75401   0.00000  Uiso   1.00
H1083  H     0.47492   0.89979   0.52803   0.00000  Uiso   1.00
H1084  H     0.47491   0.76584   0.96920   0.00000  Uiso   1.00
H1085  H     0.52710   0.90032   0.97189   0.00000  Uiso   1.00
H1086  H     0.52676   0.76649   0.53107   0.00000  Uiso   1.00
H1087  H     0.47502   0.90026   0.60907   0.00000  Uiso   1.00
H1088  H     0.47501   0.76569   0.88811   0.00000  Uiso   1.00
H1089  H     0.52591   0.90087   0.89077   0.00000  Uiso   1.00
H1090  H     0.52556   0.76623   0.61212   0.00000  Uiso   1.00
N1091  N     0.50000   0.95240   0.75000   0.00000  Uiso   1.00
N1092  N     0.50000   0.71427   0.75000   0.00000  Uiso   1.00
O1093  O     0.43892   0.87154   0.75000   0.00000  Uiso   1.00
O1094  O     0.56108   0.79513   0.75000   0.00000  Uiso   1.00
O1095  O     0.56108   0.87154   0.75000   0.00000  Uiso   1.00
O1096  O     0.43892   0.79513   0.74999   0.00000  Uiso   1.00
O1097  O     0.50000   0.87155   0.68453   0.00000  Uiso   1.00
O1098  O     0.50000   0.79511   0.81547   0.00000  Uiso   1.00
O1099  O     0.50000   0.87155   0.81547   0.00000  Uiso   1.00
O1100  O     0.50000   0.79511   0.68453   0.00000  Uiso   1.00
Zn1101 Zn    0.50000   0.88437   0.75000   0.00000  Uiso   1.00
Zn1102 Zn    0.50000   0.78229   0.75000   0.00000  Uiso   1.00
C1103  C     0.54569   0.71602   0.81772   0.00000  Uiso   1.00
H1104  H     0.56347   0.74599   0.81149   0.00000  Uiso   1.00
O1105  O     0.54348   0.70319   0.85619   0.00000  Uiso   1.00
C1106  C     0.44028   0.95142   0.69518   0.00000  Uiso   1.00
H1107  H     0.44425   0.91786   0.68334   0.00000  Uiso   1.00
O1108  O     0.40669   0.96863   0.68730   0.00000  Uiso   1.00
C1109  C     0.45449   0.71457   0.68202   0.00000  Uiso   1.00
H1110  H     0.43851   0.74542   0.68784   0.00000  Uiso   1.00
O1111  O     0.45484   0.70027   0.64388   0.00000  Uiso   1.00
C1112  C     0.55925   0.95289   0.80556   0.00000  Uiso   1.00
H1113  H     0.55586   0.91853   0.81529   0.00000  Uiso   1.00
O1114  O     0.59201   0.97158   0.81620   0.00000  Uiso   1.00
C1115  C     0.37190   0.74749   0.75334   0.00000  Uiso   1.00
N1116  N     0.38639   0.71247   0.75879   0.00000  Uiso   1.00
C1117  C     0.62792   0.91726   0.73108   0.00000  Uiso   1.00
N1118  N     0.61378   0.95131   0.72036   0.00000  Uiso   1.00
C1119  C     0.62337   0.75161   0.72101   0.00000  Uiso   1.00
N1120  N     0.60664   0.71921   0.70822   0.00000  Uiso   1.00
C1121  C     0.37368   0.91409   0.77443   0.00000  Uiso   1.00
N1122  N     0.38897   0.94637   0.78948   0.00000  Uiso   1.00
C1123  C     0.75338   0.83299   0.75268   0.00000  Uiso   1.00
C1124  C     0.91288   0.83354   0.74550   0.00000  Uiso   1.00
C1125  C     0.83325   0.83330   0.66400   0.00000  Uiso   1.00
C1126  C     0.83348   0.83334   0.83600   0.00000  Uiso   1.00
C1127  C     0.85723   0.69110   0.78085   0.00000  Uiso   1.00
C1128  C     0.80680   0.97575   0.72157   0.00000  Uiso   1.00
C1129  C     0.80954   0.69038   0.71906   0.00000  Uiso   1.00
C1130  C     0.85983   0.97648   0.77855   0.00000  Uiso   1.00
C1131  C     0.68650   0.79132   0.74693   0.00000  Uiso   1.00
C1132  C     0.97937   0.87445   0.74375   0.00000  Uiso   1.00
C1133  C     0.97774   0.79252   0.73689   0.00000  Uiso   1.00
C1134  C     0.68760   0.87338   0.75601   0.00000  Uiso   1.00
C1135  C     0.81980   0.87081   0.54629   0.00000  Uiso   1.00
C1136  C     0.81991   0.79513   0.95222   0.00000  Uiso   1.00
C1137  C     0.84864   0.87107   0.95370   0.00000  Uiso   1.00
C1138  C     0.84834   0.79552   0.54797   0.00000  Uiso   1.00
C1139  C     0.81970   0.87097   0.59228   0.00000  Uiso   1.00
C1140  C     0.81982   0.79514   0.90621   0.00000  Uiso   1.00
C1141  C     0.84807   0.87131   0.90767   0.00000  Uiso   1.00
C1142  C     0.84774   0.79545   0.59394   0.00000  Uiso   1.00
C1143  C     0.83352   0.83323   0.61610   0.00000  Uiso   1.00
C1144  C     0.83375   0.83330   0.88393   0.00000  Uiso   1.00
C1145  C     0.83425   0.83315   0.52412   0.00000  Uiso   1.00
C1146  C     0.83438   0.83307   0.97598   0.00000  Uiso   1.00
C1147  C     0.95701   0.83373   0.73978   0.00000  Uiso   1.00
C1148  C     0.70868   0.83223   0.75401   0.00000  Uiso   1.00
H1149  H     0.80825   0.89979   0.52803   0.00000  Uiso   1.00
H1150  H     0.80825   0.76584   0.96920   0.00000  Uiso   1.00
H1151  H     0.86044   0.90032   0.97189   0.00000  Uiso   1.00
H1152  H     0.86010   0.76649   0.53107   0.00000  Uiso   1.00
H1153  H     0.80835   0.90026   0.60907   0.00000  Uiso   1.00
H1154  H     0.80834   0.76569   0.88811   0.00000  Uiso   1.00
H1155  H     0.85924   0.90087   0.89077   0.00000  Uiso   1.00
H1156  H     0.85889   0.76623   0.61212   0.00000  Uiso   1.00
N1157  N     0.83333   0.95240   0.75000   0.00000  Uiso   1.00
N1158  N     0.83333   0.71427   0.75000   0.00000  Uiso   1.00
O1159  O     0.77226   0.87154   0.75000   0.00000  Uiso   1.00
O1160  O     0.89441   0.79513   0.75000   0.00000  Uiso   1.00
O1161  O     0.89441   0.87154   0.75000   0.00000  Uiso   1.00
O1162  O     0.77226   0.79513   0.74999   0.00000  Uiso   1.00
O1163  O     0.83333   0.87155   0.68453   0.00000  Uiso   1.00
O1164  O     0.83334   0.79511   0.81547   0.00000  Uiso   1.00
O1165  O     0.83334   0.87155   0.81547   0.00000  Uiso   1.00
O1166  O     0.83333   0.79511   0.68453   0.00000  Uiso   1.00
Zn1167 Zn    0.83333   0.88437   0.75000   0.00000  Uiso   1.00
Zn1168 Zn    0.83333   0.78229   0.75000   0.00000  Uiso   1.00
C1169  C     0.87903   0.71602   0.81772   0.00000  Uiso   1.00
H1170  H     0.89681   0.74599   0.81149   0.00000  Uiso   1.00
O1171  O     0.87682   0.70319   0.85619   0.00000  Uiso   1.00
C1172  C     0.77361   0.95142   0.69518   0.00000  Uiso   1.00
H1173  H     0.77758   0.91786   0.68334   0.00000  Uiso   1.00
O1174  O     0.74003   0.96863   0.68730   0.00000  Uiso   1.00
C1175  C     0.78783   0.71457   0.68202   0.00000  Uiso   1.00
H1176  H     0.77184   0.74542   0.68784   0.00000  Uiso   1.00
O1177  O     0.78817   0.70027   0.64388   0.00000  Uiso   1.00
C1178  C     0.89258   0.95289   0.80556   0.00000  Uiso   1.00
H1179  H     0.88920   0.91853   0.81529   0.00000  Uiso   1.00
O1180  O     0.92534   0.97158   0.81620   0.00000  Uiso   1.00
C1181  C     0.70523   0.74749   0.75334   0.00000  Uiso   1.00
N1182  N     0.71973   0.71247   0.75879   0.00000  Uiso   1.00
C1183  C     0.96126   0.91726   0.73108   0.00000  Uiso   1.00
N1184  N     0.94712   0.95131   0.72036   0.00000  Uiso   1.00
C1185  C     0.95671   0.75161   0.72101   0.00000  Uiso   1.00
N1186  N     0.93997   0.71921   0.70822   0.00000  Uiso   1.00
C1187  C     0.70701   0.91409   0.77443   0.00000  Uiso   1.00
N1188  N     0.72230   0.94637   0.78948   0.00000  Uiso   1.00
loop_
_geom_bond_atom_site_label_1
_geom_bond_atom_site_label_2
_geom_bond_distance
_geom_bond_site_symmetry_2
_ccdc_geom_bond_type
C1     O37     1.298   .     A
C1     C26     1.451   .     S
C1     O40     1.293   .     A
C2     O38     1.294   .     A
C2     C25     1.448   .     S
C2     O39     1.296   .     A
C3     O44     1.293   .     A
C3     C21     1.438   .     S
C3     O41     1.294   .     A
C4     O43     1.294   .     A
C4     C22     1.438   .     S
C4     O42     1.293   .     A
C5     C47     1.478   .     S
C5     N36     1.371   .     A
C5     C404    1.432   1_545 S
C6     N35     1.377   .     A
C6     C50     1.486   .     S
C6     C205    1.431   .     S
C7     C53     1.480   .     S
C7     N36     1.371   .     A
C7     C402    1.431   1_545 S
C8     C56     1.488   .     S
C8     N35     1.378   .     A
C8     C203    1.432   .     S
C9     C26     1.417   .     A
C9     C59     1.454   .     S
C9     C143    1.384   1_455 S
C10    C25     1.407   .     A
C10    C61     1.453   .     S
C10    C78     1.380   .     S
C11    C63     1.457   .     S
C11    C25     1.410   .     A
C11    C75     1.384   .     S
C12    C65     1.455   .     S
C12    C26     1.412   .     A
C12    C142    1.380   1_455 S
C13    C17     1.380   .     A
C13    C23     1.399   .     A
C13    H27     1.083   .     S
C14    C18     1.380   .     A
C14    C24     1.399   .     A
C14    H28     1.083   .     S
C15    C24     1.399   .     A
C15    C19     1.380   .     A
C15    H29     1.083   .     S
C16    C23     1.399   .     A
C16    C20     1.381   .     A
C16    H30     1.083   .     S
C17    H31     1.083   .     S
C17    C21     1.399   .     A
C18    H32     1.084   .     S
C18    C22     1.399   .     A
C19    C22     1.399   .     A
C19    H33     1.083   .     S
C20    H34     1.084   .     S
C20    C21     1.399   .     A
C23    C618    1.445   1_554 S
C24    C617    1.445   .     S
N35    Zn45    2.025   .     S
N36    Zn46    2.025   .     S
O37    Zn45    2.011   .     S
O38    Zn46    2.011   .     S
O39    Zn45    2.020   .     S
O40    Zn46    2.020   .     S
O41    Zn45    2.001   .     S
O42    Zn46    2.001   .     S
O43    Zn45    2.002   .     S
O44    Zn46    2.002   .     S
C47    H48     1.077   .     S
C47    O49     1.221   .     D
C50    O52     1.221   .     D
C50    H51     1.071   .     S
C53    O55     1.221   .     D
C53    H54     1.077   .     S
C56    O58     1.221   .     D
C56    H57     1.070   .     S
C59    N60     1.157   .     T
C61    N62     1.157   .     T
C63    N64     1.157   .     T
C65    N66     1.157   .     T
C67    O103    1.298   .     A
C67    C92     1.451   .     S
C67    O106    1.293   .     A
C68    O104    1.294   .     A
C68    C91     1.448   .     S
C68    O105    1.296   .     A
C69    O110    1.293   .     A
C69    C87     1.438   .     S
C69    O107    1.294   .     A
C70    O109    1.294   .     A
C70    C88     1.438   .     S
C70    O108    1.293   .     A
C71    C113    1.478   .     S
C71    N102    1.371   .     A
C71    C470    1.432   1_545 S
C72    N101    1.377   .     A
C72    C116    1.486   .     S
C72    C271    1.431   .     S
C73    C119    1.480   .     S
C73    N102    1.371   .     A
C73    C468    1.431   1_545 S
C74    C122    1.488   .     S
C74    N101    1.378   .     A
C74    C269    1.432   .     S
C75    C92     1.417   .     A
C75    C125    1.454   .     S
C76    C91     1.407   .     A
C76    C127    1.453   .     S
C76    C144    1.380   .     S
C77    C129    1.457   .     S
C77    C91     1.410   .     A
C77    C141    1.384   .     S
C78    C131    1.455   .     S
C78    C92     1.412   .     A
C79    C83     1.380   .     A
C79    C89     1.399   .     A
C79    H93     1.083   .     S
C80    C84     1.380   .     A
C80    C90     1.399   .     A
C80    H94     1.083   .     S
C81    C90     1.399   .     A
C81    C85     1.380   .     A
C81    H95     1.083   .     S
C82    C89     1.399   .     A
C82    C86     1.381   .     A
C82    H96     1.083   .     S
C83    H97     1.083   .     S
C83    C87     1.399   .     A
C84    H98     1.084   .     S
C84    C88     1.399   .     A
C85    C88     1.399   .     A
C85    H99     1.083   .     S
C86    H100    1.084   .     S
C86    C87     1.399   .     A
C89    C684    1.445   1_554 S
C90    C683    1.445   .     S
N101   Zn111   2.025   .     S
N102   Zn112   2.025   .     S
O103   Zn111   2.011   .     S
O104   Zn112   2.011   .     S
O105   Zn111   2.020   .     S
O106   Zn112   2.020   .     S
O107   Zn111   2.001   .     S
O108   Zn112   2.001   .     S
O109   Zn111   2.002   .     S
O110   Zn112   2.002   .     S
C113   H114    1.077   .     S
C113   O115    1.221   .     D
C116   O118    1.221   .     D
C116   H117    1.071   .     S
C119   O121    1.221   .     D
C119   H120    1.077   .     S
C122   O124    1.221   .     D
C122   H123    1.070   .     S
C125   N126    1.157   .     T
C127   N128    1.157   .     T
C129   N130    1.157   .     T
C131   N132    1.157   .     T
C133   O169    1.298   .     A
C133   C158    1.451   .     S
C133   O172    1.293   .     A
C134   O170    1.294   .     A
C134   C157    1.448   .     S
C134   O171    1.296   .     A
C135   O176    1.293   .     A
C135   C153    1.438   .     S
C135   O173    1.294   .     A
C136   O175    1.294   .     A
C136   C154    1.438   .     S
C136   O174    1.293   .     A
C137   C179    1.478   .     S
C137   N168    1.371   .     A
C137   C536    1.432   1_545 S
C138   N167    1.377   .     A
C138   C182    1.486   .     S
C138   C337    1.431   .     S
C139   C185    1.480   .     S
C139   N168    1.371   .     A
C139   C534    1.431   1_545 S
C140   C188    1.488   .     S
C140   N167    1.378   .     A
C140   C335    1.432   .     S
C141   C158    1.417   .     A
C141   C191    1.454   .     S
C142   C157    1.407   .     A
C142   C193    1.453   .     S
C142   C12     1.380   1_655 S
C143   C195    1.457   .     S
C143   C157    1.410   .     A
C143   C9      1.384   1_655 S
C144   C197    1.455   .     S
C144   C158    1.412   .     A
C145   C149    1.380   .     A
C145   C155    1.399   .     A
C145   H159    1.083   .     S
C146   C150    1.380   .     A
C146   C156    1.399   .     A
C146   H160    1.083   .     S
C147   C156    1.399   .     A
C147   C151    1.380   .     A
C147   H161    1.083   .     S
C148   C155    1.399   .     A
C148   C152    1.381   .     A
C148   H162    1.083   .     S
C149   H163    1.083   .     S
C149   C153    1.399   .     A
C150   H164    1.084   .     S
C150   C154    1.399   .     A
C151   C154    1.399   .     A
C151   H165    1.083   .     S
C152   H166    1.084   .     S
C152   C153    1.399   .     A
C155   C750    1.445   1_554 S
C156   C749    1.445   .     S
N167   Zn177   2.025   .     S
N168   Zn178   2.025   .     S
O169   Zn177   2.011   .     S
O170   Zn178   2.011   .     S
O171   Zn177   2.020   .     S
O172   Zn178   2.020   .     S
O173   Zn177   2.001   .     S
O174   Zn178   2.001   .     S
O175   Zn177   2.002   .     S
O176   Zn178   2.002   .     S
C179   H180    1.077   .     S
C179   O181    1.221   .     D
C182   O184    1.221   .     D
C182   H183    1.071   .     S
C185   O187    1.221   .     D
C185   H186    1.077   .     S
C188   O190    1.221   .     D
C188   H189    1.070   .     S
C191   N192    1.157   .     T
C193   N194    1.157   .     T
C195   N196    1.157   .     T
C197   N198    1.157   .     T
C199   O235    1.298   .     A
C199   C224    1.451   .     S
C199   O238    1.293   .     A
C200   O236    1.294   .     A
C200   C223    1.448   .     S
C200   O237    1.296   .     A
C201   O242    1.293   .     A
C201   C219    1.438   .     S
C201   O239    1.294   .     A
C202   O241    1.294   .     A
C202   C220    1.438   .     S
C202   O240    1.293   .     A
C203   C245    1.478   .     S
C203   N234    1.371   .     A
C204   N233    1.377   .     A
C204   C248    1.486   .     S
C204   C403    1.431   .     S
C205   C251    1.480   .     S
C205   N234    1.371   .     A
C206   C254    1.488   .     S
C206   N233    1.378   .     A
C206   C401    1.432   .     S
C207   C224    1.417   .     A
C207   C257    1.454   .     S
C207   C341    1.384   1_455 S
C208   C223    1.407   .     A
C208   C259    1.453   .     S
C208   C276    1.380   .     S
C209   C261    1.457   .     S
C209   C223    1.410   .     A
C209   C273    1.384   .     S
C210   C263    1.455   .     S
C210   C224    1.412   .     A
C210   C340    1.380   1_455 S
C211   C215    1.380   .     A
C211   C221    1.399   .     A
C211   H225    1.083   .     S
C212   C216    1.380   .     A
C212   C222    1.399   .     A
C212   H226    1.083   .     S
C213   C222    1.399   .     A
C213   C217    1.380   .     A
C213   H227    1.083   .     S
C214   C221    1.399   .     A
C214   C218    1.381   .     A
C214   H228    1.083   .     S
C215   H229    1.083   .     S
C215   C219    1.399   .     A
C216   H230    1.084   .     S
C216   C220    1.399   .     A
C217   C220    1.399   .     A
C217   H231    1.083   .     S
C218   H232    1.084   .     S
C218   C219    1.399   .     A
C221   C816    1.445   1_554 S
C222   C815    1.445   .     S
N233   Zn243   2.025   .     S
N234   Zn244   2.025   .     S
O235   Zn243   2.011   .     S
O236   Zn244   2.011   .     S
O237   Zn243   2.020   .     S
O238   Zn244   2.020   .     S
O239   Zn243   2.001   .     S
O240   Zn244   2.001   .     S
O241   Zn243   2.002   .     S
O242   Zn244   2.002   .     S
C245   H246    1.077   .     S
C245   O247    1.221   .     D
C248   O250    1.221   .     D
C248   H249    1.071   .     S
C251   O253    1.221   .     D
C251   H252    1.077   .     S
C254   O256    1.221   .     D
C254   H255    1.070   .     S
C257   N258    1.157   .     T
C259   N260    1.157   .     T
C261   N262    1.157   .     T
C263   N264    1.157   .     T
C265   O301    1.298   .     A
C265   C290    1.451   .     S
C265   O304    1.293   .     A
C266   O302    1.294   .     A
C266   C289    1.448   .     S
C266   O303    1.296   .     A
C267   O308    1.293   .     A
C267   C285    1.438   .     S
C267   O305    1.294   .     A
C268   O307    1.294   .     A
C268   C286    1.438   .     S
C268   O306    1.293   .     A
C269   C311    1.478   .     S
C269   N300    1.371   .     A
C270   N299    1.377   .     A
C270   C314    1.486   .     S
C270   C469    1.431   .     S
C271   C317    1.480   .     S
C271   N300    1.371   .     A
C272   C320    1.488   .     S
C272   N299    1.378   .     A
C272   C467    1.432   .     S
C273   C290    1.417   .     A
C273   C323    1.454   .     S
C274   C289    1.407   .     A
C274   C325    1.453   .     S
C274   C342    1.380   .     S
C275   C327    1.457   .     S
C275   C289    1.410   .     A
C275   C339    1.384   .     S
C276   C329    1.455   .     S
C276   C290    1.412   .     A
C277   C281    1.380   .     A
C277   C287    1.399   .     A
C277   H291    1.083   .     S
C278   C282    1.380   .     A
C278   C288    1.399   .     A
C278   H292    1.083   .     S
C279   C288    1.399   .     A
C279   C283    1.380   .     A
C279   H293    1.083   .     S
C280   C287    1.399   .     A
C280   C284    1.381   .     A
C280   H294    1.083   .     S
C281   H295    1.083   .     S
C281   C285    1.399   .     A
C282   H296    1.084   .     S
C282   C286    1.399   .     A
C283   C286    1.399   .     A
C283   H297    1.083   .     S
C284   H298    1.084   .     S
C284   C285    1.399   .     A
C287   C882    1.445   1_554 S
C288   C881    1.445   .     S
N299   Zn309   2.025   .     S
N300   Zn310   2.025   .     S
O301   Zn309   2.011   .     S
O302   Zn310   2.011   .     S
O303   Zn309   2.020   .     S
O304   Zn310   2.020   .     S
O305   Zn309   2.001   .     S
O306   Zn310   2.001   .     S
O307   Zn309   2.002   .     S
O308   Zn310   2.002   .     S
C311   H312    1.077   .     S
C311   O313    1.221   .     D
C314   O316    1.221   .     D
C314   H315    1.071   .     S
C317   O319    1.221   .     D
C317   H318    1.077   .     S
C320   O322    1.221   .     D
C320   H321    1.070   .     S
C323   N324    1.157   .     T
C325   N326    1.157   .     T
C327   N328    1.157   .     T
C329   N330    1.157   .     T
C331   O367    1.298   .     A
C331   C356    1.451   .     S
C331   O370    1.293   .     A
C332   O368    1.294   .     A
C332   C355    1.448   .     S
C332   O369    1.296   .     A
C333   O374    1.293   .     A
C333   C351    1.438   .     S
C333   O371    1.294   .     A
C334   O373    1.294   .     A
C334   C352    1.438   .     S
C334   O372    1.293   .     A
C335   C377    1.478   .     S
C335   N366    1.371   .     A
C336   N365    1.377   .     A
C336   C380    1.486   .     S
C336   C535    1.431   .     S
C337   C383    1.480   .     S
C337   N366    1.371   .     A
C338   C386    1.488   .     S
C338   N365    1.378   .     A
C338   C533    1.432   .     S
C339   C356    1.417   .     A
C339   C389    1.454   .     S
C340   C355    1.407   .     A
C340   C391    1.453   .     S
C340   C210    1.380   1_655 S
C341   C393    1.457   .     S
C341   C355    1.410   .     A
C341   C207    1.384   1_655 S
C342   C395    1.455   .     S
C342   C356    1.412   .     A
C343   C347    1.380   .     A
C343   C353    1.399   .     A
C343   H357    1.083   .     S
C344   C348    1.380   .     A
C344   C354    1.399   .     A
C344   H358    1.083   .     S
C345   C354    1.399   .     A
C345   C349    1.380   .     A
C345   H359    1.083   .     S
C346   C353    1.399   .     A
C346   C350    1.381   .     A
C346   H360    1.083   .     S
C347   H361    1.083   .     S
C347   C351    1.399   .     A
C348   H362    1.084   .     S
C348   C352    1.399   .     A
C349   C352    1.399   .     A
C349   H363    1.083   .     S
C350   H364    1.084   .     S
C350   C351    1.399   .     A
C353   C948    1.445   1_554 S
C354   C947    1.445   .     S
N365   Zn375   2.025   .     S
N366   Zn376   2.025   .     S
O367   Zn375   2.011   .     S
O368   Zn376   2.011   .     S
O369   Zn375   2.020   .     S
O370   Zn376   2.020   .     S
O371   Zn375   2.001   .     S
O372   Zn376   2.001   .     S
O373   Zn375   2.002   .     S
O374   Zn376   2.002   .     S
C377   H378    1.077   .     S
C377   O379    1.221   .     D
C380   O382    1.221   .     D
C380   H381    1.071   .     S
C383   O385    1.221   .     D
C383   H384    1.077   .     S
C386   O388    1.221   .     D
C386   H387    1.070   .     S
C389   N390    1.157   .     T
C391   N392    1.157   .     T
C393   N394    1.157   .     T
C395   N396    1.157   .     T
C397   O433    1.298   .     A
C397   C422    1.451   .     S
C397   O436    1.293   .     A
C398   O434    1.294   .     A
C398   C421    1.448   .     S
C398   O435    1.296   .     A
C399   O440    1.293   .     A
C399   C417    1.438   .     S
C399   O437    1.294   .     A
C400   O439    1.294   .     A
C400   C418    1.438   .     S
C400   O438    1.293   .     A
C401   C443    1.478   .     S
C401   N432    1.371   .     A
C402   N431    1.377   .     A
C402   C446    1.486   .     S
C402   C7      1.431   1_565 S
C403   C449    1.480   .     S
C403   N432    1.371   .     A
C404   C452    1.488   .     S
C404   N431    1.378   .     A
C404   C5      1.432   1_565 S
C405   C422    1.417   .     A
C405   C455    1.454   .     S
C405   C539    1.384   1_455 S
C406   C421    1.407   .     A
C406   C457    1.453   .     S
C406   C474    1.380   .     S
C407   C459    1.457   .     S
C407   C421    1.410   .     A
C407   C471    1.384   .     S
C408   C461    1.455   .     S
C408   C422    1.412   .     A
C408   C538    1.380   1_455 S
C409   C413    1.380   .     A
C409   C419    1.399   .     A
C409   H423    1.083   .     S
C410   C414    1.380   .     A
C410   C420    1.399   .     A
C410   H424    1.083   .     S
C411   C420    1.399   .     A
C411   C415    1.380   .     A
C411   H425    1.083   .     S
C412   C419    1.399   .     A
C412   C416    1.381   .     A
C412   H426    1.083   .     S
C413   H427    1.083   .     S
C413   C417    1.399   .     A
C414   H428    1.084   .     S
C414   C418    1.399   .     A
C415   C418    1.399   .     A
C415   H429    1.083   .     S
C416   H430    1.084   .     S
C416   C417    1.399   .     A
C419   C1014   1.445   1_554 S
C420   C1013   1.445   .     S
N431   Zn441   2.025   .     S
N432   Zn442   2.025   .     S
O433   Zn441   2.011   .     S
O434   Zn442   2.011   .     S
O435   Zn441   2.020   .     S
O436   Zn442   2.020   .     S
O437   Zn441   2.001   .     S
O438   Zn442   2.001   .     S
O439   Zn441   2.002   .     S
O440   Zn442   2.002   .     S
C443   H444    1.077   .     S
C443   O445    1.221   .     D
C446   O448    1.221   .     D
C446   H447    1.071   .     S
C449   O451    1.221   .     D
C449   H450    1.077   .     S
C452   O454    1.221   .     D
C452   H453    1.070   .     S
C455   N456    1.157   .     T
C457   N458    1.157   .     T
C459   N460    1.157   .     T
C461   N462    1.157   .     T
C463   O499    1.298   .     A
C463   C488    1.451   .     S
C463   O502    1.293   .     A
C464   O500    1.294   .     A
C464   C487    1.448   .     S
C464   O501    1.296   .     A
C465   O506    1.293   .     A
C465   C483    1.438   .     S
C465   O503    1.294   .     A
C466   O505    1.294   .     A
C466   C484    1.438   .     S
C466   O504    1.293   .     A
C467   C509    1.478   .     S
C467   N498    1.371   .     A
C468   N497    1.377   .     A
C468   C512    1.486   .     S
C468   C73     1.431   1_565 S
C469   C515    1.480   .     S
C469   N498    1.371   .     A
C470   C518    1.488   .     S
C470   N497    1.378   .     A
C470   C71     1.432   1_565 S
C471   C488    1.417   .     A
C471   C521    1.454   .     S
C472   C487    1.407   .     A
C472   C523    1.453   .     S
C472   C540    1.380   .     S
C473   C525    1.457   .     S
C473   C487    1.410   .     A
C473   C537    1.384   .     S
C474   C527    1.455   .     S
C474   C488    1.412   .     A
C475   C479    1.380   .     A
C475   C485    1.399   .     A
C475   H489    1.083   .     S
C476   C480    1.380   .     A
C476   C486    1.399   .     A
C476   H490    1.083   .     S
C477   C486    1.399   .     A
C477   C481    1.380   .     A
C477   H491    1.083   .     S
C478   C485    1.399   .     A
C478   C482    1.381   .     A
C478   H492    1.083   .     S
C479   H493    1.083   .     S
C479   C483    1.399   .     A
C480   H494    1.084   .     S
C480   C484    1.399   .     A
C481   C484    1.399   .     A
C481   H495    1.083   .     S
C482   H496    1.084   .     S
C482   C483    1.399   .     A
C485   C1080   1.445   1_554 S
C486   C1079   1.445   .     S
N497   Zn507   2.025   .     S
N498   Zn508   2.025   .     S
O499   Zn507   2.011   .     S
O500   Zn508   2.011   .     S
O501   Zn507   2.020   .     S
O502   Zn508   2.020   .     S
O503   Zn507   2.001   .     S
O504   Zn508   2.001   .     S
O505   Zn507   2.002   .     S
O506   Zn508   2.002   .     S
C509   H510    1.077   .     S
C509   O511    1.221   .     D
C512   O514    1.221   .     D
C512   H513    1.071   .     S
C515   O517    1.221   .     D
C515   H516    1.077   .     S
C518   O520    1.221   .     D
C518   H519    1.070   .     S
C521   N522    1.157   .     T
C523   N524    1.157   .     T
C525   N526    1.157   .     T
C527   N528    1.157   .     T
C529   O565    1.298   .     A
C529   C554    1.451   .     S
C529   O568    1.293   .     A
C530   O566    1.294   .     A
C530   C553    1.448   .     S
C530   O567    1.296   .     A
C531   O572    1.293   .     A
C531   C549    1.438   .     S
C531   O569    1.294   .     A
C532   O571    1.294   .     A
C532   C550    1.438   .     S
C532   O570    1.293   .     A
C533   C575    1.478   .     S
C533   N564    1.371   .     A
C534   N563    1.377   .     A
C534   C578    1.486   .     S
C534   C139    1.431   1_565 S
C535   C581    1.480   .     S
C535   N564    1.371   .     A
C536   C584    1.488   .     S
C536   N563    1.378   .     A
C536   C137    1.432   1_565 S
C537   C554    1.417   .     A
C537   C587    1.454   .     S
C538   C553    1.407   .     A
C538   C589    1.453   .     S
C538   C408    1.380   1_655 S
C539   C591    1.457   .     S
C539   C553    1.410   .     A
C539   C405    1.384   1_655 S
C540   C593    1.455   .     S
C540   C554    1.412   .     A
C541   C545    1.380   .     A
C541   C551    1.399   .     A
C541   H555    1.083   .     S
C542   C546    1.380   .     A
C542   C552    1.399   .     A
C542   H556    1.083   .     S
C543   C552    1.399   .     A
C543   C547    1.380   .     A
C543   H557    1.083   .     S
C544   C551    1.399   .     A
C544   C548    1.381   .     A
C544   H558    1.083   .     S
C545   H559    1.083   .     S
C545   C549    1.399   .     A
C546   H560    1.084   .     S
C546   C550    1.399   .     A
C547   C550    1.399   .     A
C547   H561    1.083   .     S
C548   H562    1.084   .     S
C548   C549    1.399   .     A
C551   C1146   1.445   1_554 S
C552   C1145   1.445   .     S
N563   Zn573   2.025   .     S
N564   Zn574   2.025   .     S
O565   Zn573   2.011   .     S
O566   Zn574   2.011   .     S
O567   Zn573   2.020   .     S
O568   Zn574   2.020   .     S
O569   Zn573   2.001   .     S
O570   Zn574   2.001   .     S
O571   Zn573   2.002   .     S
O572   Zn574   2.002   .     S
C575   H576    1.077   .     S
C575   O577    1.221   .     D
C578   O580    1.221   .     D
C578   H579    1.071   .     S
C581   O583    1.221   .     D
C581   H582    1.077   .     S
C584   O586    1.221   .     D
C584   H585    1.070   .     S
C587   N588    1.157   .     T
C589   N590    1.157   .     T
C591   N592    1.157   .     T
C593   N594    1.157   .     T
C595   O631    1.298   .     A
C595   C620    1.451   .     S
C595   O634    1.293   .     A
C596   O632    1.294   .     A
C596   C619    1.448   .     S
C596   O633    1.296   .     A
C597   O638    1.293   .     A
C597   C615    1.438   .     S
C597   O635    1.294   .     A
C598   O637    1.294   .     A
C598   C616    1.438   .     S
C598   O636    1.293   .     A
C599   C641    1.478   .     S
C599   N630    1.371   .     A
C599   C998    1.432   1_545 S
C600   N629    1.377   .     A
C600   C644    1.486   .     S
C600   C799    1.431   .     S
C601   C647    1.480   .     S
C601   N630    1.371   .     A
C601   C996    1.431   1_545 S
C602   C650    1.488   .     S
C602   N629    1.378   .     A
C602   C797    1.432   .     S
C603   C620    1.417   .     A
C603   C653    1.454   .     S
C603   C737    1.384   1_455 S
C604   C619    1.407   .     A
C604   C655    1.453   .     S
C604   C672    1.380   .     S
C605   C657    1.457   .     S
C605   C619    1.410   .     A
C605   C669    1.384   .     S
C606   C659    1.455   .     S
C606   C620    1.412   .     A
C606   C736    1.380   1_455 S
C607   C611    1.380   .     A
C607   C617    1.399   .     A
C607   H621    1.083   .     S
C608   C612    1.380   .     A
C608   C618    1.399   .     A
C608   H622    1.083   .     S
C609   C618    1.399   .     A
C609   C613    1.380   .     A
C609   H623    1.083   .     S
C610   C617    1.399   .     A
C610   C614    1.381   .     A
C610   H624    1.083   .     S
C611   H625    1.083   .     S
C611   C615    1.399   .     A
C612   H626    1.084   .     S
C612   C616    1.399   .     A
C613   C616    1.399   .     A
C613   H627    1.083   .     S
C614   H628    1.084   .     S
C614   C615    1.399   .     A
C618   C23     1.445   1_556 S
N629   Zn639   2.025   .     S
N630   Zn640   2.025   .     S
O631   Zn639   2.011   .     S
O632   Zn640   2.011   .     S
O633   Zn639   2.020   .     S
O634   Zn640   2.020   .     S
O635   Zn639   2.001   .     S
O636   Zn640   2.001   .     S
O637   Zn639   2.002   .     S
O638   Zn640   2.002   .     S
C641   H642    1.077   .     S
C641   O643    1.221   .     D
C644   O646    1.221   .     D
C644   H645    1.071   .     S
C647   O649    1.221   .     D
C647   H648    1.077   .     S
C650   O652    1.221   .     D
C650   H651    1.070   .     S
C653   N654    1.157   .     T
C655   N656    1.157   .     T
C657   N658    1.157   .     T
C659   N660    1.157   .     T
C661   O697    1.298   .     A
C661   C686    1.451   .     S
C661   O700    1.293   .     A
C662   O698    1.294   .     A
C662   C685    1.448   .     S
C662   O699    1.296   .     A
C663   O704    1.293   .     A
C663   C681    1.438   .     S
C663   O701    1.294   .     A
C664   O703    1.294   .     A
C664   C682    1.438   .     S
C664   O702    1.293   .     A
C665   C707    1.478   .     S
C665   N696    1.371   .     A
C665   C1064   1.432   1_545 S
C666   N695    1.377   .     A
C666   C710    1.486   .     S
C666   C865    1.431   .     S
C667   C713    1.480   .     S
C667   N696    1.371   .     A
C667   C1062   1.431   1_545 S
C668   C716    1.488   .     S
C668   N695    1.378   .     A
C668   C863    1.432   .     S
C669   C686    1.417   .     A
C669   C719    1.454   .     S
C670   C685    1.407   .     A
C670   C721    1.453   .     S
C670   C738    1.380   .     S
C671   C723    1.457   .     S
C671   C685    1.410   .     A
C671   C735    1.384   .     S
C672   C725    1.455   .     S
C672   C686    1.412   .     A
C673   C677    1.380   .     A
C673   C683    1.399   .     A
C673   H687    1.083   .     S
C674   C678    1.380   .     A
C674   C684    1.399   .     A
C674   H688    1.083   .     S
C675   C684    1.399   .     A
C675   C679    1.380   .     A
C675   H689    1.083   .     S
C676   C683    1.399   .     A
C676   C680    1.381   .     A
C676   H690    1.083   .     S
C677   H691    1.083   .     S
C677   C681    1.399   .     A
C678   H692    1.084   .     S
C678   C682    1.399   .     A
C679   C682    1.399   .     A
C679   H693    1.083   .     S
C680   H694    1.084   .     S
C680   C681    1.399   .     A
C684   C89     1.445   1_556 S
N695   Zn705   2.025   .     S
N696   Zn706   2.025   .     S
O697   Zn705   2.011   .     S
O698   Zn706   2.011   .     S
O699   Zn705   2.020   .     S
O700   Zn706   2.020   .     S
O701   Zn705   2.001   .     S
O702   Zn706   2.001   .     S
O703   Zn705   2.002   .     S
O704   Zn706   2.002   .     S
C707   H708    1.077   .     S
C707   O709    1.221   .     D
C710   O712    1.221   .     D
C710   H711    1.071   .     S
C713   O715    1.221   .     D
C713   H714    1.077   .     S
C716   O718    1.221   .     D
C716   H717    1.070   .     S
C719   N720    1.157   .     T
C721   N722    1.157   .     T
C723   N724    1.157   .     T
C725   N726    1.157   .     T
C727   O763    1.298   .     A
C727   C752    1.451   .     S
C727   O766    1.293   .     A
C728   O764    1.294   .     A
C728   C751    1.448   .     S
C728   O765    1.296   .     A
C729   O770    1.293   .     A
C729   C747    1.438   .     S
C729   O767    1.294   .     A
C730   O769    1.294   .     A
C730   C748    1.438   .     S
C730   O768    1.293   .     A
C731   C773    1.478   .     S
C731   N762    1.371   .     A
C731   C1130   1.432   1_545 S
C732   N761    1.377   .     A
C732   C776    1.486   .     S
C732   C931    1.431   .     S
C733   C779    1.480   .     S
C733   N762    1.371   .     A
C733   C1128   1.431   1_545 S
C734   C782    1.488   .     S
C734   N761    1.378   .     A
C734   C929    1.432   .     S
C735   C752    1.417   .     A
C735   C785    1.454   .     S
C736   C751    1.407   .     A
C736   C787    1.453   .     S
C736   C606    1.380   1_655 S
C737   C789    1.457   .     S
C737   C751    1.410   .     A
C737   C603    1.384   1_655 S
C738   C791    1.455   .     S
C738   C752    1.412   .     A
C739   C743    1.380   .     A
C739   C749    1.399   .     A
C739   H753    1.083   .     S
C740   C744    1.380   .     A
C740   C750    1.399   .     A
C740   H754    1.083   .     S
C741   C750    1.399   .     A
C741   C745    1.380   .     A
C741   H755    1.083   .     S
C742   C749    1.399   .     A
C742   C746    1.381   .     A
C742   H756    1.083   .     S
C743   H757    1.083   .     S
C743   C747    1.399   .     A
C744   H758    1.084   .     S
C744   C748    1.399   .     A
C745   C748    1.399   .     A
C745   H759    1.083   .     S
C746   H760    1.084   .     S
C746   C747    1.399   .     A
C750   C155    1.445   1_556 S
N761   Zn771   2.025   .     S
N762   Zn772   2.025   .     S
O763   Zn771   2.011   .     S
O764   Zn772   2.011   .     S
O765   Zn771   2.020   .     S
O766   Zn772   2.020   .     S
O767   Zn771   2.001   .     S
O768   Zn772   2.001   .     S
O769   Zn771   2.002   .     S
O770   Zn772   2.002   .     S
C773   H774    1.077   .     S
C773   O775    1.221   .     D
C776   O778    1.221   .     D
C776   H777    1.071   .     S
C779   O781    1.221   .     D
C779   H780    1.077   .     S
C782   O784    1.221   .     D
C782   H783    1.070   .     S
C785   N786    1.157   .     T
C787   N788    1.157   .     T
C789   N790    1.157   .     T
C791   N792    1.157   .     T
C793   O829    1.298   .     A
C793   C818    1.451   .     S
C793   O832    1.293   .     A
C794   O830    1.294   .     A
C794   C817    1.448   .     S
C794   O831    1.296   .     A
C795   O836    1.293   .     A
C795   C813    1.438   .     S
C795   O833    1.294   .     A
C796   O835    1.294   .     A
C796   C814    1.438   .     S
C796   O834    1.293   .     A
C797   C839    1.478   .     S
C797   N828    1.371   .     A
C798   N827    1.377   .     A
C798   C842    1.486   .     S
C798   C997    1.431   .     S
C799   C845    1.480   .     S
C799   N828    1.371   .     A
C800   C848    1.488   .     S
C800   N827    1.378   .     A
C800   C995    1.432   .     S
C801   C818    1.417   .     A
C801   C851    1.454   .     S
C801   C935    1.384   1_455 S
C802   C817    1.407   .     A
C802   C853    1.453   .     S
C802   C870    1.380   .     S
C803   C855    1.457   .     S
C803   C817    1.410   .     A
C803   C867    1.384   .     S
C804   C857    1.455   .     S
C804   C818    1.412   .     A
C804   C934    1.380   1_455 S
C805   C809    1.380   .     A
C805   C815    1.399   .     A
C805   H819    1.083   .     S
C806   C810    1.380   .     A
C806   C816    1.399   .     A
C806   H820    1.083   .     S
C807   C816    1.399   .     A
C807   C811    1.380   .     A
C807   H821    1.083   .     S
C808   C815    1.399   .     A
C808   C812    1.381   .     A
C808   H822    1.083   .     S
C809   H823    1.083   .     S
C809   C813    1.399   .     A
C810   H824    1.084   .     S
C810   C814    1.399   .     A
C811   C814    1.399   .     A
C811   H825    1.083   .     S
C812   H826    1.084   .     S
C812   C813    1.399   .     A
C816   C221    1.445   1_556 S
N827   Zn837   2.025   .     S
N828   Zn838   2.025   .     S
O829   Zn837   2.011   .     S
O830   Zn838   2.011   .     S
O831   Zn837   2.020   .     S
O832   Zn838   2.020   .     S
O833   Zn837   2.001   .     S
O834   Zn838   2.001   .     S
O835   Zn837   2.002   .     S
O836   Zn838   2.002   .     S
C839   H840    1.077   .     S
C839   O841    1.221   .     D
C842   O844    1.221   .     D
C842   H843    1.071   .     S
C845   O847    1.221   .     D
C845   H846    1.077   .     S
C848   O850    1.221   .     D
C848   H849    1.070   .     S
C851   N852    1.157   .     T
C853   N854    1.157   .     T
C855   N856    1.157   .     T
C857   N858    1.157   .     T
C859   O895    1.298   .     A
C859   C884    1.451   .     S
C859   O898    1.293   .     A
C860   O896    1.294   .     A
C860   C883    1.448   .     S
C860   O897    1.296   .     A
C861   O902    1.293   .     A
C861   C879    1.438   .     S
C861   O899    1.294   .     A
C862   O901    1.294   .     A
C862   C880    1.438   .     S
C862   O900    1.293   .     A
C863   C905    1.478   .     S
C863   N894    1.371   .     A
C864   N893    1.377   .     A
C864   C908    1.486   .     S
C864   C1063   1.431   .     S
C865   C911    1.480   .     S
C865   N894    1.371   .     A
C866   C914    1.488   .     S
C866   N893    1.378   .     A
C866   C1061   1.432   .     S
C867   C884    1.417   .     A
C867   C917    1.454   .     S
C868   C883    1.407   .     A
C868   C919    1.453   .     S
C868   C936    1.380   .     S
C869   C921    1.457   .     S
C869   C883    1.410   .     A
C869   C933    1.384   .     S
C870   C923    1.455   .     S
C870   C884    1.412   .     A
C871   C875    1.380   .     A
C871   C881    1.399   .     A
C871   H885    1.083   .     S
C872   C876    1.380   .     A
C872   C882    1.399   .     A
C872   H886    1.083   .     S
C873   C882    1.399   .     A
C873   C877    1.380   .     A
C873   H887    1.083   .     S
C874   C881    1.399   .     A
C874   C878    1.381   .     A
C874   H888    1.083   .     S
C875   H889    1.083   .     S
C875   C879    1.399   .     A
C876   H890    1.084   .     S
C876   C880    1.399   .     A
C877   C880    1.399   .     A
C877   H891    1.083   .     S
C878   H892    1.084   .     S
C878   C879    1.399   .     A
C882   C287    1.445   1_556 S
N893   Zn903   2.025   .     S
N894   Zn904   2.025   .     S
O895   Zn903   2.011   .     S
O896   Zn904   2.011   .     S
O897   Zn903   2.020   .     S
O898   Zn904   2.020   .     S
O899   Zn903   2.001   .     S
O900   Zn904   2.001   .     S
O901   Zn903   2.002   .     S
O902   Zn904   2.002   .     S
C905   H906    1.077   .     S
C905   O907    1.221   .     D
C908   O910    1.221   .     D
C908   H909    1.071   .     S
C911   O913    1.221   .     D
C911   H912    1.077   .     S
C914   O916    1.221   .     D
C914   H915    1.070   .     S
C917   N918    1.157   .     T
C919   N920    1.157   .     T
C921   N922    1.157   .     T
C923   N924    1.157   .     T
C925   O961    1.298   .     A
C925   C950    1.451   .     S
C925   O964    1.293   .     A
C926   O962    1.294   .     A
C926   C949    1.448   .     S
C926   O963    1.296   .     A
C927   O968    1.293   .     A
C927   C945    1.438   .     S
C927   O965    1.294   .     A
C928   O967    1.294   .     A
C928   C946    1.438   .     S
C928   O966    1.293   .     A
C929   C971    1.478   .     S
C929   N960    1.371   .     A
C930   N959    1.377   .     A
C930   C974    1.486   .     S
C930   C1129   1.431   .     S
C931   C977    1.480   .     S
C931   N960    1.371   .     A
C932   C980    1.488   .     S
C932   N959    1.378   .     A
C932   C1127   1.432   .     S
C933   C950    1.417   .     A
C933   C983    1.454   .     S
C934   C949    1.407   .     A
C934   C985    1.453   .     S
C934   C804    1.380   1_655 S
C935   C987    1.457   .     S
C935   C949    1.410   .     A
C935   C801    1.384   1_655 S
C936   C989    1.455   .     S
C936   C950    1.412   .     A
C937   C941    1.380   .     A
C937   C947    1.399   .     A
C937   H951    1.083   .     S
C938   C942    1.380   .     A
C938   C948    1.399   .     A
C938   H952    1.083   .     S
C939   C948    1.399   .     A
C939   C943    1.380   .     A
C939   H953    1.083   .     S
C940   C947    1.399   .     A
C940   C944    1.381   .     A
C940   H954    1.083   .     S
C941   H955    1.083   .     S
C941   C945    1.399   .     A
C942   H956    1.084   .     S
C942   C946    1.399   .     A
C943   C946    1.399   .     A
C943   H957    1.083   .     S
C944   H958    1.084   .     S
C944   C945    1.399   .     A
C948   C353    1.445   1_556 S
N959   Zn969   2.025   .     S
N960   Zn970   2.025   .     S
O961   Zn969   2.011   .     S
O962   Zn970   2.011   .     S
O963   Zn969   2.020   .     S
O964   Zn970   2.020   .     S
O965   Zn969   2.001   .     S
O966   Zn970   2.001   .     S
O967   Zn969   2.002   .     S
O968   Zn970   2.002   .     S
C971   H972    1.077   .     S
C971   O973    1.221   .     D
C974   O976    1.221   .     D
C974   H975    1.071   .     S
C977   O979    1.221   .     D
C977   H978    1.077   .     S
C980   O982    1.221   .     D
C980   H981    1.070   .     S
C983   N984    1.157   .     T
C985   N986    1.157   .     T
C987   N988    1.157   .     T
C989   N990    1.157   .     T
C991   O1027   1.298   .     A
C991   C1016   1.451   .     S
C991   O1030   1.293   .     A
C992   O1028   1.294   .     A
C992   C1015   1.448   .     S
C992   O1029   1.296   .     A
C993   O1034   1.293   .     A
C993   C1011   1.438   .     S
C993   O1031   1.294   .     A
C994   O1033   1.294   .     A
C994   C1012   1.438   .     S
C994   O1032   1.293   .     A
C995   C1037   1.478   .     S
C995   N1026   1.371   .     A
C996   N1025   1.377   .     A
C996   C1040   1.486   .     S
C996   C601    1.431   1_565 S
C997   C1043   1.480   .     S
C997   N1026   1.371   .     A
C998   C1046   1.488   .     S
C998   N1025   1.378   .     A
C998   C599    1.432   1_565 S
C999   C1016   1.417   .     A
C999   C1049   1.454   .     S
C999   C1133   1.384   1_455 S
C1000  C1015   1.407   .     A
C1000  C1051   1.453   .     S
C1000  C1068   1.380   .     S
C1001  C1053   1.457   .     S
C1001  C1015   1.410   .     A
C1001  C1065   1.384   .     S
C1002  C1055   1.455   .     S
C1002  C1016   1.412   .     A
C1002  C1132   1.380   1_455 S
C1003  C1007   1.380   .     A
C1003  C1013   1.399   .     A
C1003  H1017   1.083   .     S
C1004  C1008   1.380   .     A
C1004  C1014   1.399   .     A
C1004  H1018   1.083   .     S
C1005  C1014   1.399   .     A
C1005  C1009   1.380   .     A
C1005  H1019   1.083   .     S
C1006  C1013   1.399   .     A
C1006  C1010   1.381   .     A
C1006  H1020   1.083   .     S
C1007  H1021   1.083   .     S
C1007  C1011   1.399   .     A
C1008  H1022   1.084   .     S
C1008  C1012   1.399   .     A
C1009  C1012   1.399   .     A
C1009  H1023   1.083   .     S
C1010  H1024   1.084   .     S
C1010  C1011   1.399   .     A
C1014  C419    1.445   1_556 S
N1025  Zn1035  2.025   .     S
N1026  Zn1036  2.025   .     S
O1027  Zn1035  2.011   .     S
O1028  Zn1036  2.011   .     S
O1029  Zn1035  2.020   .     S
O1030  Zn1036  2.020   .     S
O1031  Zn1035  2.001   .     S
O1032  Zn1036  2.001   .     S
O1033  Zn1035  2.002   .     S
O1034  Zn1036  2.002   .     S
C1037  H1038   1.077   .     S
C1037  O1039   1.221   .     D
C1040  O1042   1.221   .     D
C1040  H1041   1.071   .     S
C1043  O1045   1.221   .     D
C1043  H1044   1.077   .     S
C1046  O1048   1.221   .     D
C1046  H1047   1.070   .     S
C1049  N1050   1.157   .     T
C1051  N1052   1.157   .     T
C1053  N1054   1.157   .     T
C1055  N1056   1.157   .     T
C1057  O1093   1.298   .     A
C1057  C1082   1.451   .     S
C1057  O1096   1.293   .     A
C1058  O1094   1.294   .     A
C1058  C1081   1.448   .     S
C1058  O1095   1.296   .     A
C1059  O1100   1.293   .     A
C1059  C1077   1.438   .     S
C1059  O1097   1.294   .     A
C1060  O1099   1.294   .     A
C1060  C1078   1.438   .     S
C1060  O1098   1.293   .     A
C1061  C1103   1.478   .     S
C1061  N1092   1.371   .     A
C1062  N1091   1.377   .     A
C1062  C1106   1.486   .     S
C1062  C667    1.431   1_565 S
C1063  C1109   1.480   .     S
C1063  N1092   1.371   .     A
C1064  C1112   1.488   .     S
C1064  N1091   1.378   .     A
C1064  C665    1.432   1_565 S
C1065  C1082   1.417   .     A
C1065  C1115   1.454   .     S
C1066  C1081   1.407   .     A
C1066  C1117   1.453   .     S
C1066  C1134   1.380   .     S
C1067  C1119   1.457   .     S
C1067  C1081   1.410   .     A
C1067  C1131   1.384   .     S
C1068  C1121   1.455   .     S
C1068  C1082   1.412   .     A
C1069  C1073   1.380   .     A
C1069  C1079   1.399   .     A
C1069  H1083   1.083   .     S
C1070  C1074   1.380   .     A
C1070  C1080   1.399   .     A
C1070  H1084   1.083   .     S
C1071  C1080   1.399   .     A
C1071  C1075   1.380   .     A
C1071  H1085   1.083   .     S
C1072  C1079   1.399   .     A
C1072  C1076   1.381   .     A
C1072  H1086   1.083   .     S
C1073  H1087   1.083   .     S
C1073  C1077   1.399   .     A
C1074  H1088   1.084   .     S
C1074  C1078   1.399   .     A
C1075  C1078   1.399   .     A
C1075  H1089   1.083   .     S
C1076  H1090   1.084   .     S
C1076  C1077   1.399   .     A
C1080  C485    1.445   1_556 S
N1091  Zn1101  2.025   .     S
N1092  Zn1102  2.025   .     S
O1093  Zn1101  2.011   .     S
O1094  Zn1102  2.011   .     S
O1095  Zn1101  2.020   .     S
O1096  Zn1102  2.020   .     S
O1097  Zn1101  2.001   .     S
O1098  Zn1102  2.001   .     S
O1099  Zn1101  2.002   .     S
O1100  Zn1102  2.002   .     S
C1103  H1104   1.077   .     S
C1103  O1105   1.221   .     D
C1106  O1108   1.221   .     D
C1106  H1107   1.071   .     S
C1109  O1111   1.221   .     D
C1109  H1110   1.077   .     S
C1112  O1114   1.221   .     D
C1112  H1113   1.070   .     S
C1115  N1116   1.157   .     T
C1117  N1118   1.157   .     T
C1119  N1120   1.157   .     T
C1121  N1122   1.157   .     T
C1123  O1159   1.298   .     A
C1123  C1148   1.451   .     S
C1123  O1162   1.293   .     A
C1124  O1160   1.294   .     A
C1124  C1147   1.448   .     S
C1124  O1161   1.296   .     A
C1125  O1166   1.293   .     A
C1125  C1143   1.438   .     S
C1125  O1163   1.294   .     A
C1126  O1165   1.294   .     A
C1126  C1144   1.438   .     S
C1126  O1164   1.293   .     A
C1127  C1169   1.478   .     S
C1127  N1158   1.371   .     A
C1128  N1157   1.377   .     A
C1128  C1172   1.486   .     S
C1128  C733    1.431   1_565 S
C1129  C1175   1.480   .     S
C1129  N1158   1.371   .     A
C1130  C1178   1.488   .     S
C1130  N1157   1.378   .     A
C1130  C731    1.432   1_565 S
C1131  C1148   1.417   .     A
C1131  C1181   1.454   .     S
C1132  C1147   1.407   .     A
C1132  C1183   1.453   .     S
C1132  C1002   1.380   1_655 S
C1133  C1185   1.457   .     S
C1133  C1147   1.410   .     A
C1133  C999    1.384   1_655 S
C1134  C1187   1.455   .     S
C1134  C1148   1.412   .     A
C1135  C1139   1.380   .     A
C1135  C1145   1.399   .     A
C1135  H1149   1.083   .     S
C1136  C1140   1.380   .     A
C1136  C1146   1.399   .     A
C1136  H1150   1.083   .     S
C1137  C1146   1.399   .     A
C1137  C1141   1.380   .     A
C1137  H1151   1.083   .     S
C1138  C1145   1.399   .     A
C1138  C1142   1.381   .     A
C1138  H1152   1.083   .     S
C1139  H1153   1.083   .     S
C1139  C1143   1.399   .     A
C1140  H1154   1.084   .     S
C1140  C1144   1.399   .     A
C1141  C1144   1.399   .     A
C1141  H1155   1.083   .     S
C1142  H1156   1.084   .     S
C1142  C1143   1.399   .     A
C1146  C551    1.445   1_556 S
N1157  Zn1167  2.025   .     S
N1158  Zn1168  2.025   .     S
O1159  Zn1167  2.011   .     S
O1160  Zn1168  2.011   .     S
O1161  Zn1167  2.020   .     S
O1162  Zn1168  2.020   .     S
O1163  Zn1167  2.001   .     S
O1164  Zn1168  2.001   .     S
O1165  Zn1167  2.002   .     S
O1166  Zn1168  2.002   .     S
C1169  H1170   1.077   .     S
C1169  O1171   1.221   .     D
C1172  O1174   1.221   .     D
C1172  H1173   1.071   .     S
C1175  O1177   1.221   .     D
C1175  H1176   1.077   .     S
C1178  O1180   1.221   .     D
C1178  H1179   1.070   .     S
C1181  N1182   1.157   .     T
C1183  N1184   1.157   .     T
C1185  N1186   1.157   .     T
C1187  N1188   1.157   .     T
