data_str_m3_o1_o17_pcu_sym.126
_audit_creation_date              2020-01-03
_audit_creation_method            'Materials Studio'
_symmetry_space_group_name_H-M    'P1'
_symmetry_Int_Tables_number       1
_symmetry_cell_setting            triclinic
loop_
_symmetry_equiv_pos_as_xyz
  x,y,z
_cell_length_a                    32.0722
_cell_length_b                    29.5420
_cell_length_c                    29.8515
_cell_angle_alpha                 90.1924
_cell_angle_beta                  90.3552
_cell_angle_gamma                 89.8651
loop_
_atom_site_label
_atom_site_type_symbol
_atom_site_fract_x
_atom_site_fract_y
_atom_site_fract_z
_atom_site_U_iso_or_equiv
_atom_site_adp_type
_atom_site_occupancy
C1     C     0.08665   0.16671   0.25024   0.00000  Uiso   1.00
C2     C     0.24668   0.16663   0.24976   0.00000  Uiso   1.00
C3     C     0.09277   0.14180   0.02048   0.00000  Uiso   1.00
C4     C     0.24056   0.19153   0.47952   0.00000  Uiso   1.00
C5     C     0.02149   0.12745   0.26273   0.00000  Uiso   1.00
C6     C     0.31184   0.20589   0.23727   0.00000  Uiso   1.00
C7     C     0.31213   0.12735   0.26243   0.00000  Uiso   1.00
C8     C     0.02121   0.20598   0.23757   0.00000  Uiso   1.00
C9     C     0.29083   0.16658   0.24972   0.00000  Uiso   1.00
C10    C     0.04250   0.16675   0.25028   0.00000  Uiso   1.00
C11    C     0.19381   0.02400   0.27661   0.00000  Uiso   1.00
C12    C     0.13953   0.30934   0.22339   0.00000  Uiso   1.00
C13    C     0.13953   0.02396   0.22339   0.00000  Uiso   1.00
C14    C     0.19380   0.30938   0.27661   0.00000  Uiso   1.00
C15    C     0.16616   0.16658   0.16360   0.00000  Uiso   1.00
C16    C     0.16717   0.16675   0.33640   0.00000  Uiso   1.00
C17    C     0.20588   0.17426   0.40679   0.00000  Uiso   1.00
C18    C     0.12746   0.15908   0.09321   0.00000  Uiso   1.00
C19    C     0.16838   0.16708   0.38400   0.00000  Uiso   1.00
C20    C     0.16495   0.16626   0.11600   0.00000  Uiso   1.00
C21    C     0.13130   0.15948   0.40576   0.00000  Uiso   1.00
C22    C     0.20203   0.17385   0.09424   0.00000  Uiso   1.00
C23    C     0.13033   0.15740   0.45203   0.00000  Uiso   1.00
C24    C     0.20301   0.17593   0.04797   0.00000  Uiso   1.00
C25    C     0.16726   0.16708   0.47655   0.00000  Uiso   1.00
C26    C     0.16607   0.16625   0.02345   0.00000  Uiso   1.00
C27    C     0.20523   0.17782   0.45401   0.00000  Uiso   1.00
C28    C     0.12810   0.15551   0.04599   0.00000  Uiso   1.00
C29    C     0.09339   0.14477   0.47380   0.00000  Uiso   1.00
C30    C     0.23995   0.18856   0.02620   0.00000  Uiso   1.00
H31    H     0.10364   0.15388   0.38558   0.00000  Uiso   1.00
H32    H     0.22970   0.17945   0.11442   0.00000  Uiso   1.00
H33    H     0.03794   0.09707   0.27297   0.00000  Uiso   1.00
H34    H     0.29539   0.23626   0.22704   0.00000  Uiso   1.00
H35    H     0.29590   0.09695   0.27254   0.00000  Uiso   1.00
H36    H     0.03743   0.23639   0.22746   0.00000  Uiso   1.00
H37    H     0.21551   0.04218   0.29789   0.00000  Uiso   1.00
H38    H     0.11782   0.29116   0.20211   0.00000  Uiso   1.00
H39    H     0.11783   0.04210   0.20210   0.00000  Uiso   1.00
H40    H     0.21550   0.29123   0.29790   0.00000  Uiso   1.00
N41    N     0.16667   0.28573   0.25000   0.00000  Uiso   1.00
N42    N     0.16667   0.04760   0.25000   0.00000  Uiso   1.00
O43    O     0.10559   0.20487   0.25000   0.00000  Uiso   1.00
O44    O     0.22774   0.12846   0.25001   0.00000  Uiso   1.00
O45    O     0.22774   0.20487   0.25001   0.00000  Uiso   1.00
O46    O     0.10559   0.12846   0.25000   0.00000  Uiso   1.00
O47    O     0.16666   0.20489   0.18393   0.00000  Uiso   1.00
O48    O     0.16667   0.12844   0.31608   0.00000  Uiso   1.00
O49    O     0.16667   0.20489   0.31608   0.00000  Uiso   1.00
O50    O     0.16666   0.12844   0.18393   0.00000  Uiso   1.00
Zn51   Zn    0.16667   0.21771   0.25000   0.00000  Uiso   1.00
Zn52   Zn    0.16667   0.11563   0.25000   0.00000  Uiso   1.00
Br53   Br    0.25654   0.17103   0.37155   0.00000  Uiso   1.00
Br54   Br    0.07679   0.16230   0.12845   0.00000  Uiso   1.00
Br55   Br    0.04315   0.12955   0.44017   0.00000  Uiso   1.00
Br56   Br    0.29019   0.20378   0.05983   0.00000  Uiso   1.00
C57    C     0.05717   0.11961   0.04026   0.00000  Uiso   1.00
N58    N     0.02858   0.10151   0.05546   0.00000  Uiso   1.00
C59    C     0.27617   0.21372   0.45974   0.00000  Uiso   1.00
N60    N     0.30475   0.23181   0.44454   0.00000  Uiso   1.00
C61    C     0.41998   0.16671   0.25024   0.00000  Uiso   1.00
C62    C     0.58002   0.16663   0.24976   0.00000  Uiso   1.00
C63    C     0.42611   0.14180   0.02048   0.00000  Uiso   1.00
C64    C     0.57389   0.19153   0.47952   0.00000  Uiso   1.00
C65    C     0.35482   0.12745   0.26273   0.00000  Uiso   1.00
C66    C     0.64518   0.20589   0.23727   0.00000  Uiso   1.00
C67    C     0.64546   0.12735   0.26243   0.00000  Uiso   1.00
C68    C     0.35454   0.20598   0.23757   0.00000  Uiso   1.00
C69    C     0.62416   0.16658   0.24972   0.00000  Uiso   1.00
C70    C     0.37584   0.16675   0.25028   0.00000  Uiso   1.00
C71    C     0.52714   0.02400   0.27661   0.00000  Uiso   1.00
C72    C     0.47286   0.30934   0.22339   0.00000  Uiso   1.00
C73    C     0.47286   0.02396   0.22339   0.00000  Uiso   1.00
C74    C     0.52714   0.30938   0.27661   0.00000  Uiso   1.00
C75    C     0.49949   0.16658   0.16360   0.00000  Uiso   1.00
C76    C     0.50051   0.16675   0.33640   0.00000  Uiso   1.00
C77    C     0.53921   0.17426   0.40679   0.00000  Uiso   1.00
C78    C     0.46079   0.15908   0.09321   0.00000  Uiso   1.00
C79    C     0.50172   0.16708   0.38400   0.00000  Uiso   1.00
C80    C     0.49828   0.16626   0.11600   0.00000  Uiso   1.00
C81    C     0.46464   0.15948   0.40576   0.00000  Uiso   1.00
C82    C     0.53536   0.17385   0.09424   0.00000  Uiso   1.00
C83    C     0.46366   0.15740   0.45203   0.00000  Uiso   1.00
C84    C     0.53634   0.17593   0.04797   0.00000  Uiso   1.00
C85    C     0.50060   0.16708   0.47655   0.00000  Uiso   1.00
C86    C     0.49940   0.16625   0.02345   0.00000  Uiso   1.00
C87    C     0.53856   0.17782   0.45401   0.00000  Uiso   1.00
C88    C     0.46144   0.15551   0.04599   0.00000  Uiso   1.00
C89    C     0.42672   0.14477   0.47380   0.00000  Uiso   1.00
C90    C     0.57328   0.18856   0.02620   0.00000  Uiso   1.00
H91    H     0.43697   0.15388   0.38558   0.00000  Uiso   1.00
H92    H     0.56303   0.17945   0.11442   0.00000  Uiso   1.00
H93    H     0.37128   0.09707   0.27297   0.00000  Uiso   1.00
H94    H     0.62872   0.23626   0.22704   0.00000  Uiso   1.00
H95    H     0.62923   0.09695   0.27254   0.00000  Uiso   1.00
H96    H     0.37077   0.23639   0.22746   0.00000  Uiso   1.00
H97    H     0.54884   0.04218   0.29789   0.00000  Uiso   1.00
H98    H     0.45116   0.29116   0.20211   0.00000  Uiso   1.00
H99    H     0.45117   0.04210   0.20210   0.00000  Uiso   1.00
H100   H     0.54883   0.29123   0.29790   0.00000  Uiso   1.00
N101   N     0.50000   0.28573   0.25000   0.00000  Uiso   1.00
N102   N     0.50000   0.04760   0.25000   0.00000  Uiso   1.00
O103   O     0.43892   0.20487   0.25000   0.00000  Uiso   1.00
O104   O     0.56108   0.12846   0.25001   0.00000  Uiso   1.00
O105   O     0.56108   0.20487   0.25001   0.00000  Uiso   1.00
O106   O     0.43892   0.12846   0.25000   0.00000  Uiso   1.00
O107   O     0.49999   0.20489   0.18393   0.00000  Uiso   1.00
O108   O     0.50001   0.12844   0.31608   0.00000  Uiso   1.00
O109   O     0.50001   0.20489   0.31608   0.00000  Uiso   1.00
O110   O     0.49999   0.12844   0.18393   0.00000  Uiso   1.00
Zn111  Zn    0.50000   0.21771   0.25000   0.00000  Uiso   1.00
Zn112  Zn    0.50000   0.11563   0.25000   0.00000  Uiso   1.00
Br113  Br    0.58987   0.17103   0.37155   0.00000  Uiso   1.00
Br114  Br    0.41013   0.16230   0.12845   0.00000  Uiso   1.00
Br115  Br    0.37648   0.12955   0.44017   0.00000  Uiso   1.00
Br116  Br    0.62352   0.20378   0.05983   0.00000  Uiso   1.00
C117   C     0.39050   0.11961   0.04026   0.00000  Uiso   1.00
N118   N     0.36192   0.10151   0.05546   0.00000  Uiso   1.00
C119   C     0.60950   0.21372   0.45974   0.00000  Uiso   1.00
N120   N     0.63809   0.23181   0.44454   0.00000  Uiso   1.00
C121   C     0.75331   0.16671   0.25024   0.00000  Uiso   1.00
C122   C     0.91335   0.16663   0.24976   0.00000  Uiso   1.00
C123   C     0.75944   0.14180   0.02048   0.00000  Uiso   1.00
C124   C     0.90723   0.19153   0.47952   0.00000  Uiso   1.00
C125   C     0.68816   0.12745   0.26273   0.00000  Uiso   1.00
C126   C     0.97851   0.20589   0.23727   0.00000  Uiso   1.00
C127   C     0.97879   0.12735   0.26243   0.00000  Uiso   1.00
C128   C     0.68787   0.20598   0.23757   0.00000  Uiso   1.00
C129   C     0.95750   0.16658   0.24972   0.00000  Uiso   1.00
C130   C     0.70917   0.16675   0.25028   0.00000  Uiso   1.00
C131   C     0.86047   0.02400   0.27661   0.00000  Uiso   1.00
C132   C     0.80619   0.30934   0.22339   0.00000  Uiso   1.00
C133   C     0.80620   0.02396   0.22339   0.00000  Uiso   1.00
C134   C     0.86047   0.30938   0.27661   0.00000  Uiso   1.00
C135   C     0.83282   0.16658   0.16360   0.00000  Uiso   1.00
C136   C     0.83384   0.16675   0.33640   0.00000  Uiso   1.00
C137   C     0.87254   0.17426   0.40679   0.00000  Uiso   1.00
C138   C     0.79412   0.15908   0.09321   0.00000  Uiso   1.00
C139   C     0.83505   0.16708   0.38400   0.00000  Uiso   1.00
C140   C     0.83162   0.16626   0.11600   0.00000  Uiso   1.00
C141   C     0.79797   0.15948   0.40576   0.00000  Uiso   1.00
C142   C     0.86870   0.17385   0.09424   0.00000  Uiso   1.00
C143   C     0.79699   0.15740   0.45203   0.00000  Uiso   1.00
C144   C     0.86967   0.17593   0.04797   0.00000  Uiso   1.00
C145   C     0.83393   0.16708   0.47655   0.00000  Uiso   1.00
C146   C     0.83274   0.16625   0.02345   0.00000  Uiso   1.00
C147   C     0.87190   0.17782   0.45401   0.00000  Uiso   1.00
C148   C     0.79477   0.15551   0.04599   0.00000  Uiso   1.00
C149   C     0.76005   0.14477   0.47380   0.00000  Uiso   1.00
C150   C     0.90661   0.18856   0.02620   0.00000  Uiso   1.00
H151   H     0.77030   0.15388   0.38558   0.00000  Uiso   1.00
H152   H     0.89636   0.17945   0.11442   0.00000  Uiso   1.00
H153   H     0.70461   0.09707   0.27297   0.00000  Uiso   1.00
H154   H     0.96206   0.23626   0.22704   0.00000  Uiso   1.00
H155   H     0.96256   0.09695   0.27254   0.00000  Uiso   1.00
H156   H     0.70410   0.23639   0.22746   0.00000  Uiso   1.00
H157   H     0.88218   0.04218   0.29789   0.00000  Uiso   1.00
H158   H     0.78449   0.29116   0.20211   0.00000  Uiso   1.00
H159   H     0.78450   0.04210   0.20210   0.00000  Uiso   1.00
H160   H     0.88217   0.29123   0.29790   0.00000  Uiso   1.00
N161   N     0.83333   0.28573   0.25000   0.00000  Uiso   1.00
N162   N     0.83333   0.04760   0.25000   0.00000  Uiso   1.00
O163   O     0.77226   0.20487   0.25000   0.00000  Uiso   1.00
O164   O     0.89441   0.12846   0.25001   0.00000  Uiso   1.00
O165   O     0.89441   0.20487   0.25001   0.00000  Uiso   1.00
O166   O     0.77226   0.12846   0.25000   0.00000  Uiso   1.00
O167   O     0.83333   0.20489   0.18393   0.00000  Uiso   1.00
O168   O     0.83334   0.12844   0.31608   0.00000  Uiso   1.00
O169   O     0.83334   0.20489   0.31608   0.00000  Uiso   1.00
O170   O     0.83333   0.12844   0.18393   0.00000  Uiso   1.00
Zn171  Zn    0.83333   0.21771   0.25000   0.00000  Uiso   1.00
Zn172  Zn    0.83333   0.11563   0.25000   0.00000  Uiso   1.00
Br173  Br    0.92321   0.17103   0.37155   0.00000  Uiso   1.00
Br174  Br    0.74346   0.16230   0.12845   0.00000  Uiso   1.00
Br175  Br    0.70981   0.12955   0.44017   0.00000  Uiso   1.00
Br176  Br    0.95685   0.20378   0.05983   0.00000  Uiso   1.00
C177   C     0.72384   0.11961   0.04026   0.00000  Uiso   1.00
N178   N     0.69525   0.10151   0.05546   0.00000  Uiso   1.00
C179   C     0.94283   0.21372   0.45974   0.00000  Uiso   1.00
N180   N     0.97142   0.23181   0.44454   0.00000  Uiso   1.00
C181   C     0.08665   0.50004   0.25024   0.00000  Uiso   1.00
C182   C     0.24668   0.49996   0.24976   0.00000  Uiso   1.00
C183   C     0.09277   0.47514   0.02048   0.00000  Uiso   1.00
C184   C     0.24056   0.52486   0.47952   0.00000  Uiso   1.00
C185   C     0.02149   0.46078   0.26273   0.00000  Uiso   1.00
C186   C     0.31184   0.53922   0.23727   0.00000  Uiso   1.00
C187   C     0.31213   0.46068   0.26243   0.00000  Uiso   1.00
C188   C     0.02121   0.53932   0.23757   0.00000  Uiso   1.00
C189   C     0.29083   0.49991   0.24972   0.00000  Uiso   1.00
C190   C     0.04250   0.50009   0.25028   0.00000  Uiso   1.00
C191   C     0.19381   0.35733   0.27661   0.00000  Uiso   1.00
C192   C     0.13953   0.64267   0.22339   0.00000  Uiso   1.00
C193   C     0.13953   0.35729   0.22339   0.00000  Uiso   1.00
C194   C     0.19380   0.64271   0.27661   0.00000  Uiso   1.00
C195   C     0.16616   0.49991   0.16360   0.00000  Uiso   1.00
C196   C     0.16717   0.50009   0.33640   0.00000  Uiso   1.00
C197   C     0.20588   0.50759   0.40679   0.00000  Uiso   1.00
C198   C     0.12746   0.49241   0.09321   0.00000  Uiso   1.00
C199   C     0.16838   0.50041   0.38400   0.00000  Uiso   1.00
C200   C     0.16495   0.49959   0.11600   0.00000  Uiso   1.00
C201   C     0.13130   0.49281   0.40576   0.00000  Uiso   1.00
C202   C     0.20203   0.50719   0.09424   0.00000  Uiso   1.00
C203   C     0.13033   0.49073   0.45203   0.00000  Uiso   1.00
C204   C     0.20301   0.50927   0.04797   0.00000  Uiso   1.00
C205   C     0.16726   0.50042   0.47655   0.00000  Uiso   1.00
C206   C     0.16607   0.49958   0.02345   0.00000  Uiso   1.00
C207   C     0.20523   0.51116   0.45401   0.00000  Uiso   1.00
C208   C     0.12810   0.48884   0.04599   0.00000  Uiso   1.00
C209   C     0.09339   0.47810   0.47380   0.00000  Uiso   1.00
C210   C     0.23995   0.52189   0.02620   0.00000  Uiso   1.00
H211   H     0.10364   0.48722   0.38558   0.00000  Uiso   1.00
H212   H     0.22970   0.51278   0.11442   0.00000  Uiso   1.00
H213   H     0.03794   0.43041   0.27297   0.00000  Uiso   1.00
H214   H     0.29539   0.56959   0.22704   0.00000  Uiso   1.00
H215   H     0.29590   0.43028   0.27254   0.00000  Uiso   1.00
H216   H     0.03743   0.56972   0.22746   0.00000  Uiso   1.00
H217   H     0.21551   0.37551   0.29789   0.00000  Uiso   1.00
H218   H     0.11782   0.62449   0.20211   0.00000  Uiso   1.00
H219   H     0.11783   0.37543   0.20210   0.00000  Uiso   1.00
H220   H     0.21550   0.62457   0.29790   0.00000  Uiso   1.00
N221   N     0.16667   0.61907   0.25000   0.00000  Uiso   1.00
N222   N     0.16667   0.38093   0.25000   0.00000  Uiso   1.00
O223   O     0.10559   0.53821   0.25000   0.00000  Uiso   1.00
O224   O     0.22774   0.46179   0.25001   0.00000  Uiso   1.00
O225   O     0.22774   0.53821   0.25001   0.00000  Uiso   1.00
O226   O     0.10559   0.46179   0.25000   0.00000  Uiso   1.00
O227   O     0.16666   0.53823   0.18393   0.00000  Uiso   1.00
O228   O     0.16667   0.46177   0.31608   0.00000  Uiso   1.00
O229   O     0.16667   0.53823   0.31608   0.00000  Uiso   1.00
O230   O     0.16666   0.46177   0.18393   0.00000  Uiso   1.00
Zn231  Zn    0.16667   0.55104   0.25000   0.00000  Uiso   1.00
Zn232  Zn    0.16667   0.44896   0.25000   0.00000  Uiso   1.00
Br233  Br    0.25654   0.50437   0.37155   0.00000  Uiso   1.00
Br234  Br    0.07679   0.49563   0.12845   0.00000  Uiso   1.00
Br235  Br    0.04315   0.46288   0.44017   0.00000  Uiso   1.00
Br236  Br    0.29019   0.53712   0.05983   0.00000  Uiso   1.00
C237   C     0.05717   0.45294   0.04026   0.00000  Uiso   1.00
N238   N     0.02858   0.43485   0.05546   0.00000  Uiso   1.00
C239   C     0.27617   0.54706   0.45974   0.00000  Uiso   1.00
N240   N     0.30475   0.56515   0.44454   0.00000  Uiso   1.00
C241   C     0.41998   0.50004   0.25024   0.00000  Uiso   1.00
C242   C     0.58002   0.49996   0.24976   0.00000  Uiso   1.00
C243   C     0.42611   0.47514   0.02048   0.00000  Uiso   1.00
C244   C     0.57389   0.52486   0.47952   0.00000  Uiso   1.00
C245   C     0.35482   0.46078   0.26273   0.00000  Uiso   1.00
C246   C     0.64518   0.53922   0.23727   0.00000  Uiso   1.00
C247   C     0.64546   0.46068   0.26243   0.00000  Uiso   1.00
C248   C     0.35454   0.53932   0.23757   0.00000  Uiso   1.00
C249   C     0.62416   0.49991   0.24972   0.00000  Uiso   1.00
C250   C     0.37584   0.50009   0.25028   0.00000  Uiso   1.00
C251   C     0.52714   0.35733   0.27661   0.00000  Uiso   1.00
C252   C     0.47286   0.64267   0.22339   0.00000  Uiso   1.00
C253   C     0.47286   0.35729   0.22339   0.00000  Uiso   1.00
C254   C     0.52714   0.64271   0.27661   0.00000  Uiso   1.00
C255   C     0.49949   0.49991   0.16360   0.00000  Uiso   1.00
C256   C     0.50051   0.50009   0.33640   0.00000  Uiso   1.00
C257   C     0.53921   0.50759   0.40679   0.00000  Uiso   1.00
C258   C     0.46079   0.49241   0.09321   0.00000  Uiso   1.00
C259   C     0.50172   0.50041   0.38400   0.00000  Uiso   1.00
C260   C     0.49828   0.49959   0.11600   0.00000  Uiso   1.00
C261   C     0.46464   0.49281   0.40576   0.00000  Uiso   1.00
C262   C     0.53536   0.50719   0.09424   0.00000  Uiso   1.00
C263   C     0.46366   0.49073   0.45203   0.00000  Uiso   1.00
C264   C     0.53634   0.50927   0.04797   0.00000  Uiso   1.00
C265   C     0.50060   0.50042   0.47655   0.00000  Uiso   1.00
C266   C     0.49940   0.49958   0.02345   0.00000  Uiso   1.00
C267   C     0.53856   0.51116   0.45401   0.00000  Uiso   1.00
C268   C     0.46144   0.48884   0.04599   0.00000  Uiso   1.00
C269   C     0.42672   0.47810   0.47380   0.00000  Uiso   1.00
C270   C     0.57328   0.52189   0.02620   0.00000  Uiso   1.00
H271   H     0.43697   0.48722   0.38558   0.00000  Uiso   1.00
H272   H     0.56303   0.51278   0.11442   0.00000  Uiso   1.00
H273   H     0.37128   0.43041   0.27297   0.00000  Uiso   1.00
H274   H     0.62872   0.56959   0.22704   0.00000  Uiso   1.00
H275   H     0.62923   0.43028   0.27254   0.00000  Uiso   1.00
H276   H     0.37077   0.56972   0.22746   0.00000  Uiso   1.00
H277   H     0.54884   0.37551   0.29789   0.00000  Uiso   1.00
H278   H     0.45116   0.62449   0.20211   0.00000  Uiso   1.00
H279   H     0.45117   0.37543   0.20210   0.00000  Uiso   1.00
H280   H     0.54883   0.62457   0.29790   0.00000  Uiso   1.00
N281   N     0.50000   0.61907   0.25000   0.00000  Uiso   1.00
N282   N     0.50000   0.38093   0.25000   0.00000  Uiso   1.00
O283   O     0.43892   0.53821   0.25000   0.00000  Uiso   1.00
O284   O     0.56108   0.46179   0.25001   0.00000  Uiso   1.00
O285   O     0.56108   0.53821   0.25001   0.00000  Uiso   1.00
O286   O     0.43892   0.46179   0.25000   0.00000  Uiso   1.00
O287   O     0.49999   0.53823   0.18393   0.00000  Uiso   1.00
O288   O     0.50001   0.46177   0.31608   0.00000  Uiso   1.00
O289   O     0.50001   0.53823   0.31608   0.00000  Uiso   1.00
O290   O     0.49999   0.46177   0.18393   0.00000  Uiso   1.00
Zn291  Zn    0.50000   0.55104   0.25000   0.00000  Uiso   1.00
Zn292  Zn    0.50000   0.44896   0.25000   0.00000  Uiso   1.00
Br293  Br    0.58987   0.50437   0.37155   0.00000  Uiso   1.00
Br294  Br    0.41013   0.49563   0.12845   0.00000  Uiso   1.00
Br295  Br    0.37648   0.46288   0.44017   0.00000  Uiso   1.00
Br296  Br    0.62352   0.53712   0.05983   0.00000  Uiso   1.00
C297   C     0.39050   0.45294   0.04026   0.00000  Uiso   1.00
N298   N     0.36192   0.43485   0.05546   0.00000  Uiso   1.00
C299   C     0.60950   0.54706   0.45974   0.00000  Uiso   1.00
N300   N     0.63809   0.56515   0.44454   0.00000  Uiso   1.00
C301   C     0.75331   0.50004   0.25024   0.00000  Uiso   1.00
C302   C     0.91335   0.49996   0.24976   0.00000  Uiso   1.00
C303   C     0.75944   0.47514   0.02048   0.00000  Uiso   1.00
C304   C     0.90723   0.52486   0.47952   0.00000  Uiso   1.00
C305   C     0.68816   0.46078   0.26273   0.00000  Uiso   1.00
C306   C     0.97851   0.53922   0.23727   0.00000  Uiso   1.00
C307   C     0.97879   0.46068   0.26243   0.00000  Uiso   1.00
C308   C     0.68787   0.53932   0.23757   0.00000  Uiso   1.00
C309   C     0.95750   0.49991   0.24972   0.00000  Uiso   1.00
C310   C     0.70917   0.50009   0.25028   0.00000  Uiso   1.00
C311   C     0.86047   0.35733   0.27661   0.00000  Uiso   1.00
C312   C     0.80619   0.64267   0.22339   0.00000  Uiso   1.00
C313   C     0.80620   0.35729   0.22339   0.00000  Uiso   1.00
C314   C     0.86047   0.64271   0.27661   0.00000  Uiso   1.00
C315   C     0.83282   0.49991   0.16360   0.00000  Uiso   1.00
C316   C     0.83384   0.50009   0.33640   0.00000  Uiso   1.00
C317   C     0.87254   0.50759   0.40679   0.00000  Uiso   1.00
C318   C     0.79412   0.49241   0.09321   0.00000  Uiso   1.00
C319   C     0.83505   0.50041   0.38400   0.00000  Uiso   1.00
C320   C     0.83162   0.49959   0.11600   0.00000  Uiso   1.00
C321   C     0.79797   0.49281   0.40576   0.00000  Uiso   1.00
C322   C     0.86870   0.50719   0.09424   0.00000  Uiso   1.00
C323   C     0.79699   0.49073   0.45203   0.00000  Uiso   1.00
C324   C     0.86967   0.50927   0.04797   0.00000  Uiso   1.00
C325   C     0.83393   0.50042   0.47655   0.00000  Uiso   1.00
C326   C     0.83274   0.49958   0.02345   0.00000  Uiso   1.00
C327   C     0.87190   0.51116   0.45401   0.00000  Uiso   1.00
C328   C     0.79477   0.48884   0.04599   0.00000  Uiso   1.00
C329   C     0.76005   0.47810   0.47380   0.00000  Uiso   1.00
C330   C     0.90661   0.52189   0.02620   0.00000  Uiso   1.00
H331   H     0.77030   0.48722   0.38558   0.00000  Uiso   1.00
H332   H     0.89636   0.51278   0.11442   0.00000  Uiso   1.00
H333   H     0.70461   0.43041   0.27297   0.00000  Uiso   1.00
H334   H     0.96206   0.56959   0.22704   0.00000  Uiso   1.00
H335   H     0.96256   0.43028   0.27254   0.00000  Uiso   1.00
H336   H     0.70410   0.56972   0.22746   0.00000  Uiso   1.00
H337   H     0.88218   0.37551   0.29789   0.00000  Uiso   1.00
H338   H     0.78449   0.62449   0.20211   0.00000  Uiso   1.00
H339   H     0.78450   0.37543   0.20210   0.00000  Uiso   1.00
H340   H     0.88217   0.62457   0.29790   0.00000  Uiso   1.00
N341   N     0.83333   0.61907   0.25000   0.00000  Uiso   1.00
N342   N     0.83333   0.38093   0.25000   0.00000  Uiso   1.00
O343   O     0.77226   0.53821   0.25000   0.00000  Uiso   1.00
O344   O     0.89441   0.46179   0.25001   0.00000  Uiso   1.00
O345   O     0.89441   0.53821   0.25001   0.00000  Uiso   1.00
O346   O     0.77226   0.46179   0.25000   0.00000  Uiso   1.00
O347   O     0.83333   0.53823   0.18393   0.00000  Uiso   1.00
O348   O     0.83334   0.46177   0.31608   0.00000  Uiso   1.00
O349   O     0.83334   0.53823   0.31608   0.00000  Uiso   1.00
O350   O     0.83333   0.46177   0.18393   0.00000  Uiso   1.00
Zn351  Zn    0.83333   0.55104   0.25000   0.00000  Uiso   1.00
Zn352  Zn    0.83333   0.44896   0.25000   0.00000  Uiso   1.00
Br353  Br    0.92321   0.50437   0.37155   0.00000  Uiso   1.00
Br354  Br    0.74346   0.49563   0.12845   0.00000  Uiso   1.00
Br355  Br    0.70981   0.46288   0.44017   0.00000  Uiso   1.00
Br356  Br    0.95685   0.53712   0.05983   0.00000  Uiso   1.00
C357   C     0.72384   0.45294   0.04026   0.00000  Uiso   1.00
N358   N     0.69525   0.43485   0.05546   0.00000  Uiso   1.00
C359   C     0.94283   0.54706   0.45974   0.00000  Uiso   1.00
N360   N     0.97142   0.56515   0.44454   0.00000  Uiso   1.00
C361   C     0.08665   0.83337   0.25024   0.00000  Uiso   1.00
C362   C     0.24668   0.83329   0.24976   0.00000  Uiso   1.00
C363   C     0.09277   0.80847   0.02048   0.00000  Uiso   1.00
C364   C     0.24056   0.85819   0.47952   0.00000  Uiso   1.00
C365   C     0.02149   0.79411   0.26273   0.00000  Uiso   1.00
C366   C     0.31184   0.87255   0.23727   0.00000  Uiso   1.00
C367   C     0.31213   0.79402   0.26243   0.00000  Uiso   1.00
C368   C     0.02121   0.87265   0.23757   0.00000  Uiso   1.00
C369   C     0.29083   0.83325   0.24972   0.00000  Uiso   1.00
C370   C     0.04250   0.83342   0.25028   0.00000  Uiso   1.00
C371   C     0.19381   0.69066   0.27661   0.00000  Uiso   1.00
C372   C     0.13953   0.97600   0.22339   0.00000  Uiso   1.00
C373   C     0.13953   0.69062   0.22339   0.00000  Uiso   1.00
C374   C     0.19380   0.97604   0.27661   0.00000  Uiso   1.00
C375   C     0.16616   0.83325   0.16360   0.00000  Uiso   1.00
C376   C     0.16717   0.83342   0.33640   0.00000  Uiso   1.00
C377   C     0.20588   0.84092   0.40679   0.00000  Uiso   1.00
C378   C     0.12746   0.82574   0.09321   0.00000  Uiso   1.00
C379   C     0.16838   0.83374   0.38400   0.00000  Uiso   1.00
C380   C     0.16495   0.83292   0.11600   0.00000  Uiso   1.00
C381   C     0.13130   0.82614   0.40576   0.00000  Uiso   1.00
C382   C     0.20203   0.84052   0.09424   0.00000  Uiso   1.00
C383   C     0.13033   0.82407   0.45203   0.00000  Uiso   1.00
C384   C     0.20301   0.84260   0.04797   0.00000  Uiso   1.00
C385   C     0.16726   0.83375   0.47655   0.00000  Uiso   1.00
C386   C     0.16607   0.83292   0.02345   0.00000  Uiso   1.00
C387   C     0.20523   0.84449   0.45401   0.00000  Uiso   1.00
C388   C     0.12810   0.82217   0.04599   0.00000  Uiso   1.00
C389   C     0.09339   0.81144   0.47380   0.00000  Uiso   1.00
C390   C     0.23995   0.85523   0.02620   0.00000  Uiso   1.00
H391   H     0.10364   0.82055   0.38558   0.00000  Uiso   1.00
H392   H     0.22970   0.84612   0.11442   0.00000  Uiso   1.00
H393   H     0.03794   0.76374   0.27297   0.00000  Uiso   1.00
H394   H     0.29539   0.90293   0.22704   0.00000  Uiso   1.00
H395   H     0.29590   0.76361   0.27254   0.00000  Uiso   1.00
H396   H     0.03743   0.90305   0.22746   0.00000  Uiso   1.00
H397   H     0.21551   0.70884   0.29789   0.00000  Uiso   1.00
H398   H     0.11782   0.95782   0.20211   0.00000  Uiso   1.00
H399   H     0.11783   0.70877   0.20210   0.00000  Uiso   1.00
H400   H     0.21550   0.95790   0.29790   0.00000  Uiso   1.00
N401   N     0.16667   0.95240   0.25000   0.00000  Uiso   1.00
N402   N     0.16667   0.71427   0.25000   0.00000  Uiso   1.00
O403   O     0.10559   0.87154   0.25000   0.00000  Uiso   1.00
O404   O     0.22774   0.79513   0.25001   0.00000  Uiso   1.00
O405   O     0.22774   0.87154   0.25001   0.00000  Uiso   1.00
O406   O     0.10559   0.79513   0.25000   0.00000  Uiso   1.00
O407   O     0.16666   0.87156   0.18393   0.00000  Uiso   1.00
O408   O     0.16667   0.79511   0.31608   0.00000  Uiso   1.00
O409   O     0.16667   0.87156   0.31608   0.00000  Uiso   1.00
O410   O     0.16666   0.79511   0.18393   0.00000  Uiso   1.00
Zn411  Zn    0.16667   0.88437   0.25000   0.00000  Uiso   1.00
Zn412  Zn    0.16667   0.78229   0.25000   0.00000  Uiso   1.00
Br413  Br    0.25654   0.83770   0.37155   0.00000  Uiso   1.00
Br414  Br    0.07679   0.82897   0.12845   0.00000  Uiso   1.00
Br415  Br    0.04315   0.79621   0.44017   0.00000  Uiso   1.00
Br416  Br    0.29019   0.87045   0.05983   0.00000  Uiso   1.00
C417   C     0.05717   0.78627   0.04026   0.00000  Uiso   1.00
N418   N     0.02858   0.76818   0.05546   0.00000  Uiso   1.00
C419   C     0.27617   0.88039   0.45974   0.00000  Uiso   1.00
N420   N     0.30475   0.89848   0.44454   0.00000  Uiso   1.00
C421   C     0.41998   0.83337   0.25024   0.00000  Uiso   1.00
C422   C     0.58002   0.83329   0.24976   0.00000  Uiso   1.00
C423   C     0.42611   0.80847   0.02048   0.00000  Uiso   1.00
C424   C     0.57389   0.85819   0.47952   0.00000  Uiso   1.00
C425   C     0.35482   0.79411   0.26273   0.00000  Uiso   1.00
C426   C     0.64518   0.87255   0.23727   0.00000  Uiso   1.00
C427   C     0.64546   0.79402   0.26243   0.00000  Uiso   1.00
C428   C     0.35454   0.87265   0.23757   0.00000  Uiso   1.00
C429   C     0.62416   0.83325   0.24972   0.00000  Uiso   1.00
C430   C     0.37584   0.83342   0.25028   0.00000  Uiso   1.00
C431   C     0.52714   0.69066   0.27661   0.00000  Uiso   1.00
C432   C     0.47286   0.97600   0.22339   0.00000  Uiso   1.00
C433   C     0.47286   0.69062   0.22339   0.00000  Uiso   1.00
C434   C     0.52714   0.97604   0.27661   0.00000  Uiso   1.00
C435   C     0.49949   0.83325   0.16360   0.00000  Uiso   1.00
C436   C     0.50051   0.83342   0.33640   0.00000  Uiso   1.00
C437   C     0.53921   0.84092   0.40679   0.00000  Uiso   1.00
C438   C     0.46079   0.82574   0.09321   0.00000  Uiso   1.00
C439   C     0.50172   0.83374   0.38400   0.00000  Uiso   1.00
C440   C     0.49828   0.83292   0.11600   0.00000  Uiso   1.00
C441   C     0.46464   0.82614   0.40576   0.00000  Uiso   1.00
C442   C     0.53536   0.84052   0.09424   0.00000  Uiso   1.00
C443   C     0.46366   0.82407   0.45203   0.00000  Uiso   1.00
C444   C     0.53634   0.84260   0.04797   0.00000  Uiso   1.00
C445   C     0.50060   0.83375   0.47655   0.00000  Uiso   1.00
C446   C     0.49940   0.83292   0.02345   0.00000  Uiso   1.00
C447   C     0.53856   0.84449   0.45401   0.00000  Uiso   1.00
C448   C     0.46144   0.82217   0.04599   0.00000  Uiso   1.00
C449   C     0.42672   0.81144   0.47380   0.00000  Uiso   1.00
C450   C     0.57328   0.85523   0.02620   0.00000  Uiso   1.00
H451   H     0.43697   0.82055   0.38558   0.00000  Uiso   1.00
H452   H     0.56303   0.84612   0.11442   0.00000  Uiso   1.00
H453   H     0.37128   0.76374   0.27297   0.00000  Uiso   1.00
H454   H     0.62872   0.90293   0.22704   0.00000  Uiso   1.00
H455   H     0.62923   0.76361   0.27254   0.00000  Uiso   1.00
H456   H     0.37077   0.90305   0.22746   0.00000  Uiso   1.00
H457   H     0.54884   0.70884   0.29789   0.00000  Uiso   1.00
H458   H     0.45116   0.95782   0.20211   0.00000  Uiso   1.00
H459   H     0.45117   0.70877   0.20210   0.00000  Uiso   1.00
H460   H     0.54883   0.95790   0.29790   0.00000  Uiso   1.00
N461   N     0.50000   0.95240   0.25000   0.00000  Uiso   1.00
N462   N     0.50000   0.71427   0.25000   0.00000  Uiso   1.00
O463   O     0.43892   0.87154   0.25000   0.00000  Uiso   1.00
O464   O     0.56108   0.79513   0.25001   0.00000  Uiso   1.00
O465   O     0.56108   0.87154   0.25001   0.00000  Uiso   1.00
O466   O     0.43892   0.79513   0.25000   0.00000  Uiso   1.00
O467   O     0.49999   0.87156   0.18393   0.00000  Uiso   1.00
O468   O     0.50001   0.79511   0.31608   0.00000  Uiso   1.00
O469   O     0.50001   0.87156   0.31608   0.00000  Uiso   1.00
O470   O     0.49999   0.79511   0.18393   0.00000  Uiso   1.00
Zn471  Zn    0.50000   0.88437   0.25000   0.00000  Uiso   1.00
Zn472  Zn    0.50000   0.78229   0.25000   0.00000  Uiso   1.00
Br473  Br    0.58987   0.83770   0.37155   0.00000  Uiso   1.00
Br474  Br    0.41013   0.82897   0.12845   0.00000  Uiso   1.00
Br475  Br    0.37648   0.79621   0.44017   0.00000  Uiso   1.00
Br476  Br    0.62352   0.87045   0.05983   0.00000  Uiso   1.00
C477   C     0.39050   0.78627   0.04026   0.00000  Uiso   1.00
N478   N     0.36192   0.76818   0.05546   0.00000  Uiso   1.00
C479   C     0.60950   0.88039   0.45974   0.00000  Uiso   1.00
N480   N     0.63809   0.89848   0.44454   0.00000  Uiso   1.00
C481   C     0.75331   0.83337   0.25024   0.00000  Uiso   1.00
C482   C     0.91335   0.83329   0.24976   0.00000  Uiso   1.00
C483   C     0.75944   0.80847   0.02048   0.00000  Uiso   1.00
C484   C     0.90723   0.85819   0.47952   0.00000  Uiso   1.00
C485   C     0.68816   0.79411   0.26273   0.00000  Uiso   1.00
C486   C     0.97851   0.87255   0.23727   0.00000  Uiso   1.00
C487   C     0.97879   0.79402   0.26243   0.00000  Uiso   1.00
C488   C     0.68787   0.87265   0.23757   0.00000  Uiso   1.00
C489   C     0.95750   0.83325   0.24972   0.00000  Uiso   1.00
C490   C     0.70917   0.83342   0.25028   0.00000  Uiso   1.00
C491   C     0.86047   0.69066   0.27661   0.00000  Uiso   1.00
C492   C     0.80619   0.97600   0.22339   0.00000  Uiso   1.00
C493   C     0.80620   0.69062   0.22339   0.00000  Uiso   1.00
C494   C     0.86047   0.97604   0.27661   0.00000  Uiso   1.00
C495   C     0.83282   0.83325   0.16360   0.00000  Uiso   1.00
C496   C     0.83384   0.83342   0.33640   0.00000  Uiso   1.00
C497   C     0.87254   0.84092   0.40679   0.00000  Uiso   1.00
C498   C     0.79412   0.82574   0.09321   0.00000  Uiso   1.00
C499   C     0.83505   0.83374   0.38400   0.00000  Uiso   1.00
C500   C     0.83162   0.83292   0.11600   0.00000  Uiso   1.00
C501   C     0.79797   0.82614   0.40576   0.00000  Uiso   1.00
C502   C     0.86870   0.84052   0.09424   0.00000  Uiso   1.00
C503   C     0.79699   0.82407   0.45203   0.00000  Uiso   1.00
C504   C     0.86967   0.84260   0.04797   0.00000  Uiso   1.00
C505   C     0.83393   0.83375   0.47655   0.00000  Uiso   1.00
C506   C     0.83274   0.83292   0.02345   0.00000  Uiso   1.00
C507   C     0.87190   0.84449   0.45401   0.00000  Uiso   1.00
C508   C     0.79477   0.82217   0.04599   0.00000  Uiso   1.00
C509   C     0.76005   0.81144   0.47380   0.00000  Uiso   1.00
C510   C     0.90661   0.85523   0.02620   0.00000  Uiso   1.00
H511   H     0.77030   0.82055   0.38558   0.00000  Uiso   1.00
H512   H     0.89636   0.84612   0.11442   0.00000  Uiso   1.00
H513   H     0.70461   0.76374   0.27297   0.00000  Uiso   1.00
H514   H     0.96206   0.90293   0.22704   0.00000  Uiso   1.00
H515   H     0.96256   0.76361   0.27254   0.00000  Uiso   1.00
H516   H     0.70410   0.90305   0.22746   0.00000  Uiso   1.00
H517   H     0.88218   0.70884   0.29789   0.00000  Uiso   1.00
H518   H     0.78449   0.95782   0.20211   0.00000  Uiso   1.00
H519   H     0.78450   0.70877   0.20210   0.00000  Uiso   1.00
H520   H     0.88217   0.95790   0.29790   0.00000  Uiso   1.00
N521   N     0.83333   0.95240   0.25000   0.00000  Uiso   1.00
N522   N     0.83333   0.71427   0.25000   0.00000  Uiso   1.00
O523   O     0.77226   0.87154   0.25000   0.00000  Uiso   1.00
O524   O     0.89441   0.79513   0.25001   0.00000  Uiso   1.00
O525   O     0.89441   0.87154   0.25001   0.00000  Uiso   1.00
O526   O     0.77226   0.79513   0.25000   0.00000  Uiso   1.00
O527   O     0.83333   0.87156   0.18393   0.00000  Uiso   1.00
O528   O     0.83334   0.79511   0.31608   0.00000  Uiso   1.00
O529   O     0.83334   0.87156   0.31608   0.00000  Uiso   1.00
O530   O     0.83333   0.79511   0.18393   0.00000  Uiso   1.00
Zn531  Zn    0.83333   0.88437   0.25000   0.00000  Uiso   1.00
Zn532  Zn    0.83333   0.78229   0.25000   0.00000  Uiso   1.00
Br533  Br    0.92321   0.83770   0.37155   0.00000  Uiso   1.00
Br534  Br    0.74346   0.82897   0.12845   0.00000  Uiso   1.00
Br535  Br    0.70981   0.79621   0.44017   0.00000  Uiso   1.00
Br536  Br    0.95685   0.87045   0.05983   0.00000  Uiso   1.00
C537   C     0.72384   0.78627   0.04026   0.00000  Uiso   1.00
N538   N     0.69525   0.76818   0.05546   0.00000  Uiso   1.00
C539   C     0.94283   0.88039   0.45974   0.00000  Uiso   1.00
N540   N     0.97142   0.89848   0.44454   0.00000  Uiso   1.00
C541   C     0.08665   0.16671   0.75024   0.00000  Uiso   1.00
C542   C     0.24668   0.16663   0.74976   0.00000  Uiso   1.00
C543   C     0.09277   0.14180   0.52048   0.00000  Uiso   1.00
C544   C     0.24056   0.19153   0.97952   0.00000  Uiso   1.00
C545   C     0.02149   0.12745   0.76273   0.00000  Uiso   1.00
C546   C     0.31184   0.20589   0.73727   0.00000  Uiso   1.00
C547   C     0.31213   0.12735   0.76243   0.00000  Uiso   1.00
C548   C     0.02121   0.20598   0.73757   0.00000  Uiso   1.00
C549   C     0.29083   0.16658   0.74972   0.00000  Uiso   1.00
C550   C     0.04250   0.16675   0.75028   0.00000  Uiso   1.00
C551   C     0.19381   0.02400   0.77661   0.00000  Uiso   1.00
C552   C     0.13953   0.30934   0.72339   0.00000  Uiso   1.00
C553   C     0.13953   0.02396   0.72339   0.00000  Uiso   1.00
C554   C     0.19380   0.30938   0.77661   0.00000  Uiso   1.00
C555   C     0.16616   0.16658   0.66360   0.00000  Uiso   1.00
C556   C     0.16717   0.16675   0.83640   0.00000  Uiso   1.00
C557   C     0.20588   0.17426   0.90679   0.00000  Uiso   1.00
C558   C     0.12746   0.15908   0.59321   0.00000  Uiso   1.00
C559   C     0.16838   0.16708   0.88400   0.00000  Uiso   1.00
C560   C     0.16495   0.16626   0.61600   0.00000  Uiso   1.00
C561   C     0.13130   0.15948   0.90576   0.00000  Uiso   1.00
C562   C     0.20203   0.17385   0.59424   0.00000  Uiso   1.00
C563   C     0.13033   0.15740   0.95203   0.00000  Uiso   1.00
C564   C     0.20301   0.17593   0.54797   0.00000  Uiso   1.00
C565   C     0.16726   0.16708   0.97655   0.00000  Uiso   1.00
C566   C     0.16607   0.16625   0.52345   0.00000  Uiso   1.00
C567   C     0.20523   0.17782   0.95401   0.00000  Uiso   1.00
C568   C     0.12810   0.15551   0.54599   0.00000  Uiso   1.00
C569   C     0.09339   0.14477   0.97380   0.00000  Uiso   1.00
C570   C     0.23995   0.18856   0.52620   0.00000  Uiso   1.00
H571   H     0.10364   0.15388   0.88558   0.00000  Uiso   1.00
H572   H     0.22970   0.17945   0.61442   0.00000  Uiso   1.00
H573   H     0.03794   0.09707   0.77297   0.00000  Uiso   1.00
H574   H     0.29539   0.23626   0.72704   0.00000  Uiso   1.00
H575   H     0.29590   0.09695   0.77254   0.00000  Uiso   1.00
H576   H     0.03743   0.23639   0.72746   0.00000  Uiso   1.00
H577   H     0.21551   0.04218   0.79789   0.00000  Uiso   1.00
H578   H     0.11782   0.29116   0.70211   0.00000  Uiso   1.00
H579   H     0.11783   0.04210   0.70210   0.00000  Uiso   1.00
H580   H     0.21550   0.29123   0.79790   0.00000  Uiso   1.00
N581   N     0.16667   0.28573   0.75000   0.00000  Uiso   1.00
N582   N     0.16667   0.04760   0.75000   0.00000  Uiso   1.00
O583   O     0.10559   0.20487   0.75000   0.00000  Uiso   1.00
O584   O     0.22774   0.12846   0.75001   0.00000  Uiso   1.00
O585   O     0.22774   0.20487   0.75001   0.00000  Uiso   1.00
O586   O     0.10559   0.12846   0.75000   0.00000  Uiso   1.00
O587   O     0.16666   0.20489   0.68393   0.00000  Uiso   1.00
O588   O     0.16667   0.12844   0.81608   0.00000  Uiso   1.00
O589   O     0.16667   0.20489   0.81608   0.00000  Uiso   1.00
O590   O     0.16666   0.12844   0.68393   0.00000  Uiso   1.00
Zn591  Zn    0.16667   0.21771   0.75000   0.00000  Uiso   1.00
Zn592  Zn    0.16667   0.11563   0.75000   0.00000  Uiso   1.00
Br593  Br    0.25654   0.17103   0.87155   0.00000  Uiso   1.00
Br594  Br    0.07679   0.16230   0.62845   0.00000  Uiso   1.00
Br595  Br    0.04315   0.12955   0.94017   0.00000  Uiso   1.00
Br596  Br    0.29019   0.20378   0.55983   0.00000  Uiso   1.00
C597   C     0.05717   0.11961   0.54026   0.00000  Uiso   1.00
N598   N     0.02858   0.10151   0.55546   0.00000  Uiso   1.00
C599   C     0.27617   0.21372   0.95974   0.00000  Uiso   1.00
N600   N     0.30475   0.23181   0.94454   0.00000  Uiso   1.00
C601   C     0.41998   0.16671   0.75024   0.00000  Uiso   1.00
C602   C     0.58002   0.16663   0.74976   0.00000  Uiso   1.00
C603   C     0.42611   0.14180   0.52048   0.00000  Uiso   1.00
C604   C     0.57389   0.19153   0.97952   0.00000  Uiso   1.00
C605   C     0.35482   0.12745   0.76273   0.00000  Uiso   1.00
C606   C     0.64518   0.20589   0.73727   0.00000  Uiso   1.00
C607   C     0.64546   0.12735   0.76243   0.00000  Uiso   1.00
C608   C     0.35454   0.20598   0.73757   0.00000  Uiso   1.00
C609   C     0.62416   0.16658   0.74972   0.00000  Uiso   1.00
C610   C     0.37584   0.16675   0.75028   0.00000  Uiso   1.00
C611   C     0.52714   0.02400   0.77661   0.00000  Uiso   1.00
C612   C     0.47286   0.30934   0.72339   0.00000  Uiso   1.00
C613   C     0.47286   0.02396   0.72339   0.00000  Uiso   1.00
C614   C     0.52714   0.30938   0.77661   0.00000  Uiso   1.00
C615   C     0.49949   0.16658   0.66360   0.00000  Uiso   1.00
C616   C     0.50051   0.16675   0.83640   0.00000  Uiso   1.00
C617   C     0.53921   0.17426   0.90679   0.00000  Uiso   1.00
C618   C     0.46079   0.15908   0.59321   0.00000  Uiso   1.00
C619   C     0.50172   0.16708   0.88400   0.00000  Uiso   1.00
C620   C     0.49828   0.16626   0.61600   0.00000  Uiso   1.00
C621   C     0.46464   0.15948   0.90576   0.00000  Uiso   1.00
C622   C     0.53536   0.17385   0.59424   0.00000  Uiso   1.00
C623   C     0.46366   0.15740   0.95203   0.00000  Uiso   1.00
C624   C     0.53634   0.17593   0.54797   0.00000  Uiso   1.00
C625   C     0.50060   0.16708   0.97655   0.00000  Uiso   1.00
C626   C     0.49940   0.16625   0.52345   0.00000  Uiso   1.00
C627   C     0.53856   0.17782   0.95401   0.00000  Uiso   1.00
C628   C     0.46144   0.15551   0.54599   0.00000  Uiso   1.00
C629   C     0.42672   0.14477   0.97380   0.00000  Uiso   1.00
C630   C     0.57328   0.18856   0.52620   0.00000  Uiso   1.00
H631   H     0.43697   0.15388   0.88558   0.00000  Uiso   1.00
H632   H     0.56303   0.17945   0.61442   0.00000  Uiso   1.00
H633   H     0.37128   0.09707   0.77297   0.00000  Uiso   1.00
H634   H     0.62872   0.23626   0.72704   0.00000  Uiso   1.00
H635   H     0.62923   0.09695   0.77254   0.00000  Uiso   1.00
H636   H     0.37077   0.23639   0.72746   0.00000  Uiso   1.00
H637   H     0.54884   0.04218   0.79789   0.00000  Uiso   1.00
H638   H     0.45116   0.29116   0.70211   0.00000  Uiso   1.00
H639   H     0.45117   0.04210   0.70210   0.00000  Uiso   1.00
H640   H     0.54883   0.29123   0.79790   0.00000  Uiso   1.00
N641   N     0.50000   0.28573   0.75000   0.00000  Uiso   1.00
N642   N     0.50000   0.04760   0.75000   0.00000  Uiso   1.00
O643   O     0.43892   0.20487   0.75000   0.00000  Uiso   1.00
O644   O     0.56108   0.12846   0.75001   0.00000  Uiso   1.00
O645   O     0.56108   0.20487   0.75001   0.00000  Uiso   1.00
O646   O     0.43892   0.12846   0.75000   0.00000  Uiso   1.00
O647   O     0.49999   0.20489   0.68393   0.00000  Uiso   1.00
O648   O     0.50001   0.12844   0.81608   0.00000  Uiso   1.00
O649   O     0.50001   0.20489   0.81608   0.00000  Uiso   1.00
O650   O     0.49999   0.12844   0.68393   0.00000  Uiso   1.00
Zn651  Zn    0.50000   0.21771   0.75000   0.00000  Uiso   1.00
Zn652  Zn    0.50000   0.11563   0.75000   0.00000  Uiso   1.00
Br653  Br    0.58987   0.17103   0.87155   0.00000  Uiso   1.00
Br654  Br    0.41013   0.16230   0.62845   0.00000  Uiso   1.00
Br655  Br    0.37648   0.12955   0.94017   0.00000  Uiso   1.00
Br656  Br    0.62352   0.20378   0.55983   0.00000  Uiso   1.00
C657   C     0.39050   0.11961   0.54026   0.00000  Uiso   1.00
N658   N     0.36192   0.10151   0.55546   0.00000  Uiso   1.00
C659   C     0.60950   0.21372   0.95974   0.00000  Uiso   1.00
N660   N     0.63809   0.23181   0.94454   0.00000  Uiso   1.00
C661   C     0.75331   0.16671   0.75024   0.00000  Uiso   1.00
C662   C     0.91335   0.16663   0.74976   0.00000  Uiso   1.00
C663   C     0.75944   0.14180   0.52048   0.00000  Uiso   1.00
C664   C     0.90723   0.19153   0.97952   0.00000  Uiso   1.00
C665   C     0.68816   0.12745   0.76273   0.00000  Uiso   1.00
C666   C     0.97851   0.20589   0.73727   0.00000  Uiso   1.00
C667   C     0.97879   0.12735   0.76243   0.00000  Uiso   1.00
C668   C     0.68787   0.20598   0.73757   0.00000  Uiso   1.00
C669   C     0.95750   0.16658   0.74972   0.00000  Uiso   1.00
C670   C     0.70917   0.16675   0.75028   0.00000  Uiso   1.00
C671   C     0.86047   0.02400   0.77661   0.00000  Uiso   1.00
C672   C     0.80619   0.30934   0.72339   0.00000  Uiso   1.00
C673   C     0.80620   0.02396   0.72339   0.00000  Uiso   1.00
C674   C     0.86047   0.30938   0.77661   0.00000  Uiso   1.00
C675   C     0.83282   0.16658   0.66360   0.00000  Uiso   1.00
C676   C     0.83384   0.16675   0.83640   0.00000  Uiso   1.00
C677   C     0.87254   0.17426   0.90679   0.00000  Uiso   1.00
C678   C     0.79412   0.15908   0.59321   0.00000  Uiso   1.00
C679   C     0.83505   0.16708   0.88400   0.00000  Uiso   1.00
C680   C     0.83162   0.16626   0.61600   0.00000  Uiso   1.00
C681   C     0.79797   0.15948   0.90576   0.00000  Uiso   1.00
C682   C     0.86870   0.17385   0.59424   0.00000  Uiso   1.00
C683   C     0.79699   0.15740   0.95203   0.00000  Uiso   1.00
C684   C     0.86967   0.17593   0.54797   0.00000  Uiso   1.00
C685   C     0.83393   0.16708   0.97655   0.00000  Uiso   1.00
C686   C     0.83274   0.16625   0.52345   0.00000  Uiso   1.00
C687   C     0.87190   0.17782   0.95401   0.00000  Uiso   1.00
C688   C     0.79477   0.15551   0.54599   0.00000  Uiso   1.00
C689   C     0.76005   0.14477   0.97380   0.00000  Uiso   1.00
C690   C     0.90661   0.18856   0.52620   0.00000  Uiso   1.00
H691   H     0.77030   0.15388   0.88558   0.00000  Uiso   1.00
H692   H     0.89636   0.17945   0.61442   0.00000  Uiso   1.00
H693   H     0.70461   0.09707   0.77297   0.00000  Uiso   1.00
H694   H     0.96206   0.23626   0.72704   0.00000  Uiso   1.00
H695   H     0.96256   0.09695   0.77254   0.00000  Uiso   1.00
H696   H     0.70410   0.23639   0.72746   0.00000  Uiso   1.00
H697   H     0.88218   0.04218   0.79789   0.00000  Uiso   1.00
H698   H     0.78449   0.29116   0.70211   0.00000  Uiso   1.00
H699   H     0.78450   0.04210   0.70210   0.00000  Uiso   1.00
H700   H     0.88217   0.29123   0.79790   0.00000  Uiso   1.00
N701   N     0.83333   0.28573   0.75000   0.00000  Uiso   1.00
N702   N     0.83333   0.04760   0.75000   0.00000  Uiso   1.00
O703   O     0.77226   0.20487   0.75000   0.00000  Uiso   1.00
O704   O     0.89441   0.12846   0.75001   0.00000  Uiso   1.00
O705   O     0.89441   0.20487   0.75001   0.00000  Uiso   1.00
O706   O     0.77226   0.12846   0.75000   0.00000  Uiso   1.00
O707   O     0.83333   0.20489   0.68393   0.00000  Uiso   1.00
O708   O     0.83334   0.12844   0.81608   0.00000  Uiso   1.00
O709   O     0.83334   0.20489   0.81608   0.00000  Uiso   1.00
O710   O     0.83333   0.12844   0.68393   0.00000  Uiso   1.00
Zn711  Zn    0.83333   0.21771   0.75000   0.00000  Uiso   1.00
Zn712  Zn    0.83333   0.11563   0.75000   0.00000  Uiso   1.00
Br713  Br    0.92321   0.17103   0.87155   0.00000  Uiso   1.00
Br714  Br    0.74346   0.16230   0.62845   0.00000  Uiso   1.00
Br715  Br    0.70981   0.12955   0.94017   0.00000  Uiso   1.00
Br716  Br    0.95685   0.20378   0.55983   0.00000  Uiso   1.00
C717   C     0.72384   0.11961   0.54026   0.00000  Uiso   1.00
N718   N     0.69525   0.10151   0.55546   0.00000  Uiso   1.00
C719   C     0.94283   0.21372   0.95974   0.00000  Uiso   1.00
N720   N     0.97142   0.23181   0.94454   0.00000  Uiso   1.00
C721   C     0.08665   0.50004   0.75024   0.00000  Uiso   1.00
C722   C     0.24668   0.49996   0.74976   0.00000  Uiso   1.00
C723   C     0.09277   0.47514   0.52048   0.00000  Uiso   1.00
C724   C     0.24056   0.52486   0.97952   0.00000  Uiso   1.00
C725   C     0.02149   0.46078   0.76273   0.00000  Uiso   1.00
C726   C     0.31184   0.53922   0.73727   0.00000  Uiso   1.00
C727   C     0.31213   0.46068   0.76243   0.00000  Uiso   1.00
C728   C     0.02121   0.53932   0.73757   0.00000  Uiso   1.00
C729   C     0.29083   0.49991   0.74972   0.00000  Uiso   1.00
C730   C     0.04250   0.50009   0.75028   0.00000  Uiso   1.00
C731   C     0.19381   0.35733   0.77661   0.00000  Uiso   1.00
C732   C     0.13953   0.64267   0.72339   0.00000  Uiso   1.00
C733   C     0.13953   0.35729   0.72339   0.00000  Uiso   1.00
C734   C     0.19380   0.64271   0.77661   0.00000  Uiso   1.00
C735   C     0.16616   0.49991   0.66360   0.00000  Uiso   1.00
C736   C     0.16717   0.50009   0.83640   0.00000  Uiso   1.00
C737   C     0.20588   0.50759   0.90679   0.00000  Uiso   1.00
C738   C     0.12746   0.49241   0.59321   0.00000  Uiso   1.00
C739   C     0.16838   0.50041   0.88400   0.00000  Uiso   1.00
C740   C     0.16495   0.49959   0.61600   0.00000  Uiso   1.00
C741   C     0.13130   0.49281   0.90576   0.00000  Uiso   1.00
C742   C     0.20203   0.50719   0.59424   0.00000  Uiso   1.00
C743   C     0.13033   0.49073   0.95203   0.00000  Uiso   1.00
C744   C     0.20301   0.50927   0.54797   0.00000  Uiso   1.00
C745   C     0.16726   0.50042   0.97655   0.00000  Uiso   1.00
C746   C     0.16607   0.49958   0.52345   0.00000  Uiso   1.00
C747   C     0.20523   0.51116   0.95401   0.00000  Uiso   1.00
C748   C     0.12810   0.48884   0.54599   0.00000  Uiso   1.00
C749   C     0.09339   0.47810   0.97380   0.00000  Uiso   1.00
C750   C     0.23995   0.52189   0.52620   0.00000  Uiso   1.00
H751   H     0.10364   0.48722   0.88558   0.00000  Uiso   1.00
H752   H     0.22970   0.51278   0.61442   0.00000  Uiso   1.00
H753   H     0.03794   0.43041   0.77297   0.00000  Uiso   1.00
H754   H     0.29539   0.56959   0.72704   0.00000  Uiso   1.00
H755   H     0.29590   0.43028   0.77254   0.00000  Uiso   1.00
H756   H     0.03743   0.56972   0.72746   0.00000  Uiso   1.00
H757   H     0.21551   0.37551   0.79789   0.00000  Uiso   1.00
H758   H     0.11782   0.62449   0.70211   0.00000  Uiso   1.00
H759   H     0.11783   0.37543   0.70210   0.00000  Uiso   1.00
H760   H     0.21550   0.62457   0.79790   0.00000  Uiso   1.00
N761   N     0.16667   0.61907   0.75000   0.00000  Uiso   1.00
N762   N     0.16667   0.38093   0.75000   0.00000  Uiso   1.00
O763   O     0.10559   0.53821   0.75000   0.00000  Uiso   1.00
O764   O     0.22774   0.46179   0.75001   0.00000  Uiso   1.00
O765   O     0.22774   0.53821   0.75001   0.00000  Uiso   1.00
O766   O     0.10559   0.46179   0.75000   0.00000  Uiso   1.00
O767   O     0.16666   0.53823   0.68393   0.00000  Uiso   1.00
O768   O     0.16667   0.46177   0.81608   0.00000  Uiso   1.00
O769   O     0.16667   0.53823   0.81608   0.00000  Uiso   1.00
O770   O     0.16666   0.46177   0.68393   0.00000  Uiso   1.00
Zn771  Zn    0.16667   0.55104   0.75000   0.00000  Uiso   1.00
Zn772  Zn    0.16667   0.44896   0.75000   0.00000  Uiso   1.00
Br773  Br    0.25654   0.50437   0.87155   0.00000  Uiso   1.00
Br774  Br    0.07679   0.49563   0.62845   0.00000  Uiso   1.00
Br775  Br    0.04315   0.46288   0.94017   0.00000  Uiso   1.00
Br776  Br    0.29019   0.53712   0.55983   0.00000  Uiso   1.00
C777   C     0.05717   0.45294   0.54026   0.00000  Uiso   1.00
N778   N     0.02858   0.43485   0.55546   0.00000  Uiso   1.00
C779   C     0.27617   0.54706   0.95974   0.00000  Uiso   1.00
N780   N     0.30475   0.56515   0.94454   0.00000  Uiso   1.00
C781   C     0.41998   0.50004   0.75024   0.00000  Uiso   1.00
C782   C     0.58002   0.49996   0.74976   0.00000  Uiso   1.00
C783   C     0.42611   0.47514   0.52048   0.00000  Uiso   1.00
C784   C     0.57389   0.52486   0.97952   0.00000  Uiso   1.00
C785   C     0.35482   0.46078   0.76273   0.00000  Uiso   1.00
C786   C     0.64518   0.53922   0.73727   0.00000  Uiso   1.00
C787   C     0.64546   0.46068   0.76243   0.00000  Uiso   1.00
C788   C     0.35454   0.53932   0.73757   0.00000  Uiso   1.00
C789   C     0.62416   0.49991   0.74972   0.00000  Uiso   1.00
C790   C     0.37584   0.50009   0.75028   0.00000  Uiso   1.00
C791   C     0.52714   0.35733   0.77661   0.00000  Uiso   1.00
C792   C     0.47286   0.64267   0.72339   0.00000  Uiso   1.00
C793   C     0.47286   0.35729   0.72339   0.00000  Uiso   1.00
C794   C     0.52714   0.64271   0.77661   0.00000  Uiso   1.00
C795   C     0.49949   0.49991   0.66360   0.00000  Uiso   1.00
C796   C     0.50051   0.50009   0.83640   0.00000  Uiso   1.00
C797   C     0.53921   0.50759   0.90679   0.00000  Uiso   1.00
C798   C     0.46079   0.49241   0.59321   0.00000  Uiso   1.00
C799   C     0.50172   0.50041   0.88400   0.00000  Uiso   1.00
C800   C     0.49828   0.49959   0.61600   0.00000  Uiso   1.00
C801   C     0.46464   0.49281   0.90576   0.00000  Uiso   1.00
C802   C     0.53536   0.50719   0.59424   0.00000  Uiso   1.00
C803   C     0.46366   0.49073   0.95203   0.00000  Uiso   1.00
C804   C     0.53634   0.50927   0.54797   0.00000  Uiso   1.00
C805   C     0.50060   0.50042   0.97655   0.00000  Uiso   1.00
C806   C     0.49940   0.49958   0.52345   0.00000  Uiso   1.00
C807   C     0.53856   0.51116   0.95401   0.00000  Uiso   1.00
C808   C     0.46144   0.48884   0.54599   0.00000  Uiso   1.00
C809   C     0.42672   0.47810   0.97380   0.00000  Uiso   1.00
C810   C     0.57328   0.52189   0.52620   0.00000  Uiso   1.00
H811   H     0.43697   0.48722   0.88558   0.00000  Uiso   1.00
H812   H     0.56303   0.51278   0.61442   0.00000  Uiso   1.00
H813   H     0.37128   0.43041   0.77297   0.00000  Uiso   1.00
H814   H     0.62872   0.56959   0.72704   0.00000  Uiso   1.00
H815   H     0.62923   0.43028   0.77254   0.00000  Uiso   1.00
H816   H     0.37077   0.56972   0.72746   0.00000  Uiso   1.00
H817   H     0.54884   0.37551   0.79789   0.00000  Uiso   1.00
H818   H     0.45116   0.62449   0.70211   0.00000  Uiso   1.00
H819   H     0.45117   0.37543   0.70210   0.00000  Uiso   1.00
H820   H     0.54883   0.62457   0.79790   0.00000  Uiso   1.00
N821   N     0.50000   0.61907   0.75000   0.00000  Uiso   1.00
N822   N     0.50000   0.38093   0.75000   0.00000  Uiso   1.00
O823   O     0.43892   0.53821   0.75000   0.00000  Uiso   1.00
O824   O     0.56108   0.46179   0.75001   0.00000  Uiso   1.00
O825   O     0.56108   0.53821   0.75001   0.00000  Uiso   1.00
O826   O     0.43892   0.46179   0.75000   0.00000  Uiso   1.00
O827   O     0.49999   0.53823   0.68393   0.00000  Uiso   1.00
O828   O     0.50001   0.46177   0.81608   0.00000  Uiso   1.00
O829   O     0.50001   0.53823   0.81608   0.00000  Uiso   1.00
O830   O     0.49999   0.46177   0.68393   0.00000  Uiso   1.00
Zn831  Zn    0.50000   0.55104   0.75000   0.00000  Uiso   1.00
Zn832  Zn    0.50000   0.44896   0.75000   0.00000  Uiso   1.00
Br833  Br    0.58987   0.50437   0.87155   0.00000  Uiso   1.00
Br834  Br    0.41013   0.49563   0.62845   0.00000  Uiso   1.00
Br835  Br    0.37648   0.46288   0.94017   0.00000  Uiso   1.00
Br836  Br    0.62352   0.53712   0.55983   0.00000  Uiso   1.00
C837   C     0.39050   0.45294   0.54026   0.00000  Uiso   1.00
N838   N     0.36192   0.43485   0.55546   0.00000  Uiso   1.00
C839   C     0.60950   0.54706   0.95974   0.00000  Uiso   1.00
N840   N     0.63809   0.56515   0.94454   0.00000  Uiso   1.00
C841   C     0.75331   0.50004   0.75024   0.00000  Uiso   1.00
C842   C     0.91335   0.49996   0.74976   0.00000  Uiso   1.00
C843   C     0.75944   0.47514   0.52048   0.00000  Uiso   1.00
C844   C     0.90723   0.52486   0.97952   0.00000  Uiso   1.00
C845   C     0.68816   0.46078   0.76273   0.00000  Uiso   1.00
C846   C     0.97851   0.53922   0.73727   0.00000  Uiso   1.00
C847   C     0.97879   0.46068   0.76243   0.00000  Uiso   1.00
C848   C     0.68787   0.53932   0.73757   0.00000  Uiso   1.00
C849   C     0.95750   0.49991   0.74972   0.00000  Uiso   1.00
C850   C     0.70917   0.50009   0.75028   0.00000  Uiso   1.00
C851   C     0.86047   0.35733   0.77661   0.00000  Uiso   1.00
C852   C     0.80619   0.64267   0.72339   0.00000  Uiso   1.00
C853   C     0.80620   0.35729   0.72339   0.00000  Uiso   1.00
C854   C     0.86047   0.64271   0.77661   0.00000  Uiso   1.00
C855   C     0.83282   0.49991   0.66360   0.00000  Uiso   1.00
C856   C     0.83384   0.50009   0.83640   0.00000  Uiso   1.00
C857   C     0.87254   0.50759   0.90679   0.00000  Uiso   1.00
C858   C     0.79412   0.49241   0.59321   0.00000  Uiso   1.00
C859   C     0.83505   0.50041   0.88400   0.00000  Uiso   1.00
C860   C     0.83162   0.49959   0.61600   0.00000  Uiso   1.00
C861   C     0.79797   0.49281   0.90576   0.00000  Uiso   1.00
C862   C     0.86870   0.50719   0.59424   0.00000  Uiso   1.00
C863   C     0.79699   0.49073   0.95203   0.00000  Uiso   1.00
C864   C     0.86967   0.50927   0.54797   0.00000  Uiso   1.00
C865   C     0.83393   0.50042   0.97655   0.00000  Uiso   1.00
C866   C     0.83274   0.49958   0.52345   0.00000  Uiso   1.00
C867   C     0.87190   0.51116   0.95401   0.00000  Uiso   1.00
C868   C     0.79477   0.48884   0.54599   0.00000  Uiso   1.00
C869   C     0.76005   0.47810   0.97380   0.00000  Uiso   1.00
C870   C     0.90661   0.52189   0.52620   0.00000  Uiso   1.00
H871   H     0.77030   0.48722   0.88558   0.00000  Uiso   1.00
H872   H     0.89636   0.51278   0.61442   0.00000  Uiso   1.00
H873   H     0.70461   0.43041   0.77297   0.00000  Uiso   1.00
H874   H     0.96206   0.56959   0.72704   0.00000  Uiso   1.00
H875   H     0.96256   0.43028   0.77254   0.00000  Uiso   1.00
H876   H     0.70410   0.56972   0.72746   0.00000  Uiso   1.00
H877   H     0.88218   0.37551   0.79789   0.00000  Uiso   1.00
H878   H     0.78449   0.62449   0.70211   0.00000  Uiso   1.00
H879   H     0.78450   0.37543   0.70210   0.00000  Uiso   1.00
H880   H     0.88217   0.62457   0.79790   0.00000  Uiso   1.00
N881   N     0.83333   0.61907   0.75000   0.00000  Uiso   1.00
N882   N     0.83333   0.38093   0.75000   0.00000  Uiso   1.00
O883   O     0.77226   0.53821   0.75000   0.00000  Uiso   1.00
O884   O     0.89441   0.46179   0.75001   0.00000  Uiso   1.00
O885   O     0.89441   0.53821   0.75001   0.00000  Uiso   1.00
O886   O     0.77226   0.46179   0.75000   0.00000  Uiso   1.00
O887   O     0.83333   0.53823   0.68393   0.00000  Uiso   1.00
O888   O     0.83334   0.46177   0.81608   0.00000  Uiso   1.00
O889   O     0.83334   0.53823   0.81608   0.00000  Uiso   1.00
O890   O     0.83333   0.46177   0.68393   0.00000  Uiso   1.00
Zn891  Zn    0.83333   0.55104   0.75000   0.00000  Uiso   1.00
Zn892  Zn    0.83333   0.44896   0.75000   0.00000  Uiso   1.00
Br893  Br    0.92321   0.50437   0.87155   0.00000  Uiso   1.00
Br894  Br    0.74346   0.49563   0.62845   0.00000  Uiso   1.00
Br895  Br    0.70981   0.46288   0.94017   0.00000  Uiso   1.00
Br896  Br    0.95685   0.53712   0.55983   0.00000  Uiso   1.00
C897   C     0.72384   0.45294   0.54026   0.00000  Uiso   1.00
N898   N     0.69525   0.43485   0.55546   0.00000  Uiso   1.00
C899   C     0.94283   0.54706   0.95974   0.00000  Uiso   1.00
N900   N     0.97142   0.56515   0.94454   0.00000  Uiso   1.00
C901   C     0.08665   0.83337   0.75024   0.00000  Uiso   1.00
C902   C     0.24668   0.83329   0.74976   0.00000  Uiso   1.00
C903   C     0.09277   0.80847   0.52048   0.00000  Uiso   1.00
C904   C     0.24056   0.85819   0.97952   0.00000  Uiso   1.00
C905   C     0.02149   0.79411   0.76273   0.00000  Uiso   1.00
C906   C     0.31184   0.87255   0.73727   0.00000  Uiso   1.00
C907   C     0.31213   0.79402   0.76243   0.00000  Uiso   1.00
C908   C     0.02121   0.87265   0.73757   0.00000  Uiso   1.00
C909   C     0.29083   0.83325   0.74972   0.00000  Uiso   1.00
C910   C     0.04250   0.83342   0.75028   0.00000  Uiso   1.00
C911   C     0.19381   0.69066   0.77661   0.00000  Uiso   1.00
C912   C     0.13953   0.97600   0.72339   0.00000  Uiso   1.00
C913   C     0.13953   0.69062   0.72339   0.00000  Uiso   1.00
C914   C     0.19380   0.97604   0.77661   0.00000  Uiso   1.00
C915   C     0.16616   0.83325   0.66360   0.00000  Uiso   1.00
C916   C     0.16717   0.83342   0.83640   0.00000  Uiso   1.00
C917   C     0.20588   0.84092   0.90679   0.00000  Uiso   1.00
C918   C     0.12746   0.82574   0.59321   0.00000  Uiso   1.00
C919   C     0.16838   0.83374   0.88400   0.00000  Uiso   1.00
C920   C     0.16495   0.83292   0.61600   0.00000  Uiso   1.00
C921   C     0.13130   0.82614   0.90576   0.00000  Uiso   1.00
C922   C     0.20203   0.84052   0.59424   0.00000  Uiso   1.00
C923   C     0.13033   0.82407   0.95203   0.00000  Uiso   1.00
C924   C     0.20301   0.84260   0.54797   0.00000  Uiso   1.00
C925   C     0.16726   0.83375   0.97655   0.00000  Uiso   1.00
C926   C     0.16607   0.83292   0.52345   0.00000  Uiso   1.00
C927   C     0.20523   0.84449   0.95401   0.00000  Uiso   1.00
C928   C     0.12810   0.82217   0.54599   0.00000  Uiso   1.00
C929   C     0.09339   0.81144   0.97380   0.00000  Uiso   1.00
C930   C     0.23995   0.85523   0.52620   0.00000  Uiso   1.00
H931   H     0.10364   0.82055   0.88558   0.00000  Uiso   1.00
H932   H     0.22970   0.84612   0.61442   0.00000  Uiso   1.00
H933   H     0.03794   0.76374   0.77297   0.00000  Uiso   1.00
H934   H     0.29539   0.90293   0.72704   0.00000  Uiso   1.00
H935   H     0.29590   0.76361   0.77254   0.00000  Uiso   1.00
H936   H     0.03743   0.90305   0.72746   0.00000  Uiso   1.00
H937   H     0.21551   0.70884   0.79789   0.00000  Uiso   1.00
H938   H     0.11782   0.95782   0.70211   0.00000  Uiso   1.00
H939   H     0.11783   0.70877   0.70210   0.00000  Uiso   1.00
H940   H     0.21550   0.95790   0.79790   0.00000  Uiso   1.00
N941   N     0.16667   0.95240   0.75000   0.00000  Uiso   1.00
N942   N     0.16667   0.71427   0.75000   0.00000  Uiso   1.00
O943   O     0.10559   0.87154   0.75000   0.00000  Uiso   1.00
O944   O     0.22774   0.79513   0.75001   0.00000  Uiso   1.00
O945   O     0.22774   0.87154   0.75001   0.00000  Uiso   1.00
O946   O     0.10559   0.79513   0.75000   0.00000  Uiso   1.00
O947   O     0.16666   0.87156   0.68393   0.00000  Uiso   1.00
O948   O     0.16667   0.79511   0.81608   0.00000  Uiso   1.00
O949   O     0.16667   0.87156   0.81608   0.00000  Uiso   1.00
O950   O     0.16666   0.79511   0.68393   0.00000  Uiso   1.00
Zn951  Zn    0.16667   0.88437   0.75000   0.00000  Uiso   1.00
Zn952  Zn    0.16667   0.78229   0.75000   0.00000  Uiso   1.00
Br953  Br    0.25654   0.83770   0.87155   0.00000  Uiso   1.00
Br954  Br    0.07679   0.82897   0.62845   0.00000  Uiso   1.00
Br955  Br    0.04315   0.79621   0.94017   0.00000  Uiso   1.00
Br956  Br    0.29019   0.87045   0.55983   0.00000  Uiso   1.00
C957   C     0.05717   0.78627   0.54026   0.00000  Uiso   1.00
N958   N     0.02858   0.76818   0.55546   0.00000  Uiso   1.00
C959   C     0.27617   0.88039   0.95974   0.00000  Uiso   1.00
N960   N     0.30475   0.89848   0.94454   0.00000  Uiso   1.00
C961   C     0.41998   0.83337   0.75024   0.00000  Uiso   1.00
C962   C     0.58002   0.83329   0.74976   0.00000  Uiso   1.00
C963   C     0.42611   0.80847   0.52048   0.00000  Uiso   1.00
C964   C     0.57389   0.85819   0.97952   0.00000  Uiso   1.00
C965   C     0.35482   0.79411   0.76273   0.00000  Uiso   1.00
C966   C     0.64518   0.87255   0.73727   0.00000  Uiso   1.00
C967   C     0.64546   0.79402   0.76243   0.00000  Uiso   1.00
C968   C     0.35454   0.87265   0.73757   0.00000  Uiso   1.00
C969   C     0.62416   0.83325   0.74972   0.00000  Uiso   1.00
C970   C     0.37584   0.83342   0.75028   0.00000  Uiso   1.00
C971   C     0.52714   0.69066   0.77661   0.00000  Uiso   1.00
C972   C     0.47286   0.97600   0.72339   0.00000  Uiso   1.00
C973   C     0.47286   0.69062   0.72339   0.00000  Uiso   1.00
C974   C     0.52714   0.97604   0.77661   0.00000  Uiso   1.00
C975   C     0.49949   0.83325   0.66360   0.00000  Uiso   1.00
C976   C     0.50051   0.83342   0.83640   0.00000  Uiso   1.00
C977   C     0.53921   0.84092   0.90679   0.00000  Uiso   1.00
C978   C     0.46079   0.82574   0.59321   0.00000  Uiso   1.00
C979   C     0.50172   0.83374   0.88400   0.00000  Uiso   1.00
C980   C     0.49828   0.83292   0.61600   0.00000  Uiso   1.00
C981   C     0.46464   0.82614   0.90576   0.00000  Uiso   1.00
C982   C     0.53536   0.84052   0.59424   0.00000  Uiso   1.00
C983   C     0.46366   0.82407   0.95203   0.00000  Uiso   1.00
C984   C     0.53634   0.84260   0.54797   0.00000  Uiso   1.00
C985   C     0.50060   0.83375   0.97655   0.00000  Uiso   1.00
C986   C     0.49940   0.83292   0.52345   0.00000  Uiso   1.00
C987   C     0.53856   0.84449   0.95401   0.00000  Uiso   1.00
C988   C     0.46144   0.82217   0.54599   0.00000  Uiso   1.00
C989   C     0.42672   0.81144   0.97380   0.00000  Uiso   1.00
C990   C     0.57328   0.85523   0.52620   0.00000  Uiso   1.00
H991   H     0.43697   0.82055   0.88558   0.00000  Uiso   1.00
H992   H     0.56303   0.84612   0.61442   0.00000  Uiso   1.00
H993   H     0.37128   0.76374   0.77297   0.00000  Uiso   1.00
H994   H     0.62872   0.90293   0.72704   0.00000  Uiso   1.00
H995   H     0.62923   0.76361   0.77254   0.00000  Uiso   1.00
H996   H     0.37077   0.90305   0.72746   0.00000  Uiso   1.00
H997   H     0.54884   0.70884   0.79789   0.00000  Uiso   1.00
H998   H     0.45116   0.95782   0.70211   0.00000  Uiso   1.00
H999   H     0.45117   0.70877   0.70210   0.00000  Uiso   1.00
H1000  H     0.54883   0.95790   0.79790   0.00000  Uiso   1.00
N1001  N     0.50000   0.95240   0.75000   0.00000  Uiso   1.00
N1002  N     0.50000   0.71427   0.75000   0.00000  Uiso   1.00
O1003  O     0.43892   0.87154   0.75000   0.00000  Uiso   1.00
O1004  O     0.56108   0.79513   0.75001   0.00000  Uiso   1.00
O1005  O     0.56108   0.87154   0.75001   0.00000  Uiso   1.00
O1006  O     0.43892   0.79513   0.75000   0.00000  Uiso   1.00
O1007  O     0.49999   0.87156   0.68393   0.00000  Uiso   1.00
O1008  O     0.50001   0.79511   0.81608   0.00000  Uiso   1.00
O1009  O     0.50001   0.87156   0.81608   0.00000  Uiso   1.00
O1010  O     0.49999   0.79511   0.68393   0.00000  Uiso   1.00
Zn1011 Zn    0.50000   0.88437   0.75000   0.00000  Uiso   1.00
Zn1012 Zn    0.50000   0.78229   0.75000   0.00000  Uiso   1.00
Br1013 Br    0.58987   0.83770   0.87155   0.00000  Uiso   1.00
Br1014 Br    0.41013   0.82897   0.62845   0.00000  Uiso   1.00
Br1015 Br    0.37648   0.79621   0.94017   0.00000  Uiso   1.00
Br1016 Br    0.62352   0.87045   0.55983   0.00000  Uiso   1.00
C1017  C     0.39050   0.78627   0.54026   0.00000  Uiso   1.00
N1018  N     0.36192   0.76818   0.55546   0.00000  Uiso   1.00
C1019  C     0.60950   0.88039   0.95974   0.00000  Uiso   1.00
N1020  N     0.63809   0.89848   0.94454   0.00000  Uiso   1.00
C1021  C     0.75331   0.83337   0.75024   0.00000  Uiso   1.00
C1022  C     0.91335   0.83329   0.74976   0.00000  Uiso   1.00
C1023  C     0.75944   0.80847   0.52048   0.00000  Uiso   1.00
C1024  C     0.90723   0.85819   0.97952   0.00000  Uiso   1.00
C1025  C     0.68816   0.79411   0.76273   0.00000  Uiso   1.00
C1026  C     0.97851   0.87255   0.73727   0.00000  Uiso   1.00
C1027  C     0.97879   0.79402   0.76243   0.00000  Uiso   1.00
C1028  C     0.68787   0.87265   0.73757   0.00000  Uiso   1.00
C1029  C     0.95750   0.83325   0.74972   0.00000  Uiso   1.00
C1030  C     0.70917   0.83342   0.75028   0.00000  Uiso   1.00
C1031  C     0.86047   0.69066   0.77661   0.00000  Uiso   1.00
C1032  C     0.80619   0.97600   0.72339   0.00000  Uiso   1.00
C1033  C     0.80620   0.69062   0.72339   0.00000  Uiso   1.00
C1034  C     0.86047   0.97604   0.77661   0.00000  Uiso   1.00
C1035  C     0.83282   0.83325   0.66360   0.00000  Uiso   1.00
C1036  C     0.83384   0.83342   0.83640   0.00000  Uiso   1.00
C1037  C     0.87254   0.84092   0.90679   0.00000  Uiso   1.00
C1038  C     0.79412   0.82574   0.59321   0.00000  Uiso   1.00
C1039  C     0.83505   0.83374   0.88400   0.00000  Uiso   1.00
C1040  C     0.83162   0.83292   0.61600   0.00000  Uiso   1.00
C1041  C     0.79797   0.82614   0.90576   0.00000  Uiso   1.00
C1042  C     0.86870   0.84052   0.59424   0.00000  Uiso   1.00
C1043  C     0.79699   0.82407   0.95203   0.00000  Uiso   1.00
C1044  C     0.86967   0.84260   0.54797   0.00000  Uiso   1.00
C1045  C     0.83393   0.83375   0.97655   0.00000  Uiso   1.00
C1046  C     0.83274   0.83292   0.52345   0.00000  Uiso   1.00
C1047  C     0.87190   0.84449   0.95401   0.00000  Uiso   1.00
C1048  C     0.79477   0.82217   0.54599   0.00000  Uiso   1.00
C1049  C     0.76005   0.81144   0.97380   0.00000  Uiso   1.00
C1050  C     0.90661   0.85523   0.52620   0.00000  Uiso   1.00
H1051  H     0.77030   0.82055   0.88558   0.00000  Uiso   1.00
H1052  H     0.89636   0.84612   0.61442   0.00000  Uiso   1.00
H1053  H     0.70461   0.76374   0.77297   0.00000  Uiso   1.00
H1054  H     0.96206   0.90293   0.72704   0.00000  Uiso   1.00
H1055  H     0.96256   0.76361   0.77254   0.00000  Uiso   1.00
H1056  H     0.70410   0.90305   0.72746   0.00000  Uiso   1.00
H1057  H     0.88218   0.70884   0.79789   0.00000  Uiso   1.00
H1058  H     0.78449   0.95782   0.70211   0.00000  Uiso   1.00
H1059  H     0.78450   0.70877   0.70210   0.00000  Uiso   1.00
H1060  H     0.88217   0.95790   0.79790   0.00000  Uiso   1.00
N1061  N     0.83333   0.95240   0.75000   0.00000  Uiso   1.00
N1062  N     0.83333   0.71427   0.75000   0.00000  Uiso   1.00
O1063  O     0.77226   0.87154   0.75000   0.00000  Uiso   1.00
O1064  O     0.89441   0.79513   0.75001   0.00000  Uiso   1.00
O1065  O     0.89441   0.87154   0.75001   0.00000  Uiso   1.00
O1066  O     0.77226   0.79513   0.75000   0.00000  Uiso   1.00
O1067  O     0.83333   0.87156   0.68393   0.00000  Uiso   1.00
O1068  O     0.83334   0.79511   0.81608   0.00000  Uiso   1.00
O1069  O     0.83334   0.87156   0.81608   0.00000  Uiso   1.00
O1070  O     0.83333   0.79511   0.68393   0.00000  Uiso   1.00
Zn1071 Zn    0.83333   0.88437   0.75000   0.00000  Uiso   1.00
Zn1072 Zn    0.83333   0.78229   0.75000   0.00000  Uiso   1.00
Br1073 Br    0.92321   0.83770   0.87155   0.00000  Uiso   1.00
Br1074 Br    0.74346   0.82897   0.62845   0.00000  Uiso   1.00
Br1075 Br    0.70981   0.79621   0.94017   0.00000  Uiso   1.00
Br1076 Br    0.95685   0.87045   0.55983   0.00000  Uiso   1.00
C1077  C     0.72384   0.78627   0.54026   0.00000  Uiso   1.00
N1078  N     0.69525   0.76818   0.55546   0.00000  Uiso   1.00
C1079  C     0.94283   0.88039   0.95974   0.00000  Uiso   1.00
N1080  N     0.97142   0.89848   0.94454   0.00000  Uiso   1.00
loop_
_geom_bond_atom_site_label_1
_geom_bond_atom_site_label_2
_geom_bond_distance
_geom_bond_site_symmetry_2
_ccdc_geom_bond_type
C1     O46     1.282   .     A
C1     O43     1.282   .     A
C1     C10     1.416   .     S
C2     O45     1.282   .     A
C2     C9      1.416   .     S
C2     O44     1.282   .     A
C3     C28     1.420   .     A
C3     C57     1.448   .     S
C3     C569    1.397   1_554 S
C4     C59     1.448   .     S
C4     C27     1.420   .     A
C4     C570    1.397   .     S
C5     C10     1.397   .     A
C5     H33     1.084   .     S
C5     C127    1.369   1_455 S
C6     C9      1.397   .     A
C6     H34     1.084   .     S
C6     C68     1.369   .     S
C7     C9      1.396   .     A
C7     H35     1.084   .     S
C7     C65     1.369   .     S
C8     H36     1.084   .     S
C8     C10     1.396   .     A
C8     C126    1.369   1_455 S
C11    N42     1.366   .     A
C11    H37     1.082   .     S
C11    C374    1.417   1_545 S
C12    N41     1.366   .     A
C12    H38     1.082   .     S
C12    C193    1.417   .     S
C13    H39     1.082   .     S
C13    N42     1.366   .     A
C13    C372    1.417   1_545 S
C14    N41     1.366   .     A
C14    H40     1.082   .     S
C14    C191    1.417   .     S
C15    O47     1.283   .     A
C15    C20     1.421   .     S
C15    O50     1.282   .     A
C16    O48     1.283   .     A
C16    O49     1.282   .     A
C16    C19     1.421   .     S
C17    C27     1.413   .     A
C17    Br53    1.943   .     S
C17    C19     1.394   .     A
C18    C20     1.394   .     A
C18    C28     1.413   .     A
C18    Br54    1.943   .     S
C19    C21     1.378   .     A
C20    C22     1.378   .     A
C21    H31     1.082   .     S
C21    C23     1.383   .     A
C22    H32     1.082   .     S
C22    C24     1.383   .     A
C23    C25     1.418   .     A
C23    C29     1.407   .     A
C24    C26     1.418   .     A
C24    C30     1.407   .     A
C25    C27     1.432   .     A
C25    C566    1.401   .     S
C26    C28     1.432   .     A
C26    C565    1.401   1_554 S
C29    Br55    1.946   .     S
C29    C543    1.397   .     S
C30    Br56    1.946   .     S
C30    C544    1.397   1_554 S
N41    Zn51    2.010   .     S
N42    Zn52    2.010   .     S
O43    Zn51    1.996   .     S
O44    Zn52    1.996   .     S
O45    Zn51    1.994   .     S
O46    Zn52    1.994   .     S
O47    Zn51    2.007   .     S
O48    Zn52    2.007   .     S
O49    Zn51    2.010   .     S
O50    Zn52    2.010   .     S
C57    N58     1.158   .     T
C59    N60     1.158   .     T
C61    O106    1.282   .     A
C61    O103    1.282   .     A
C61    C70     1.416   .     S
C62    O105    1.282   .     A
C62    C69     1.416   .     S
C62    O104    1.282   .     A
C63    C88     1.420   .     A
C63    C117    1.448   .     S
C63    C629    1.397   1_554 S
C64    C119    1.448   .     S
C64    C87     1.420   .     A
C64    C630    1.397   .     S
C65    C70     1.397   .     A
C65    H93     1.084   .     S
C66    C69     1.397   .     A
C66    H94     1.084   .     S
C66    C128    1.369   .     S
C67    C69     1.396   .     A
C67    H95     1.084   .     S
C67    C125    1.369   .     S
C68    H96     1.084   .     S
C68    C70     1.396   .     A
C71    N102    1.366   .     A
C71    H97     1.082   .     S
C71    C434    1.417   1_545 S
C72    N101    1.366   .     A
C72    H98     1.082   .     S
C72    C253    1.417   .     S
C73    H99     1.082   .     S
C73    N102    1.366   .     A
C73    C432    1.417   1_545 S
C74    N101    1.366   .     A
C74    H100    1.082   .     S
C74    C251    1.417   .     S
C75    O107    1.283   .     A
C75    C80     1.421   .     S
C75    O110    1.282   .     A
C76    O108    1.283   .     A
C76    O109    1.282   .     A
C76    C79     1.421   .     S
C77    C87     1.413   .     A
C77    Br113   1.943   .     S
C77    C79     1.394   .     A
C78    C80     1.394   .     A
C78    C88     1.413   .     A
C78    Br114   1.943   .     S
C79    C81     1.378   .     A
C80    C82     1.378   .     A
C81    H91     1.082   .     S
C81    C83     1.383   .     A
C82    H92     1.082   .     S
C82    C84     1.383   .     A
C83    C85     1.418   .     A
C83    C89     1.407   .     A
C84    C86     1.418   .     A
C84    C90     1.407   .     A
C85    C87     1.432   .     A
C85    C626    1.401   .     S
C86    C88     1.432   .     A
C86    C625    1.401   1_554 S
C89    Br115   1.946   .     S
C89    C603    1.397   .     S
C90    Br116   1.946   .     S
C90    C604    1.397   1_554 S
N101   Zn111   2.010   .     S
N102   Zn112   2.010   .     S
O103   Zn111   1.996   .     S
O104   Zn112   1.996   .     S
O105   Zn111   1.994   .     S
O106   Zn112   1.994   .     S
O107   Zn111   2.007   .     S
O108   Zn112   2.007   .     S
O109   Zn111   2.010   .     S
O110   Zn112   2.010   .     S
C117   N118    1.158   .     T
C119   N120    1.158   .     T
C121   O166    1.282   .     A
C121   O163    1.282   .     A
C121   C130    1.416   .     S
C122   O165    1.282   .     A
C122   C129    1.416   .     S
C122   O164    1.282   .     A
C123   C148    1.420   .     A
C123   C177    1.448   .     S
C123   C689    1.397   1_554 S
C124   C179    1.448   .     S
C124   C147    1.420   .     A
C124   C690    1.397   .     S
C125   C130    1.397   .     A
C125   H153    1.084   .     S
C126   C129    1.397   .     A
C126   H154    1.084   .     S
C126   C8      1.369   1_655 S
C127   C129    1.396   .     A
C127   H155    1.084   .     S
C127   C5      1.369   1_655 S
C128   H156    1.084   .     S
C128   C130    1.396   .     A
C131   N162    1.366   .     A
C131   H157    1.082   .     S
C131   C494    1.417   1_545 S
C132   N161    1.366   .     A
C132   H158    1.082   .     S
C132   C313    1.417   .     S
C133   H159    1.082   .     S
C133   N162    1.366   .     A
C133   C492    1.417   1_545 S
C134   N161    1.366   .     A
C134   H160    1.082   .     S
C134   C311    1.417   .     S
C135   O167    1.283   .     A
C135   C140    1.421   .     S
C135   O170    1.282   .     A
C136   O168    1.283   .     A
C136   O169    1.282   .     A
C136   C139    1.421   .     S
C137   C147    1.413   .     A
C137   Br173   1.943   .     S
C137   C139    1.394   .     A
C138   C140    1.394   .     A
C138   C148    1.413   .     A
C138   Br174   1.943   .     S
C139   C141    1.378   .     A
C140   C142    1.378   .     A
C141   H151    1.082   .     S
C141   C143    1.383   .     A
C142   H152    1.082   .     S
C142   C144    1.383   .     A
C143   C145    1.418   .     A
C143   C149    1.407   .     A
C144   C146    1.418   .     A
C144   C150    1.407   .     A
C145   C147    1.432   .     A
C145   C686    1.401   .     S
C146   C148    1.432   .     A
C146   C685    1.401   1_554 S
C149   Br175   1.946   .     S
C149   C663    1.397   .     S
C150   Br176   1.946   .     S
C150   C664    1.397   1_554 S
N161   Zn171   2.010   .     S
N162   Zn172   2.010   .     S
O163   Zn171   1.996   .     S
O164   Zn172   1.996   .     S
O165   Zn171   1.994   .     S
O166   Zn172   1.994   .     S
O167   Zn171   2.007   .     S
O168   Zn172   2.007   .     S
O169   Zn171   2.010   .     S
O170   Zn172   2.010   .     S
C177   N178    1.158   .     T
C179   N180    1.158   .     T
C181   O226    1.282   .     A
C181   O223    1.282   .     A
C181   C190    1.416   .     S
C182   O225    1.282   .     A
C182   C189    1.416   .     S
C182   O224    1.282   .     A
C183   C208    1.420   .     A
C183   C237    1.448   .     S
C183   C749    1.397   1_554 S
C184   C239    1.448   .     S
C184   C207    1.420   .     A
C184   C750    1.397   .     S
C185   C190    1.397   .     A
C185   H213    1.084   .     S
C185   C307    1.369   1_455 S
C186   C189    1.397   .     A
C186   H214    1.084   .     S
C186   C248    1.369   .     S
C187   C189    1.396   .     A
C187   H215    1.084   .     S
C187   C245    1.369   .     S
C188   H216    1.084   .     S
C188   C190    1.396   .     A
C188   C306    1.369   1_455 S
C191   N222    1.366   .     A
C191   H217    1.082   .     S
C192   N221    1.366   .     A
C192   H218    1.082   .     S
C192   C373    1.417   .     S
C193   H219    1.082   .     S
C193   N222    1.366   .     A
C194   N221    1.366   .     A
C194   H220    1.082   .     S
C194   C371    1.417   .     S
C195   O227    1.283   .     A
C195   C200    1.421   .     S
C195   O230    1.282   .     A
C196   O228    1.283   .     A
C196   O229    1.282   .     A
C196   C199    1.421   .     S
C197   C207    1.413   .     A
C197   Br233   1.943   .     S
C197   C199    1.394   .     A
C198   C200    1.394   .     A
C198   C208    1.413   .     A
C198   Br234   1.943   .     S
C199   C201    1.378   .     A
C200   C202    1.378   .     A
C201   H211    1.082   .     S
C201   C203    1.383   .     A
C202   H212    1.082   .     S
C202   C204    1.383   .     A
C203   C205    1.418   .     A
C203   C209    1.407   .     A
C204   C206    1.418   .     A
C204   C210    1.407   .     A
C205   C207    1.432   .     A
C205   C746    1.401   .     S
C206   C208    1.432   .     A
C206   C745    1.401   1_554 S
C209   Br235   1.946   .     S
C209   C723    1.397   .     S
C210   Br236   1.946   .     S
C210   C724    1.397   1_554 S
N221   Zn231   2.010   .     S
N222   Zn232   2.010   .     S
O223   Zn231   1.996   .     S
O224   Zn232   1.996   .     S
O225   Zn231   1.994   .     S
O226   Zn232   1.994   .     S
O227   Zn231   2.007   .     S
O228   Zn232   2.007   .     S
O229   Zn231   2.010   .     S
O230   Zn232   2.010   .     S
C237   N238    1.158   .     T
C239   N240    1.158   .     T
C241   O286    1.282   .     A
C241   O283    1.282   .     A
C241   C250    1.416   .     S
C242   O285    1.282   .     A
C242   C249    1.416   .     S
C242   O284    1.282   .     A
C243   C268    1.420   .     A
C243   C297    1.448   .     S
C243   C809    1.397   1_554 S
C244   C299    1.448   .     S
C244   C267    1.420   .     A
C244   C810    1.397   .     S
C245   C250    1.397   .     A
C245   H273    1.084   .     S
C246   C249    1.397   .     A
C246   H274    1.084   .     S
C246   C308    1.369   .     S
C247   C249    1.396   .     A
C247   H275    1.084   .     S
C247   C305    1.369   .     S
C248   H276    1.084   .     S
C248   C250    1.396   .     A
C251   N282    1.366   .     A
C251   H277    1.082   .     S
C252   N281    1.366   .     A
C252   H278    1.082   .     S
C252   C433    1.417   .     S
C253   H279    1.082   .     S
C253   N282    1.366   .     A
C254   N281    1.366   .     A
C254   H280    1.082   .     S
C254   C431    1.417   .     S
C255   O287    1.283   .     A
C255   C260    1.421   .     S
C255   O290    1.282   .     A
C256   O288    1.283   .     A
C256   O289    1.282   .     A
C256   C259    1.421   .     S
C257   C267    1.413   .     A
C257   Br293   1.943   .     S
C257   C259    1.394   .     A
C258   C260    1.394   .     A
C258   C268    1.413   .     A
C258   Br294   1.943   .     S
C259   C261    1.378   .     A
C260   C262    1.378   .     A
C261   H271    1.082   .     S
C261   C263    1.383   .     A
C262   H272    1.082   .     S
C262   C264    1.383   .     A
C263   C265    1.418   .     A
C263   C269    1.407   .     A
C264   C266    1.418   .     A
C264   C270    1.407   .     A
C265   C267    1.432   .     A
C265   C806    1.401   .     S
C266   C268    1.432   .     A
C266   C805    1.401   1_554 S
C269   Br295   1.946   .     S
C269   C783    1.397   .     S
C270   Br296   1.946   .     S
C270   C784    1.397   1_554 S
N281   Zn291   2.010   .     S
N282   Zn292   2.010   .     S
O283   Zn291   1.996   .     S
O284   Zn292   1.996   .     S
O285   Zn291   1.994   .     S
O286   Zn292   1.994   .     S
O287   Zn291   2.007   .     S
O288   Zn292   2.007   .     S
O289   Zn291   2.010   .     S
O290   Zn292   2.010   .     S
C297   N298    1.158   .     T
C299   N300    1.158   .     T
C301   O346    1.282   .     A
C301   O343    1.282   .     A
C301   C310    1.416   .     S
C302   O345    1.282   .     A
C302   C309    1.416   .     S
C302   O344    1.282   .     A
C303   C328    1.420   .     A
C303   C357    1.448   .     S
C303   C869    1.397   1_554 S
C304   C359    1.448   .     S
C304   C327    1.420   .     A
C304   C870    1.397   .     S
C305   C310    1.397   .     A
C305   H333    1.084   .     S
C306   C309    1.397   .     A
C306   H334    1.084   .     S
C306   C188    1.369   1_655 S
C307   C309    1.396   .     A
C307   H335    1.084   .     S
C307   C185    1.369   1_655 S
C308   H336    1.084   .     S
C308   C310    1.396   .     A
C311   N342    1.366   .     A
C311   H337    1.082   .     S
C312   N341    1.366   .     A
C312   H338    1.082   .     S
C312   C493    1.417   .     S
C313   H339    1.082   .     S
C313   N342    1.366   .     A
C314   N341    1.366   .     A
C314   H340    1.082   .     S
C314   C491    1.417   .     S
C315   O347    1.283   .     A
C315   C320    1.421   .     S
C315   O350    1.282   .     A
C316   O348    1.283   .     A
C316   O349    1.282   .     A
C316   C319    1.421   .     S
C317   C327    1.413   .     A
C317   Br353   1.943   .     S
C317   C319    1.394   .     A
C318   C320    1.394   .     A
C318   C328    1.413   .     A
C318   Br354   1.943   .     S
C319   C321    1.378   .     A
C320   C322    1.378   .     A
C321   H331    1.082   .     S
C321   C323    1.383   .     A
C322   H332    1.082   .     S
C322   C324    1.383   .     A
C323   C325    1.418   .     A
C323   C329    1.407   .     A
C324   C326    1.418   .     A
C324   C330    1.407   .     A
C325   C327    1.432   .     A
C325   C866    1.401   .     S
C326   C328    1.432   .     A
C326   C865    1.401   1_554 S
C329   Br355   1.946   .     S
C329   C843    1.397   .     S
C330   Br356   1.946   .     S
C330   C844    1.397   1_554 S
N341   Zn351   2.010   .     S
N342   Zn352   2.010   .     S
O343   Zn351   1.996   .     S
O344   Zn352   1.996   .     S
O345   Zn351   1.994   .     S
O346   Zn352   1.994   .     S
O347   Zn351   2.007   .     S
O348   Zn352   2.007   .     S
O349   Zn351   2.010   .     S
O350   Zn352   2.010   .     S
C357   N358    1.158   .     T
C359   N360    1.158   .     T
C361   O406    1.282   .     A
C361   O403    1.282   .     A
C361   C370    1.416   .     S
C362   O405    1.282   .     A
C362   C369    1.416   .     S
C362   O404    1.282   .     A
C363   C388    1.420   .     A
C363   C417    1.448   .     S
C363   C929    1.397   1_554 S
C364   C419    1.448   .     S
C364   C387    1.420   .     A
C364   C930    1.397   .     S
C365   C370    1.397   .     A
C365   H393    1.084   .     S
C365   C487    1.369   1_455 S
C366   C369    1.397   .     A
C366   H394    1.084   .     S
C366   C428    1.369   .     S
C367   C369    1.396   .     A
C367   H395    1.084   .     S
C367   C425    1.369   .     S
C368   H396    1.084   .     S
C368   C370    1.396   .     A
C368   C486    1.369   1_455 S
C371   N402    1.366   .     A
C371   H397    1.082   .     S
C372   N401    1.366   .     A
C372   H398    1.082   .     S
C372   C13     1.417   1_565 S
C373   H399    1.082   .     S
C373   N402    1.366   .     A
C374   N401    1.366   .     A
C374   H400    1.082   .     S
C374   C11     1.417   1_565 S
C375   O407    1.283   .     A
C375   C380    1.421   .     S
C375   O410    1.282   .     A
C376   O408    1.283   .     A
C376   O409    1.282   .     A
C376   C379    1.421   .     S
C377   C387    1.413   .     A
C377   Br413   1.943   .     S
C377   C379    1.394   .     A
C378   C380    1.394   .     A
C378   C388    1.413   .     A
C378   Br414   1.943   .     S
C379   C381    1.378   .     A
C380   C382    1.378   .     A
C381   H391    1.082   .     S
C381   C383    1.383   .     A
C382   H392    1.082   .     S
C382   C384    1.383   .     A
C383   C385    1.418   .     A
C383   C389    1.407   .     A
C384   C386    1.418   .     A
C384   C390    1.407   .     A
C385   C387    1.432   .     A
C385   C926    1.401   .     S
C386   C388    1.432   .     A
C386   C925    1.401   1_554 S
C389   Br415   1.946   .     S
C389   C903    1.397   .     S
C390   Br416   1.946   .     S
C390   C904    1.397   1_554 S
N401   Zn411   2.010   .     S
N402   Zn412   2.010   .     S
O403   Zn411   1.996   .     S
O404   Zn412   1.996   .     S
O405   Zn411   1.994   .     S
O406   Zn412   1.994   .     S
O407   Zn411   2.007   .     S
O408   Zn412   2.007   .     S
O409   Zn411   2.010   .     S
O410   Zn412   2.010   .     S
C417   N418    1.158   .     T
C419   N420    1.158   .     T
C421   O466    1.282   .     A
C421   O463    1.282   .     A
C421   C430    1.416   .     S
C422   O465    1.282   .     A
C422   C429    1.416   .     S
C422   O464    1.282   .     A
C423   C448    1.420   .     A
C423   C477    1.448   .     S
C423   C989    1.397   1_554 S
C424   C479    1.448   .     S
C424   C447    1.420   .     A
C424   C990    1.397   .     S
C425   C430    1.397   .     A
C425   H453    1.084   .     S
C426   C429    1.397   .     A
C426   H454    1.084   .     S
C426   C488    1.369   .     S
C427   C429    1.396   .     A
C427   H455    1.084   .     S
C427   C485    1.369   .     S
C428   H456    1.084   .     S
C428   C430    1.396   .     A
C431   N462    1.366   .     A
C431   H457    1.082   .     S
C432   N461    1.366   .     A
C432   H458    1.082   .     S
C432   C73     1.417   1_565 S
C433   H459    1.082   .     S
C433   N462    1.366   .     A
C434   N461    1.366   .     A
C434   H460    1.082   .     S
C434   C71     1.417   1_565 S
C435   O467    1.283   .     A
C435   C440    1.421   .     S
C435   O470    1.282   .     A
C436   O468    1.283   .     A
C436   O469    1.282   .     A
C436   C439    1.421   .     S
C437   C447    1.413   .     A
C437   Br473   1.943   .     S
C437   C439    1.394   .     A
C438   C440    1.394   .     A
C438   C448    1.413   .     A
C438   Br474   1.943   .     S
C439   C441    1.378   .     A
C440   C442    1.378   .     A
C441   H451    1.082   .     S
C441   C443    1.383   .     A
C442   H452    1.082   .     S
C442   C444    1.383   .     A
C443   C445    1.418   .     A
C443   C449    1.407   .     A
C444   C446    1.418   .     A
C444   C450    1.407   .     A
C445   C447    1.432   .     A
C445   C986    1.401   .     S
C446   C448    1.432   .     A
C446   C985    1.401   1_554 S
C449   Br475   1.946   .     S
C449   C963    1.397   .     S
C450   Br476   1.946   .     S
C450   C964    1.397   1_554 S
N461   Zn471   2.010   .     S
N462   Zn472   2.010   .     S
O463   Zn471   1.996   .     S
O464   Zn472   1.996   .     S
O465   Zn471   1.994   .     S
O466   Zn472   1.994   .     S
O467   Zn471   2.007   .     S
O468   Zn472   2.007   .     S
O469   Zn471   2.010   .     S
O470   Zn472   2.010   .     S
C477   N478    1.158   .     T
C479   N480    1.158   .     T
C481   O526    1.282   .     A
C481   O523    1.282   .     A
C481   C490    1.416   .     S
C482   O525    1.282   .     A
C482   C489    1.416   .     S
C482   O524    1.282   .     A
C483   C508    1.420   .     A
C483   C537    1.448   .     S
C483   C1049   1.397   1_554 S
C484   C539    1.448   .     S
C484   C507    1.420   .     A
C484   C1050   1.397   .     S
C485   C490    1.397   .     A
C485   H513    1.084   .     S
C486   C489    1.397   .     A
C486   H514    1.084   .     S
C486   C368    1.369   1_655 S
C487   C489    1.396   .     A
C487   H515    1.084   .     S
C487   C365    1.369   1_655 S
C488   H516    1.084   .     S
C488   C490    1.396   .     A
C491   N522    1.366   .     A
C491   H517    1.082   .     S
C492   N521    1.366   .     A
C492   H518    1.082   .     S
C492   C133    1.417   1_565 S
C493   H519    1.082   .     S
C493   N522    1.366   .     A
C494   N521    1.366   .     A
C494   H520    1.082   .     S
C494   C131    1.417   1_565 S
C495   O527    1.283   .     A
C495   C500    1.421   .     S
C495   O530    1.282   .     A
C496   O528    1.283   .     A
C496   O529    1.282   .     A
C496   C499    1.421   .     S
C497   C507    1.413   .     A
C497   Br533   1.943   .     S
C497   C499    1.394   .     A
C498   C500    1.394   .     A
C498   C508    1.413   .     A
C498   Br534   1.943   .     S
C499   C501    1.378   .     A
C500   C502    1.378   .     A
C501   H511    1.082   .     S
C501   C503    1.383   .     A
C502   H512    1.082   .     S
C502   C504    1.383   .     A
C503   C505    1.418   .     A
C503   C509    1.407   .     A
C504   C506    1.418   .     A
C504   C510    1.407   .     A
C505   C507    1.432   .     A
C505   C1046   1.401   .     S
C506   C508    1.432   .     A
C506   C1045   1.401   1_554 S
C509   Br535   1.946   .     S
C509   C1023   1.397   .     S
C510   Br536   1.946   .     S
C510   C1024   1.397   1_554 S
N521   Zn531   2.010   .     S
N522   Zn532   2.010   .     S
O523   Zn531   1.996   .     S
O524   Zn532   1.996   .     S
O525   Zn531   1.994   .     S
O526   Zn532   1.994   .     S
O527   Zn531   2.007   .     S
O528   Zn532   2.007   .     S
O529   Zn531   2.010   .     S
O530   Zn532   2.010   .     S
C537   N538    1.158   .     T
C539   N540    1.158   .     T
C541   O586    1.282   .     A
C541   O583    1.282   .     A
C541   C550    1.416   .     S
C542   O585    1.282   .     A
C542   C549    1.416   .     S
C542   O584    1.282   .     A
C543   C568    1.420   .     A
C543   C597    1.448   .     S
C544   C599    1.448   .     S
C544   C567    1.420   .     A
C544   C30     1.397   1_556 S
C545   C550    1.397   .     A
C545   H573    1.084   .     S
C545   C667    1.369   1_455 S
C546   C549    1.397   .     A
C546   H574    1.084   .     S
C546   C608    1.369   .     S
C547   C549    1.396   .     A
C547   H575    1.084   .     S
C547   C605    1.369   .     S
C548   H576    1.084   .     S
C548   C550    1.396   .     A
C548   C666    1.369   1_455 S
C551   N582    1.366   .     A
C551   H577    1.082   .     S
C551   C914    1.417   1_545 S
C552   N581    1.366   .     A
C552   H578    1.082   .     S
C552   C733    1.417   .     S
C553   H579    1.082   .     S
C553   N582    1.366   .     A
C553   C912    1.417   1_545 S
C554   N581    1.366   .     A
C554   H580    1.082   .     S
C554   C731    1.417   .     S
C555   O587    1.283   .     A
C555   C560    1.421   .     S
C555   O590    1.282   .     A
C556   O588    1.283   .     A
C556   O589    1.282   .     A
C556   C559    1.421   .     S
C557   C567    1.413   .     A
C557   Br593   1.943   .     S
C557   C559    1.394   .     A
C558   C560    1.394   .     A
C558   C568    1.413   .     A
C558   Br594   1.943   .     S
C559   C561    1.378   .     A
C560   C562    1.378   .     A
C561   H571    1.082   .     S
C561   C563    1.383   .     A
C562   H572    1.082   .     S
C562   C564    1.383   .     A
C563   C565    1.418   .     A
C563   C569    1.407   .     A
C564   C566    1.418   .     A
C564   C570    1.407   .     A
C565   C567    1.432   .     A
C565   C26     1.401   1_556 S
C566   C568    1.432   .     A
C569   Br595   1.946   .     S
C569   C3      1.397   1_556 S
C570   Br596   1.946   .     S
N581   Zn591   2.010   .     S
N582   Zn592   2.010   .     S
O583   Zn591   1.996   .     S
O584   Zn592   1.996   .     S
O585   Zn591   1.994   .     S
O586   Zn592   1.994   .     S
O587   Zn591   2.007   .     S
O588   Zn592   2.007   .     S
O589   Zn591   2.010   .     S
O590   Zn592   2.010   .     S
C597   N598    1.158   .     T
C599   N600    1.158   .     T
C601   O646    1.282   .     A
C601   O643    1.282   .     A
C601   C610    1.416   .     S
C602   O645    1.282   .     A
C602   C609    1.416   .     S
C602   O644    1.282   .     A
C603   C628    1.420   .     A
C603   C657    1.448   .     S
C604   C659    1.448   .     S
C604   C627    1.420   .     A
C604   C90     1.397   1_556 S
C605   C610    1.397   .     A
C605   H633    1.084   .     S
C606   C609    1.397   .     A
C606   H634    1.084   .     S
C606   C668    1.369   .     S
C607   C609    1.396   .     A
C607   H635    1.084   .     S
C607   C665    1.369   .     S
C608   H636    1.084   .     S
C608   C610    1.396   .     A
C611   N642    1.366   .     A
C611   H637    1.082   .     S
C611   C974    1.417   1_545 S
C612   N641    1.366   .     A
C612   H638    1.082   .     S
C612   C793    1.417   .     S
C613   H639    1.082   .     S
C613   N642    1.366   .     A
C613   C972    1.417   1_545 S
C614   N641    1.366   .     A
C614   H640    1.082   .     S
C614   C791    1.417   .     S
C615   O647    1.283   .     A
C615   C620    1.421   .     S
C615   O650    1.282   .     A
C616   O648    1.283   .     A
C616   O649    1.282   .     A
C616   C619    1.421   .     S
C617   C627    1.413   .     A
C617   Br653   1.943   .     S
C617   C619    1.394   .     A
C618   C620    1.394   .     A
C618   C628    1.413   .     A
C618   Br654   1.943   .     S
C619   C621    1.378   .     A
C620   C622    1.378   .     A
C621   H631    1.082   .     S
C621   C623    1.383   .     A
C622   H632    1.082   .     S
C622   C624    1.383   .     A
C623   C625    1.418   .     A
C623   C629    1.407   .     A
C624   C626    1.418   .     A
C624   C630    1.407   .     A
C625   C627    1.432   .     A
C625   C86     1.401   1_556 S
C626   C628    1.432   .     A
C629   Br655   1.946   .     S
C629   C63     1.397   1_556 S
C630   Br656   1.946   .     S
N641   Zn651   2.010   .     S
N642   Zn652   2.010   .     S
O643   Zn651   1.996   .     S
O644   Zn652   1.996   .     S
O645   Zn651   1.994   .     S
O646   Zn652   1.994   .     S
O647   Zn651   2.007   .     S
O648   Zn652   2.007   .     S
O649   Zn651   2.010   .     S
O650   Zn652   2.010   .     S
C657   N658    1.158   .     T
C659   N660    1.158   .     T
C661   O706    1.282   .     A
C661   O703    1.282   .     A
C661   C670    1.416   .     S
C662   O705    1.282   .     A
C662   C669    1.416   .     S
C662   O704    1.282   .     A
C663   C688    1.420   .     A
C663   C717    1.448   .     S
C664   C719    1.448   .     S
C664   C687    1.420   .     A
C664   C150    1.397   1_556 S
C665   C670    1.397   .     A
C665   H693    1.084   .     S
C666   C669    1.397   .     A
C666   H694    1.084   .     S
C666   C548    1.369   1_655 S
C667   C669    1.396   .     A
C667   H695    1.084   .     S
C667   C545    1.369   1_655 S
C668   H696    1.084   .     S
C668   C670    1.396   .     A
C671   N702    1.366   .     A
C671   H697    1.082   .     S
C671   C1034   1.417   1_545 S
C672   N701    1.366   .     A
C672   H698    1.082   .     S
C672   C853    1.417   .     S
C673   H699    1.082   .     S
C673   N702    1.366   .     A
C673   C1032   1.417   1_545 S
C674   N701    1.366   .     A
C674   H700    1.082   .     S
C674   C851    1.417   .     S
C675   O707    1.283   .     A
C675   C680    1.421   .     S
C675   O710    1.282   .     A
C676   O708    1.283   .     A
C676   O709    1.282   .     A
C676   C679    1.421   .     S
C677   C687    1.413   .     A
C677   Br713   1.943   .     S
C677   C679    1.394   .     A
C678   C680    1.394   .     A
C678   C688    1.413   .     A
C678   Br714   1.943   .     S
C679   C681    1.378   .     A
C680   C682    1.378   .     A
C681   H691    1.082   .     S
C681   C683    1.383   .     A
C682   H692    1.082   .     S
C682   C684    1.383   .     A
C683   C685    1.418   .     A
C683   C689    1.407   .     A
C684   C686    1.418   .     A
C684   C690    1.407   .     A
C685   C687    1.432   .     A
C685   C146    1.401   1_556 S
C686   C688    1.432   .     A
C689   Br715   1.946   .     S
C689   C123    1.397   1_556 S
C690   Br716   1.946   .     S
N701   Zn711   2.010   .     S
N702   Zn712   2.010   .     S
O703   Zn711   1.996   .     S
O704   Zn712   1.996   .     S
O705   Zn711   1.994   .     S
O706   Zn712   1.994   .     S
O707   Zn711   2.007   .     S
O708   Zn712   2.007   .     S
O709   Zn711   2.010   .     S
O710   Zn712   2.010   .     S
C717   N718    1.158   .     T
C719   N720    1.158   .     T
C721   O766    1.282   .     A
C721   O763    1.282   .     A
C721   C730    1.416   .     S
C722   O765    1.282   .     A
C722   C729    1.416   .     S
C722   O764    1.282   .     A
C723   C748    1.420   .     A
C723   C777    1.448   .     S
C724   C779    1.448   .     S
C724   C747    1.420   .     A
C724   C210    1.397   1_556 S
C725   C730    1.397   .     A
C725   H753    1.084   .     S
C725   C847    1.369   1_455 S
C726   C729    1.397   .     A
C726   H754    1.084   .     S
C726   C788    1.369   .     S
C727   C729    1.396   .     A
C727   H755    1.084   .     S
C727   C785    1.369   .     S
C728   H756    1.084   .     S
C728   C730    1.396   .     A
C728   C846    1.369   1_455 S
C731   N762    1.366   .     A
C731   H757    1.082   .     S
C732   N761    1.366   .     A
C732   H758    1.082   .     S
C732   C913    1.417   .     S
C733   H759    1.082   .     S
C733   N762    1.366   .     A
C734   N761    1.366   .     A
C734   H760    1.082   .     S
C734   C911    1.417   .     S
C735   O767    1.283   .     A
C735   C740    1.421   .     S
C735   O770    1.282   .     A
C736   O768    1.283   .     A
C736   O769    1.282   .     A
C736   C739    1.421   .     S
C737   C747    1.413   .     A
C737   Br773   1.943   .     S
C737   C739    1.394   .     A
C738   C740    1.394   .     A
C738   C748    1.413   .     A
C738   Br774   1.943   .     S
C739   C741    1.378   .     A
C740   C742    1.378   .     A
C741   H751    1.082   .     S
C741   C743    1.383   .     A
C742   H752    1.082   .     S
C742   C744    1.383   .     A
C743   C745    1.418   .     A
C743   C749    1.407   .     A
C744   C746    1.418   .     A
C744   C750    1.407   .     A
C745   C747    1.432   .     A
C745   C206    1.401   1_556 S
C746   C748    1.432   .     A
C749   Br775   1.946   .     S
C749   C183    1.397   1_556 S
C750   Br776   1.946   .     S
N761   Zn771   2.010   .     S
N762   Zn772   2.010   .     S
O763   Zn771   1.996   .     S
O764   Zn772   1.996   .     S
O765   Zn771   1.994   .     S
O766   Zn772   1.994   .     S
O767   Zn771   2.007   .     S
O768   Zn772   2.007   .     S
O769   Zn771   2.010   .     S
O770   Zn772   2.010   .     S
C777   N778    1.158   .     T
C779   N780    1.158   .     T
C781   O826    1.282   .     A
C781   O823    1.282   .     A
C781   C790    1.416   .     S
C782   O825    1.282   .     A
C782   C789    1.416   .     S
C782   O824    1.282   .     A
C783   C808    1.420   .     A
C783   C837    1.448   .     S
C784   C839    1.448   .     S
C784   C807    1.420   .     A
C784   C270    1.397   1_556 S
C785   C790    1.397   .     A
C785   H813    1.084   .     S
C786   C789    1.397   .     A
C786   H814    1.084   .     S
C786   C848    1.369   .     S
C787   C789    1.396   .     A
C787   H815    1.084   .     S
C787   C845    1.369   .     S
C788   H816    1.084   .     S
C788   C790    1.396   .     A
C791   N822    1.366   .     A
C791   H817    1.082   .     S
C792   N821    1.366   .     A
C792   H818    1.082   .     S
C792   C973    1.417   .     S
C793   H819    1.082   .     S
C793   N822    1.366   .     A
C794   N821    1.366   .     A
C794   H820    1.082   .     S
C794   C971    1.417   .     S
C795   O827    1.283   .     A
C795   C800    1.421   .     S
C795   O830    1.282   .     A
C796   O828    1.283   .     A
C796   O829    1.282   .     A
C796   C799    1.421   .     S
C797   C807    1.413   .     A
C797   Br833   1.943   .     S
C797   C799    1.394   .     A
C798   C800    1.394   .     A
C798   C808    1.413   .     A
C798   Br834   1.943   .     S
C799   C801    1.378   .     A
C800   C802    1.378   .     A
C801   H811    1.082   .     S
C801   C803    1.383   .     A
C802   H812    1.082   .     S
C802   C804    1.383   .     A
C803   C805    1.418   .     A
C803   C809    1.407   .     A
C804   C806    1.418   .     A
C804   C810    1.407   .     A
C805   C807    1.432   .     A
C805   C266    1.401   1_556 S
C806   C808    1.432   .     A
C809   Br835   1.946   .     S
C809   C243    1.397   1_556 S
C810   Br836   1.946   .     S
N821   Zn831   2.010   .     S
N822   Zn832   2.010   .     S
O823   Zn831   1.996   .     S
O824   Zn832   1.996   .     S
O825   Zn831   1.994   .     S
O826   Zn832   1.994   .     S
O827   Zn831   2.007   .     S
O828   Zn832   2.007   .     S
O829   Zn831   2.010   .     S
O830   Zn832   2.010   .     S
C837   N838    1.158   .     T
C839   N840    1.158   .     T
C841   O886    1.282   .     A
C841   O883    1.282   .     A
C841   C850    1.416   .     S
C842   O885    1.282   .     A
C842   C849    1.416   .     S
C842   O884    1.282   .     A
C843   C868    1.420   .     A
C843   C897    1.448   .     S
C844   C899    1.448   .     S
C844   C867    1.420   .     A
C844   C330    1.397   1_556 S
C845   C850    1.397   .     A
C845   H873    1.084   .     S
C846   C849    1.397   .     A
C846   H874    1.084   .     S
C846   C728    1.369   1_655 S
C847   C849    1.396   .     A
C847   H875    1.084   .     S
C847   C725    1.369   1_655 S
C848   H876    1.084   .     S
C848   C850    1.396   .     A
C851   N882    1.366   .     A
C851   H877    1.082   .     S
C852   N881    1.366   .     A
C852   H878    1.082   .     S
C852   C1033   1.417   .     S
C853   H879    1.082   .     S
C853   N882    1.366   .     A
C854   N881    1.366   .     A
C854   H880    1.082   .     S
C854   C1031   1.417   .     S
C855   O887    1.283   .     A
C855   C860    1.421   .     S
C855   O890    1.282   .     A
C856   O888    1.283   .     A
C856   O889    1.282   .     A
C856   C859    1.421   .     S
C857   C867    1.413   .     A
C857   Br893   1.943   .     S
C857   C859    1.394   .     A
C858   C860    1.394   .     A
C858   C868    1.413   .     A
C858   Br894   1.943   .     S
C859   C861    1.378   .     A
C860   C862    1.378   .     A
C861   H871    1.082   .     S
C861   C863    1.383   .     A
C862   H872    1.082   .     S
C862   C864    1.383   .     A
C863   C865    1.418   .     A
C863   C869    1.407   .     A
C864   C866    1.418   .     A
C864   C870    1.407   .     A
C865   C867    1.432   .     A
C865   C326    1.401   1_556 S
C866   C868    1.432   .     A
C869   Br895   1.946   .     S
C869   C303    1.397   1_556 S
C870   Br896   1.946   .     S
N881   Zn891   2.010   .     S
N882   Zn892   2.010   .     S
O883   Zn891   1.996   .     S
O884   Zn892   1.996   .     S
O885   Zn891   1.994   .     S
O886   Zn892   1.994   .     S
O887   Zn891   2.007   .     S
O888   Zn892   2.007   .     S
O889   Zn891   2.010   .     S
O890   Zn892   2.010   .     S
C897   N898    1.158   .     T
C899   N900    1.158   .     T
C901   O946    1.282   .     A
C901   O943    1.282   .     A
C901   C910    1.416   .     S
C902   O945    1.282   .     A
C902   C909    1.416   .     S
C902   O944    1.282   .     A
C903   C928    1.420   .     A
C903   C957    1.448   .     S
C904   C959    1.448   .     S
C904   C927    1.420   .     A
C904   C390    1.397   1_556 S
C905   C910    1.397   .     A
C905   H933    1.084   .     S
C905   C1027   1.369   1_455 S
C906   C909    1.397   .     A
C906   H934    1.084   .     S
C906   C968    1.369   .     S
C907   C909    1.396   .     A
C907   H935    1.084   .     S
C907   C965    1.369   .     S
C908   H936    1.084   .     S
C908   C910    1.396   .     A
C908   C1026   1.369   1_455 S
C911   N942    1.366   .     A
C911   H937    1.082   .     S
C912   N941    1.366   .     A
C912   H938    1.082   .     S
C912   C553    1.417   1_565 S
C913   H939    1.082   .     S
C913   N942    1.366   .     A
C914   N941    1.366   .     A
C914   H940    1.082   .     S
C914   C551    1.417   1_565 S
C915   O947    1.283   .     A
C915   C920    1.421   .     S
C915   O950    1.282   .     A
C916   O948    1.283   .     A
C916   O949    1.282   .     A
C916   C919    1.421   .     S
C917   C927    1.413   .     A
C917   Br953   1.943   .     S
C917   C919    1.394   .     A
C918   C920    1.394   .     A
C918   C928    1.413   .     A
C918   Br954   1.943   .     S
C919   C921    1.378   .     A
C920   C922    1.378   .     A
C921   H931    1.082   .     S
C921   C923    1.383   .     A
C922   H932    1.082   .     S
C922   C924    1.383   .     A
C923   C925    1.418   .     A
C923   C929    1.407   .     A
C924   C926    1.418   .     A
C924   C930    1.407   .     A
C925   C927    1.432   .     A
C925   C386    1.401   1_556 S
C926   C928    1.432   .     A
C929   Br955   1.946   .     S
C929   C363    1.397   1_556 S
C930   Br956   1.946   .     S
N941   Zn951   2.010   .     S
N942   Zn952   2.010   .     S
O943   Zn951   1.996   .     S
O944   Zn952   1.996   .     S
O945   Zn951   1.994   .     S
O946   Zn952   1.994   .     S
O947   Zn951   2.007   .     S
O948   Zn952   2.007   .     S
O949   Zn951   2.010   .     S
O950   Zn952   2.010   .     S
C957   N958    1.158   .     T
C959   N960    1.158   .     T
C961   O1006   1.282   .     A
C961   O1003   1.282   .     A
C961   C970    1.416   .     S
C962   O1005   1.282   .     A
C962   C969    1.416   .     S
C962   O1004   1.282   .     A
C963   C988    1.420   .     A
C963   C1017   1.448   .     S
C964   C1019   1.448   .     S
C964   C987    1.420   .     A
C964   C450    1.397   1_556 S
C965   C970    1.397   .     A
C965   H993    1.084   .     S
C966   C969    1.397   .     A
C966   H994    1.084   .     S
C966   C1028   1.369   .     S
C967   C969    1.396   .     A
C967   H995    1.084   .     S
C967   C1025   1.369   .     S
C968   H996    1.084   .     S
C968   C970    1.396   .     A
C971   N1002   1.366   .     A
C971   H997    1.082   .     S
C972   N1001   1.366   .     A
C972   H998    1.082   .     S
C972   C613    1.417   1_565 S
C973   H999    1.082   .     S
C973   N1002   1.366   .     A
C974   N1001   1.366   .     A
C974   H1000   1.082   .     S
C974   C611    1.417   1_565 S
C975   O1007   1.283   .     A
C975   C980    1.421   .     S
C975   O1010   1.282   .     A
C976   O1008   1.283   .     A
C976   O1009   1.282   .     A
C976   C979    1.421   .     S
C977   C987    1.413   .     A
C977   Br1013  1.943   .     S
C977   C979    1.394   .     A
C978   C980    1.394   .     A
C978   C988    1.413   .     A
C978   Br1014  1.943   .     S
C979   C981    1.378   .     A
C980   C982    1.378   .     A
C981   H991    1.082   .     S
C981   C983    1.383   .     A
C982   H992    1.082   .     S
C982   C984    1.383   .     A
C983   C985    1.418   .     A
C983   C989    1.407   .     A
C984   C986    1.418   .     A
C984   C990    1.407   .     A
C985   C987    1.432   .     A
C985   C446    1.401   1_556 S
C986   C988    1.432   .     A
C989   Br1015  1.946   .     S
C989   C423    1.397   1_556 S
C990   Br1016  1.946   .     S
N1001  Zn1011  2.010   .     S
N1002  Zn1012  2.010   .     S
O1003  Zn1011  1.996   .     S
O1004  Zn1012  1.996   .     S
O1005  Zn1011  1.994   .     S
O1006  Zn1012  1.994   .     S
O1007  Zn1011  2.007   .     S
O1008  Zn1012  2.007   .     S
O1009  Zn1011  2.010   .     S
O1010  Zn1012  2.010   .     S
C1017  N1018   1.158   .     T
C1019  N1020   1.158   .     T
C1021  O1066   1.282   .     A
C1021  O1063   1.282   .     A
C1021  C1030   1.416   .     S
C1022  O1065   1.282   .     A
C1022  C1029   1.416   .     S
C1022  O1064   1.282   .     A
C1023  C1048   1.420   .     A
C1023  C1077   1.448   .     S
C1024  C1079   1.448   .     S
C1024  C1047   1.420   .     A
C1024  C510    1.397   1_556 S
C1025  C1030   1.397   .     A
C1025  H1053   1.084   .     S
C1026  C1029   1.397   .     A
C1026  H1054   1.084   .     S
C1026  C908    1.369   1_655 S
C1027  C1029   1.396   .     A
C1027  H1055   1.084   .     S
C1027  C905    1.369   1_655 S
C1028  H1056   1.084   .     S
C1028  C1030   1.396   .     A
C1031  N1062   1.366   .     A
C1031  H1057   1.082   .     S
C1032  N1061   1.366   .     A
C1032  H1058   1.082   .     S
C1032  C673    1.417   1_565 S
C1033  H1059   1.082   .     S
C1033  N1062   1.366   .     A
C1034  N1061   1.366   .     A
C1034  H1060   1.082   .     S
C1034  C671    1.417   1_565 S
C1035  O1067   1.283   .     A
C1035  C1040   1.421   .     S
C1035  O1070   1.282   .     A
C1036  O1068   1.283   .     A
C1036  O1069   1.282   .     A
C1036  C1039   1.421   .     S
C1037  C1047   1.413   .     A
C1037  Br1073  1.943   .     S
C1037  C1039   1.394   .     A
C1038  C1040   1.394   .     A
C1038  C1048   1.413   .     A
C1038  Br1074  1.943   .     S
C1039  C1041   1.378   .     A
C1040  C1042   1.378   .     A
C1041  H1051   1.082   .     S
C1041  C1043   1.383   .     A
C1042  H1052   1.082   .     S
C1042  C1044   1.383   .     A
C1043  C1045   1.418   .     A
C1043  C1049   1.407   .     A
C1044  C1046   1.418   .     A
C1044  C1050   1.407   .     A
C1045  C1047   1.432   .     A
C1045  C506    1.401   1_556 S
C1046  C1048   1.432   .     A
C1049  Br1075  1.946   .     S
C1049  C483    1.397   1_556 S
C1050  Br1076  1.946   .     S
N1061  Zn1071  2.010   .     S
N1062  Zn1072  2.010   .     S
O1063  Zn1071  1.996   .     S
O1064  Zn1072  1.996   .     S
O1065  Zn1071  1.994   .     S
O1066  Zn1072  1.994   .     S
O1067  Zn1071  2.007   .     S
O1068  Zn1072  2.007   .     S
O1069  Zn1071  2.010   .     S
O1070  Zn1072  2.010   .     S
C1077  N1078   1.158   .     T
C1079  N1080   1.158   .     T
