data_str_m2_o2_o10_pcu_sym.30
_audit_creation_date              2020-01-03
_audit_creation_method            'Materials Studio'
_symmetry_space_group_name_H-M    'P1'
_symmetry_Int_Tables_number       1
_symmetry_cell_setting            triclinic
loop_
_symmetry_equiv_pos_as_xyz
  x,y,z
_cell_length_a                    26.0992
_cell_length_b                    30.0895
_cell_length_c                    28.0375
_cell_angle_alpha                 90.0804
_cell_angle_beta                  98.0799
_cell_angle_gamma                 93.0687
loop_
_atom_site_label
_atom_site_type_symbol
_atom_site_fract_x
_atom_site_fract_y
_atom_site_fract_z
_atom_site_U_iso_or_equiv
_atom_site_adp_type
_atom_site_occupancy
C1     C     0.17036   0.16509   0.25068   0.00000  Uiso   1.00
C2     C     0.18273   0.28729   0.44836   0.00000  Uiso   1.00
C3     C     0.16634   0.25148   0.02704   0.00000  Uiso   1.00
C4     C     0.16429   0.25033   0.47232   0.00000  Uiso   1.00
C5     C     0.06801   0.24970   0.23765   0.00000  Uiso   1.00
C6     C     0.26535   0.25015   0.26247   0.00000  Uiso   1.00
C7     C     0.01264   0.24929   0.23118   0.00000  Uiso   1.00
C8     C     0.32080   0.25041   0.26941   0.00000  Uiso   1.00
C9     C     0.18914   0.04784   0.29626   0.00000  Uiso   1.00
C10    C     0.13419   0.45272   0.26560   0.00000  Uiso   1.00
C11    C     0.19047   0.09407   0.29630   0.00000  Uiso   1.00
C12    C     0.16719   0.33479   0.25011   0.00000  Uiso   1.00
C13    C     0.12897   0.40663   0.26249   0.00000  Uiso   1.00
C14    C     0.17725   0.11673   0.25238   0.00000  Uiso   1.00
C15    C     0.17033   0.38290   0.25084   0.00000  Uiso   1.00
C16    C     0.17151   0.09243   0.20902   0.00000  Uiso   1.00
C17    C     0.21640   0.40526   0.24192   0.00000  Uiso   1.00
C18    C     0.17324   0.04612   0.20865   0.00000  Uiso   1.00
C19    C     0.22165   0.45165   0.24432   0.00000  Uiso   1.00
C20    C     0.18001   0.02381   0.25308   0.00000  Uiso   1.00
C21    C     0.17962   0.47533   0.25555   0.00000  Uiso   1.00
C22    C     0.16993   0.02233   0.16171   0.00000  Uiso   1.00
C23    C     0.20874   0.27088   0.05877   0.00000  Uiso   1.00
C24    C     0.20538   0.03420   0.12991   0.00000  Uiso   1.00
C25    C     0.20468   0.01048   0.08689   0.00000  Uiso   1.00
C26    C     0.16784   0.47547   0.07463   0.00000  Uiso   1.00
C27    C     0.13176   0.46399   0.10550   0.00000  Uiso   1.00
C28    C     0.13278   0.48724   0.14885   0.00000  Uiso   1.00
C29    C     0.27046   0.47475   0.23418   0.00000  Uiso   1.00
C30    C     0.28787   0.46855   0.18959   0.00000  Uiso   1.00
C31    C     0.33153   0.49312   0.17841   0.00000  Uiso   1.00
C32    C     0.02538   0.02327   0.21201   0.00000  Uiso   1.00
C33    C     0.00936   0.02847   0.25706   0.00000  Uiso   1.00
C34    C     0.14365   0.21326   0.44322   0.00000  Uiso   1.00
C35    C     0.29881   0.00424   0.26823   0.00000  Uiso   1.00
C36    C     0.25732   0.28529   0.03953   0.00000  Uiso   1.00
C37    C     0.28538   0.25337   0.01921   0.00000  Uiso   1.00
C38    C     0.32779   0.26649   0.49620   0.00000  Uiso   1.00
C39    C     0.01007   0.31147   0.49413   0.00000  Uiso   1.00
C40    C     0.31579   0.34355   0.01409   0.00000  Uiso   1.00
C41    C     0.27257   0.33067   0.03617   0.00000  Uiso   1.00
C42    C     0.13189   0.17002   0.46598   0.00000  Uiso   1.00
C43    C     0.17298   0.14611   0.48888   0.00000  Uiso   1.00
C44    C     0.16308   0.10672   0.01305   0.00000  Uiso   1.00
C45    C     0.20559   0.27355   0.10926   0.00000  Uiso   1.00
C46    C     0.11207   0.09075   0.01458   0.00000  Uiso   1.00
C47    C     0.07085   0.11424   0.49183   0.00000  Uiso   1.00
C48    C     0.08061   0.15370   0.46758   0.00000  Uiso   1.00
C49    C     0.08514   0.20080   0.11404   0.00000  Uiso   1.00
C50    C     0.03527   0.21623   0.11396   0.00000  Uiso   1.00
C51    C     0.32740   0.18666   0.12174   0.00000  Uiso   1.00
C52    C     0.00213   0.14141   0.12833   0.00000  Uiso   1.00
C53    C     0.05099   0.12550   0.12575   0.00000  Uiso   1.00
C54    C     0.09198   0.15502   0.11759   0.00000  Uiso   1.00
C55    C     0.22118   0.32125   0.38183   0.00000  Uiso   1.00
C56    C     0.13979   0.21626   0.39207   0.00000  Uiso   1.00
C57    C     0.20333   0.36452   0.37707   0.00000  Uiso   1.00
C58    C     0.23631   0.39986   0.36562   0.00000  Uiso   1.00
C59    C     0.28760   0.39248   0.36023   0.00000  Uiso   1.00
C60    C     0.30608   0.34983   0.36677   0.00000  Uiso   1.00
C61    C     0.27310   0.31438   0.37774   0.00000  Uiso   1.00
C62    C     0.12654   0.22983   0.09815   0.00000  Uiso   1.00
C63    C     0.18872   0.28509   0.39939   0.00000  Uiso   1.00
C64    C     0.12451   0.23365   0.04804   0.00000  Uiso   1.00
Cu65   Cu    0.16667   0.24999   0.29822   0.00000  Uiso   1.00
Cu66   Cu    0.16667   0.25000   0.20179   0.00000  Uiso   1.00
H67    H     0.32576   0.24814   0.19473   0.00000  Uiso   1.00
H68    H     0.23291   0.01911   0.06315   0.00000  Uiso   1.00
H69    H     0.16728   0.45721   0.04126   0.00000  Uiso   1.00
H70    H     0.10315   0.43689   0.09600   0.00000  Uiso   1.00
H71    H     0.10479   0.47762   0.17232   0.00000  Uiso   1.00
H72    H     0.26662   0.44588   0.16292   0.00000  Uiso   1.00
H73    H     0.01063   0.48908   0.14350   0.00000  Uiso   1.00
H74    H     0.05901   0.04244   0.20330   0.00000  Uiso   1.00
H75    H     0.03082   0.05145   0.28323   0.00000  Uiso   1.00
H76    H     0.28679   0.00864   0.30326   0.00000  Uiso   1.00
H77    H     0.27368   0.21838   0.02030   0.00000  Uiso   1.00
H78    H     0.00759   0.25172   0.30610   0.00000  Uiso   1.00
H79    H     0.01472   0.24181   0.47930   0.00000  Uiso   1.00
H80    H     0.04298   0.32149   0.47632   0.00000  Uiso   1.00
H81    H     0.32721   0.37848   0.01156   0.00000  Uiso   1.00
H82    H     0.25005   0.35608   0.04923   0.00000  Uiso   1.00
H83    H     0.21270   0.15815   0.48823   0.00000  Uiso   1.00
H84    H     0.19506   0.08881   0.03080   0.00000  Uiso   1.00
H85    H     0.10450   0.06039   0.03365   0.00000  Uiso   1.00
H86    H     0.03133   0.10210   0.49339   0.00000  Uiso   1.00
H87    H     0.04829   0.17209   0.45112   0.00000  Uiso   1.00
H88    H     0.02841   0.25110   0.10788   0.00000  Uiso   1.00
H89    H     0.19763   0.03042   0.33003   0.00000  Uiso   1.00
H90    H     0.28916   0.19877   0.12224   0.00000  Uiso   1.00
H91    H     0.30360   0.11857   0.13424   0.00000  Uiso   1.00
H92    H     0.05678   0.09020   0.12867   0.00000  Uiso   1.00
H93    H     0.12847   0.14223   0.11157   0.00000  Uiso   1.00
H94    H     0.16391   0.37072   0.38203   0.00000  Uiso   1.00
H95    H     0.22220   0.43299   0.36117   0.00000  Uiso   1.00
H96    H     0.31317   0.41989   0.35159   0.00000  Uiso   1.00
H97    H     0.01286   0.34428   0.36415   0.00000  Uiso   1.00
H98    H     0.28838   0.28183   0.38427   0.00000  Uiso   1.00
H99    H     0.10189   0.47114   0.27367   0.00000  Uiso   1.00
H100   H     0.16609   0.10942   0.17516   0.00000  Uiso   1.00
H101   H     0.24861   0.38652   0.23418   0.00000  Uiso   1.00
H102   H     0.09016   0.22085   0.02540   0.00000  Uiso   1.00
H103   H     0.19505   0.31770   0.46814   0.00000  Uiso   1.00
H104   H     0.23455   0.06090   0.13916   0.00000  Uiso   1.00
I105   I     0.22191   0.12470   0.36340   0.00000  Uiso   1.00
I106   I     0.05631   0.37527   0.27117   0.00000  Uiso   1.00
I107   I     0.25890   0.32060   0.15026   0.00000  Uiso   1.00
I108   I     0.08405   0.17092   0.35099   0.00000  Uiso   1.00
N109   N     0.16667   0.25001   0.12935   0.00000  Uiso   1.00
N110   N     0.16667   0.24999   0.37066   0.00000  Uiso   1.00
O111   O     0.16667   0.18573   0.29072   0.00000  Uiso   1.00
O112   O     0.16666   0.31427   0.20929   0.00000  Uiso   1.00
O113   O     0.16667   0.18573   0.20928   0.00000  Uiso   1.00
O114   O     0.16666   0.31427   0.29072   0.00000  Uiso   1.00
O115   O     0.09161   0.24999   0.28132   0.00000  Uiso   1.00
O116   O     0.24172   0.25001   0.21868   0.00000  Uiso   1.00
O117   O     0.09161   0.25000   0.19989   0.00000  Uiso   1.00
O118   O     0.24172   0.25000   0.30012   0.00000  Uiso   1.00
C119   C     0.50369   0.16509   0.25068   0.00000  Uiso   1.00
C120   C     0.51607   0.28729   0.44836   0.00000  Uiso   1.00
C121   C     0.49968   0.25148   0.02704   0.00000  Uiso   1.00
C122   C     0.49763   0.25033   0.47232   0.00000  Uiso   1.00
C123   C     0.40135   0.24970   0.23765   0.00000  Uiso   1.00
C124   C     0.59869   0.25015   0.26247   0.00000  Uiso   1.00
C125   C     0.34597   0.24929   0.23118   0.00000  Uiso   1.00
C126   C     0.65414   0.25041   0.26941   0.00000  Uiso   1.00
C127   C     0.52247   0.04784   0.29626   0.00000  Uiso   1.00
C128   C     0.46753   0.45272   0.26560   0.00000  Uiso   1.00
C129   C     0.52380   0.09407   0.29630   0.00000  Uiso   1.00
C130   C     0.50052   0.33479   0.25011   0.00000  Uiso   1.00
C131   C     0.46230   0.40663   0.26249   0.00000  Uiso   1.00
C132   C     0.51058   0.11673   0.25238   0.00000  Uiso   1.00
C133   C     0.50367   0.38290   0.25084   0.00000  Uiso   1.00
C134   C     0.50484   0.09243   0.20902   0.00000  Uiso   1.00
C135   C     0.54973   0.40526   0.24192   0.00000  Uiso   1.00
C136   C     0.50658   0.04612   0.20865   0.00000  Uiso   1.00
C137   C     0.55498   0.45165   0.24432   0.00000  Uiso   1.00
C138   C     0.51334   0.02381   0.25308   0.00000  Uiso   1.00
C139   C     0.51295   0.47533   0.25555   0.00000  Uiso   1.00
C140   C     0.50327   0.02233   0.16171   0.00000  Uiso   1.00
C141   C     0.54207   0.27088   0.05877   0.00000  Uiso   1.00
C142   C     0.53871   0.03420   0.12991   0.00000  Uiso   1.00
C143   C     0.53802   0.01048   0.08689   0.00000  Uiso   1.00
C144   C     0.50117   0.47547   0.07463   0.00000  Uiso   1.00
C145   C     0.46509   0.46399   0.10550   0.00000  Uiso   1.00
C146   C     0.46612   0.48724   0.14885   0.00000  Uiso   1.00
C147   C     0.60379   0.47475   0.23418   0.00000  Uiso   1.00
C148   C     0.62121   0.46855   0.18959   0.00000  Uiso   1.00
C149   C     0.66487   0.49312   0.17841   0.00000  Uiso   1.00
C150   C     0.35871   0.02327   0.21201   0.00000  Uiso   1.00
C151   C     0.34270   0.02847   0.25706   0.00000  Uiso   1.00
C152   C     0.47698   0.21326   0.44322   0.00000  Uiso   1.00
C153   C     0.63215   0.00424   0.26823   0.00000  Uiso   1.00
C154   C     0.59065   0.28529   0.03953   0.00000  Uiso   1.00
C155   C     0.61871   0.25337   0.01921   0.00000  Uiso   1.00
C156   C     0.66112   0.26649   0.49620   0.00000  Uiso   1.00
C157   C     0.34340   0.31147   0.49413   0.00000  Uiso   1.00
C158   C     0.64912   0.34355   0.01409   0.00000  Uiso   1.00
C159   C     0.60590   0.33067   0.03617   0.00000  Uiso   1.00
C160   C     0.46523   0.17002   0.46598   0.00000  Uiso   1.00
C161   C     0.50632   0.14611   0.48888   0.00000  Uiso   1.00
C162   C     0.49641   0.10672   0.01305   0.00000  Uiso   1.00
C163   C     0.53892   0.27355   0.10926   0.00000  Uiso   1.00
C164   C     0.44540   0.09075   0.01458   0.00000  Uiso   1.00
C165   C     0.40419   0.11424   0.49183   0.00000  Uiso   1.00
C166   C     0.41394   0.15370   0.46758   0.00000  Uiso   1.00
C167   C     0.41847   0.20080   0.11404   0.00000  Uiso   1.00
C168   C     0.36860   0.21623   0.11396   0.00000  Uiso   1.00
C169   C     0.66074   0.18666   0.12174   0.00000  Uiso   1.00
C170   C     0.33546   0.14141   0.12833   0.00000  Uiso   1.00
C171   C     0.38433   0.12550   0.12575   0.00000  Uiso   1.00
C172   C     0.42531   0.15502   0.11759   0.00000  Uiso   1.00
C173   C     0.55451   0.32125   0.38183   0.00000  Uiso   1.00
C174   C     0.47312   0.21626   0.39207   0.00000  Uiso   1.00
C175   C     0.53666   0.36452   0.37707   0.00000  Uiso   1.00
C176   C     0.56965   0.39986   0.36562   0.00000  Uiso   1.00
C177   C     0.62094   0.39248   0.36023   0.00000  Uiso   1.00
C178   C     0.63941   0.34983   0.36677   0.00000  Uiso   1.00
C179   C     0.60643   0.31438   0.37774   0.00000  Uiso   1.00
C180   C     0.45987   0.22983   0.09815   0.00000  Uiso   1.00
C181   C     0.52205   0.28509   0.39939   0.00000  Uiso   1.00
C182   C     0.45784   0.23365   0.04804   0.00000  Uiso   1.00
Cu183  Cu    0.50000   0.24999   0.29822   0.00000  Uiso   1.00
Cu184  Cu    0.50000   0.25000   0.20179   0.00000  Uiso   1.00
H185   H     0.65909   0.24814   0.19473   0.00000  Uiso   1.00
H186   H     0.56625   0.01911   0.06315   0.00000  Uiso   1.00
H187   H     0.50062   0.45721   0.04126   0.00000  Uiso   1.00
H188   H     0.43649   0.43689   0.09600   0.00000  Uiso   1.00
H189   H     0.43812   0.47762   0.17232   0.00000  Uiso   1.00
H190   H     0.59995   0.44588   0.16292   0.00000  Uiso   1.00
H191   H     0.34396   0.48908   0.14350   0.00000  Uiso   1.00
H192   H     0.39234   0.04244   0.20330   0.00000  Uiso   1.00
H193   H     0.36415   0.05145   0.28323   0.00000  Uiso   1.00
H194   H     0.62013   0.00864   0.30326   0.00000  Uiso   1.00
H195   H     0.60702   0.21838   0.02030   0.00000  Uiso   1.00
H196   H     0.34092   0.25172   0.30610   0.00000  Uiso   1.00
H197   H     0.34805   0.24181   0.47930   0.00000  Uiso   1.00
H198   H     0.37632   0.32149   0.47632   0.00000  Uiso   1.00
H199   H     0.66055   0.37848   0.01156   0.00000  Uiso   1.00
H200   H     0.58338   0.35608   0.04923   0.00000  Uiso   1.00
H201   H     0.54604   0.15815   0.48823   0.00000  Uiso   1.00
H202   H     0.52839   0.08881   0.03080   0.00000  Uiso   1.00
H203   H     0.43783   0.06039   0.03365   0.00000  Uiso   1.00
H204   H     0.36467   0.10210   0.49339   0.00000  Uiso   1.00
H205   H     0.38163   0.17209   0.45112   0.00000  Uiso   1.00
H206   H     0.36175   0.25110   0.10788   0.00000  Uiso   1.00
H207   H     0.53097   0.03042   0.33003   0.00000  Uiso   1.00
H208   H     0.62249   0.19877   0.12224   0.00000  Uiso   1.00
H209   H     0.63693   0.11857   0.13424   0.00000  Uiso   1.00
H210   H     0.39011   0.09020   0.12867   0.00000  Uiso   1.00
H211   H     0.46180   0.14223   0.11157   0.00000  Uiso   1.00
H212   H     0.49724   0.37072   0.38203   0.00000  Uiso   1.00
H213   H     0.55553   0.43299   0.36117   0.00000  Uiso   1.00
H214   H     0.64650   0.41989   0.35159   0.00000  Uiso   1.00
H215   H     0.34619   0.34428   0.36415   0.00000  Uiso   1.00
H216   H     0.62171   0.28183   0.38427   0.00000  Uiso   1.00
H217   H     0.43522   0.47114   0.27367   0.00000  Uiso   1.00
H218   H     0.49943   0.10942   0.17516   0.00000  Uiso   1.00
H219   H     0.58194   0.38652   0.23418   0.00000  Uiso   1.00
H220   H     0.42349   0.22085   0.02540   0.00000  Uiso   1.00
H221   H     0.52838   0.31770   0.46814   0.00000  Uiso   1.00
H222   H     0.56788   0.06090   0.13916   0.00000  Uiso   1.00
I223   I     0.55524   0.12470   0.36340   0.00000  Uiso   1.00
I224   I     0.38965   0.37527   0.27117   0.00000  Uiso   1.00
I225   I     0.59224   0.32060   0.15026   0.00000  Uiso   1.00
I226   I     0.41739   0.17092   0.35099   0.00000  Uiso   1.00
N227   N     0.50000   0.25001   0.12935   0.00000  Uiso   1.00
N228   N     0.50000   0.24999   0.37066   0.00000  Uiso   1.00
O229   O     0.50000   0.18573   0.29072   0.00000  Uiso   1.00
O230   O     0.50000   0.31427   0.20929   0.00000  Uiso   1.00
O231   O     0.50000   0.18573   0.20928   0.00000  Uiso   1.00
O232   O     0.50000   0.31427   0.29072   0.00000  Uiso   1.00
O233   O     0.42495   0.24999   0.28132   0.00000  Uiso   1.00
O234   O     0.57505   0.25001   0.21868   0.00000  Uiso   1.00
O235   O     0.42495   0.25000   0.19989   0.00000  Uiso   1.00
O236   O     0.57505   0.25000   0.30012   0.00000  Uiso   1.00
C237   C     0.83702   0.16509   0.25068   0.00000  Uiso   1.00
C238   C     0.84940   0.28729   0.44836   0.00000  Uiso   1.00
C239   C     0.83301   0.25148   0.02704   0.00000  Uiso   1.00
C240   C     0.83096   0.25033   0.47232   0.00000  Uiso   1.00
C241   C     0.73468   0.24970   0.23765   0.00000  Uiso   1.00
C242   C     0.93202   0.25015   0.26247   0.00000  Uiso   1.00
C243   C     0.67931   0.24929   0.23118   0.00000  Uiso   1.00
C244   C     0.98747   0.25041   0.26941   0.00000  Uiso   1.00
C245   C     0.85580   0.04784   0.29626   0.00000  Uiso   1.00
C246   C     0.80086   0.45272   0.26560   0.00000  Uiso   1.00
C247   C     0.85714   0.09407   0.29630   0.00000  Uiso   1.00
C248   C     0.83386   0.33479   0.25011   0.00000  Uiso   1.00
C249   C     0.79564   0.40663   0.26249   0.00000  Uiso   1.00
C250   C     0.84392   0.11673   0.25238   0.00000  Uiso   1.00
C251   C     0.83700   0.38290   0.25084   0.00000  Uiso   1.00
C252   C     0.83818   0.09243   0.20902   0.00000  Uiso   1.00
C253   C     0.88306   0.40526   0.24192   0.00000  Uiso   1.00
C254   C     0.83991   0.04612   0.20865   0.00000  Uiso   1.00
C255   C     0.88831   0.45165   0.24432   0.00000  Uiso   1.00
C256   C     0.84667   0.02381   0.25308   0.00000  Uiso   1.00
C257   C     0.84628   0.47533   0.25555   0.00000  Uiso   1.00
C258   C     0.83660   0.02233   0.16171   0.00000  Uiso   1.00
C259   C     0.87540   0.27088   0.05877   0.00000  Uiso   1.00
C260   C     0.87204   0.03420   0.12991   0.00000  Uiso   1.00
C261   C     0.87135   0.01048   0.08689   0.00000  Uiso   1.00
C262   C     0.83450   0.47547   0.07463   0.00000  Uiso   1.00
C263   C     0.79842   0.46399   0.10550   0.00000  Uiso   1.00
C264   C     0.79945   0.48724   0.14885   0.00000  Uiso   1.00
C265   C     0.93713   0.47475   0.23418   0.00000  Uiso   1.00
C266   C     0.95454   0.46855   0.18959   0.00000  Uiso   1.00
C267   C     0.99820   0.49312   0.17841   0.00000  Uiso   1.00
C268   C     0.69204   0.02327   0.21201   0.00000  Uiso   1.00
C269   C     0.67603   0.02847   0.25706   0.00000  Uiso   1.00
C270   C     0.81031   0.21326   0.44322   0.00000  Uiso   1.00
C271   C     0.96548   0.00424   0.26823   0.00000  Uiso   1.00
C272   C     0.92398   0.28529   0.03953   0.00000  Uiso   1.00
C273   C     0.95205   0.25337   0.01921   0.00000  Uiso   1.00
C274   C     0.99446   0.26649   0.49620   0.00000  Uiso   1.00
C275   C     0.67673   0.31147   0.49413   0.00000  Uiso   1.00
C276   C     0.98245   0.34355   0.01409   0.00000  Uiso   1.00
C277   C     0.93923   0.33067   0.03617   0.00000  Uiso   1.00
C278   C     0.79856   0.17002   0.46598   0.00000  Uiso   1.00
C279   C     0.83965   0.14611   0.48888   0.00000  Uiso   1.00
C280   C     0.82974   0.10672   0.01305   0.00000  Uiso   1.00
C281   C     0.87226   0.27355   0.10926   0.00000  Uiso   1.00
C282   C     0.77874   0.09075   0.01458   0.00000  Uiso   1.00
C283   C     0.73752   0.11424   0.49183   0.00000  Uiso   1.00
C284   C     0.74727   0.15370   0.46758   0.00000  Uiso   1.00
C285   C     0.75181   0.20080   0.11404   0.00000  Uiso   1.00
C286   C     0.70193   0.21623   0.11396   0.00000  Uiso   1.00
C287   C     0.99407   0.18666   0.12174   0.00000  Uiso   1.00
C288   C     0.66880   0.14141   0.12833   0.00000  Uiso   1.00
C289   C     0.71766   0.12550   0.12575   0.00000  Uiso   1.00
C290   C     0.75865   0.15502   0.11759   0.00000  Uiso   1.00
C291   C     0.88784   0.32125   0.38183   0.00000  Uiso   1.00
C292   C     0.80646   0.21626   0.39207   0.00000  Uiso   1.00
C293   C     0.86999   0.36452   0.37707   0.00000  Uiso   1.00
C294   C     0.90298   0.39986   0.36562   0.00000  Uiso   1.00
C295   C     0.95427   0.39248   0.36023   0.00000  Uiso   1.00
C296   C     0.97275   0.34983   0.36677   0.00000  Uiso   1.00
C297   C     0.93976   0.31438   0.37774   0.00000  Uiso   1.00
C298   C     0.79320   0.22983   0.09815   0.00000  Uiso   1.00
C299   C     0.85539   0.28509   0.39939   0.00000  Uiso   1.00
C300   C     0.79118   0.23365   0.04804   0.00000  Uiso   1.00
Cu301  Cu    0.83333   0.24999   0.29822   0.00000  Uiso   1.00
Cu302  Cu    0.83333   0.25000   0.20179   0.00000  Uiso   1.00
H303   H     0.99242   0.24814   0.19473   0.00000  Uiso   1.00
H304   H     0.89958   0.01911   0.06315   0.00000  Uiso   1.00
H305   H     0.83395   0.45721   0.04126   0.00000  Uiso   1.00
H306   H     0.76982   0.43689   0.09600   0.00000  Uiso   1.00
H307   H     0.77145   0.47762   0.17232   0.00000  Uiso   1.00
H308   H     0.93329   0.44588   0.16292   0.00000  Uiso   1.00
H309   H     0.67729   0.48908   0.14350   0.00000  Uiso   1.00
H310   H     0.72568   0.04244   0.20330   0.00000  Uiso   1.00
H311   H     0.69748   0.05145   0.28323   0.00000  Uiso   1.00
H312   H     0.95346   0.00864   0.30326   0.00000  Uiso   1.00
H313   H     0.94035   0.21838   0.02030   0.00000  Uiso   1.00
H314   H     0.67426   0.25172   0.30610   0.00000  Uiso   1.00
H315   H     0.68139   0.24181   0.47930   0.00000  Uiso   1.00
H316   H     0.70965   0.32149   0.47632   0.00000  Uiso   1.00
H317   H     0.99388   0.37848   0.01156   0.00000  Uiso   1.00
H318   H     0.91672   0.35608   0.04923   0.00000  Uiso   1.00
H319   H     0.87937   0.15815   0.48823   0.00000  Uiso   1.00
H320   H     0.86172   0.08881   0.03080   0.00000  Uiso   1.00
H321   H     0.77116   0.06039   0.03365   0.00000  Uiso   1.00
H322   H     0.69800   0.10210   0.49339   0.00000  Uiso   1.00
H323   H     0.71496   0.17209   0.45112   0.00000  Uiso   1.00
H324   H     0.69508   0.25110   0.10788   0.00000  Uiso   1.00
H325   H     0.86430   0.03042   0.33003   0.00000  Uiso   1.00
H326   H     0.95583   0.19877   0.12224   0.00000  Uiso   1.00
H327   H     0.97027   0.11857   0.13424   0.00000  Uiso   1.00
H328   H     0.72344   0.09020   0.12867   0.00000  Uiso   1.00
H329   H     0.79513   0.14223   0.11157   0.00000  Uiso   1.00
H330   H     0.83057   0.37072   0.38203   0.00000  Uiso   1.00
H331   H     0.88886   0.43299   0.36117   0.00000  Uiso   1.00
H332   H     0.97984   0.41989   0.35159   0.00000  Uiso   1.00
H333   H     0.67953   0.34428   0.36415   0.00000  Uiso   1.00
H334   H     0.95504   0.28183   0.38427   0.00000  Uiso   1.00
H335   H     0.76855   0.47114   0.27367   0.00000  Uiso   1.00
H336   H     0.83276   0.10942   0.17516   0.00000  Uiso   1.00
H337   H     0.91528   0.38652   0.23418   0.00000  Uiso   1.00
H338   H     0.75683   0.22085   0.02540   0.00000  Uiso   1.00
H339   H     0.86172   0.31770   0.46814   0.00000  Uiso   1.00
H340   H     0.90121   0.06090   0.13916   0.00000  Uiso   1.00
I341   I     0.88858   0.12470   0.36340   0.00000  Uiso   1.00
I342   I     0.72298   0.37527   0.27117   0.00000  Uiso   1.00
I343   I     0.92557   0.32060   0.15026   0.00000  Uiso   1.00
I344   I     0.75072   0.17092   0.35099   0.00000  Uiso   1.00
N345   N     0.83333   0.25001   0.12935   0.00000  Uiso   1.00
N346   N     0.83333   0.24999   0.37066   0.00000  Uiso   1.00
O347   O     0.83334   0.18573   0.29072   0.00000  Uiso   1.00
O348   O     0.83333   0.31427   0.20929   0.00000  Uiso   1.00
O349   O     0.83334   0.18573   0.20928   0.00000  Uiso   1.00
O350   O     0.83333   0.31427   0.29072   0.00000  Uiso   1.00
O351   O     0.75828   0.24999   0.28132   0.00000  Uiso   1.00
O352   O     0.90839   0.25001   0.21868   0.00000  Uiso   1.00
O353   O     0.75828   0.25000   0.19989   0.00000  Uiso   1.00
O354   O     0.90839   0.25000   0.30012   0.00000  Uiso   1.00
C355   C     0.17036   0.66509   0.25068   0.00000  Uiso   1.00
C356   C     0.18273   0.78729   0.44836   0.00000  Uiso   1.00
C357   C     0.16634   0.75148   0.02704   0.00000  Uiso   1.00
C358   C     0.16429   0.75033   0.47232   0.00000  Uiso   1.00
C359   C     0.06801   0.74970   0.23765   0.00000  Uiso   1.00
C360   C     0.26535   0.75015   0.26247   0.00000  Uiso   1.00
C361   C     0.01264   0.74929   0.23118   0.00000  Uiso   1.00
C362   C     0.32080   0.75041   0.26941   0.00000  Uiso   1.00
C363   C     0.18914   0.54784   0.29626   0.00000  Uiso   1.00
C364   C     0.13419   0.95272   0.26560   0.00000  Uiso   1.00
C365   C     0.19047   0.59407   0.29630   0.00000  Uiso   1.00
C366   C     0.16719   0.83479   0.25011   0.00000  Uiso   1.00
C367   C     0.12897   0.90663   0.26249   0.00000  Uiso   1.00
C368   C     0.17725   0.61673   0.25238   0.00000  Uiso   1.00
C369   C     0.17033   0.88290   0.25084   0.00000  Uiso   1.00
C370   C     0.17151   0.59243   0.20902   0.00000  Uiso   1.00
C371   C     0.21640   0.90526   0.24192   0.00000  Uiso   1.00
C372   C     0.17324   0.54612   0.20865   0.00000  Uiso   1.00
C373   C     0.22165   0.95165   0.24432   0.00000  Uiso   1.00
C374   C     0.18001   0.52381   0.25308   0.00000  Uiso   1.00
C375   C     0.17962   0.97533   0.25555   0.00000  Uiso   1.00
C376   C     0.16993   0.52233   0.16171   0.00000  Uiso   1.00
C377   C     0.20874   0.77088   0.05877   0.00000  Uiso   1.00
C378   C     0.20538   0.53420   0.12991   0.00000  Uiso   1.00
C379   C     0.20468   0.51048   0.08689   0.00000  Uiso   1.00
C380   C     0.16784   0.97547   0.07463   0.00000  Uiso   1.00
C381   C     0.13176   0.96399   0.10550   0.00000  Uiso   1.00
C382   C     0.13278   0.98724   0.14885   0.00000  Uiso   1.00
C383   C     0.27046   0.97475   0.23418   0.00000  Uiso   1.00
C384   C     0.28787   0.96855   0.18959   0.00000  Uiso   1.00
C385   C     0.33153   0.99312   0.17841   0.00000  Uiso   1.00
C386   C     0.02538   0.52327   0.21201   0.00000  Uiso   1.00
C387   C     0.00936   0.52847   0.25706   0.00000  Uiso   1.00
C388   C     0.14365   0.71326   0.44322   0.00000  Uiso   1.00
C389   C     0.29881   0.50424   0.26823   0.00000  Uiso   1.00
C390   C     0.25732   0.78529   0.03953   0.00000  Uiso   1.00
C391   C     0.28538   0.75337   0.01921   0.00000  Uiso   1.00
C392   C     0.32779   0.76649   0.49620   0.00000  Uiso   1.00
C393   C     0.01007   0.81147   0.49413   0.00000  Uiso   1.00
C394   C     0.31579   0.84355   0.01409   0.00000  Uiso   1.00
C395   C     0.27257   0.83067   0.03617   0.00000  Uiso   1.00
C396   C     0.13189   0.67002   0.46598   0.00000  Uiso   1.00
C397   C     0.17298   0.64611   0.48888   0.00000  Uiso   1.00
C398   C     0.16308   0.60672   0.01305   0.00000  Uiso   1.00
C399   C     0.20559   0.77355   0.10926   0.00000  Uiso   1.00
C400   C     0.11207   0.59075   0.01458   0.00000  Uiso   1.00
C401   C     0.07085   0.61424   0.49183   0.00000  Uiso   1.00
C402   C     0.08061   0.65370   0.46758   0.00000  Uiso   1.00
C403   C     0.08514   0.70080   0.11404   0.00000  Uiso   1.00
C404   C     0.03527   0.71623   0.11396   0.00000  Uiso   1.00
C405   C     0.32740   0.68666   0.12174   0.00000  Uiso   1.00
C406   C     0.00213   0.64141   0.12833   0.00000  Uiso   1.00
C407   C     0.05099   0.62550   0.12575   0.00000  Uiso   1.00
C408   C     0.09198   0.65502   0.11759   0.00000  Uiso   1.00
C409   C     0.22118   0.82125   0.38183   0.00000  Uiso   1.00
C410   C     0.13979   0.71626   0.39207   0.00000  Uiso   1.00
C411   C     0.20333   0.86452   0.37707   0.00000  Uiso   1.00
C412   C     0.23631   0.89986   0.36562   0.00000  Uiso   1.00
C413   C     0.28760   0.89248   0.36023   0.00000  Uiso   1.00
C414   C     0.30608   0.84983   0.36677   0.00000  Uiso   1.00
C415   C     0.27310   0.81438   0.37774   0.00000  Uiso   1.00
C416   C     0.12654   0.72983   0.09815   0.00000  Uiso   1.00
C417   C     0.18872   0.78509   0.39939   0.00000  Uiso   1.00
C418   C     0.12451   0.73365   0.04804   0.00000  Uiso   1.00
Cu419  Cu    0.16667   0.74999   0.29822   0.00000  Uiso   1.00
Cu420  Cu    0.16667   0.75000   0.20179   0.00000  Uiso   1.00
H421   H     0.32576   0.74814   0.19473   0.00000  Uiso   1.00
H422   H     0.23291   0.51911   0.06315   0.00000  Uiso   1.00
H423   H     0.16728   0.95721   0.04126   0.00000  Uiso   1.00
H424   H     0.10315   0.93689   0.09600   0.00000  Uiso   1.00
H425   H     0.10479   0.97762   0.17232   0.00000  Uiso   1.00
H426   H     0.26662   0.94588   0.16292   0.00000  Uiso   1.00
H427   H     0.01063   0.98908   0.14350   0.00000  Uiso   1.00
H428   H     0.05901   0.54244   0.20330   0.00000  Uiso   1.00
H429   H     0.03082   0.55145   0.28323   0.00000  Uiso   1.00
H430   H     0.28679   0.50864   0.30326   0.00000  Uiso   1.00
H431   H     0.27368   0.71838   0.02030   0.00000  Uiso   1.00
H432   H     0.00759   0.75172   0.30610   0.00000  Uiso   1.00
H433   H     0.01472   0.74181   0.47930   0.00000  Uiso   1.00
H434   H     0.04298   0.82149   0.47632   0.00000  Uiso   1.00
H435   H     0.32721   0.87848   0.01156   0.00000  Uiso   1.00
H436   H     0.25005   0.85608   0.04923   0.00000  Uiso   1.00
H437   H     0.21270   0.65815   0.48823   0.00000  Uiso   1.00
H438   H     0.19506   0.58881   0.03080   0.00000  Uiso   1.00
H439   H     0.10450   0.56039   0.03365   0.00000  Uiso   1.00
H440   H     0.03133   0.60210   0.49339   0.00000  Uiso   1.00
H441   H     0.04829   0.67209   0.45112   0.00000  Uiso   1.00
H442   H     0.02841   0.75110   0.10788   0.00000  Uiso   1.00
H443   H     0.19763   0.53042   0.33003   0.00000  Uiso   1.00
H444   H     0.28916   0.69877   0.12224   0.00000  Uiso   1.00
H445   H     0.30360   0.61857   0.13424   0.00000  Uiso   1.00
H446   H     0.05678   0.59020   0.12867   0.00000  Uiso   1.00
H447   H     0.12847   0.64223   0.11157   0.00000  Uiso   1.00
H448   H     0.16391   0.87072   0.38203   0.00000  Uiso   1.00
H449   H     0.22220   0.93299   0.36117   0.00000  Uiso   1.00
H450   H     0.31317   0.91989   0.35159   0.00000  Uiso   1.00
H451   H     0.01286   0.84428   0.36415   0.00000  Uiso   1.00
H452   H     0.28838   0.78183   0.38427   0.00000  Uiso   1.00
H453   H     0.10189   0.97114   0.27367   0.00000  Uiso   1.00
H454   H     0.16609   0.60942   0.17516   0.00000  Uiso   1.00
H455   H     0.24861   0.88652   0.23418   0.00000  Uiso   1.00
H456   H     0.09016   0.72085   0.02540   0.00000  Uiso   1.00
H457   H     0.19505   0.81770   0.46814   0.00000  Uiso   1.00
H458   H     0.23455   0.56090   0.13916   0.00000  Uiso   1.00
I459   I     0.22191   0.62470   0.36340   0.00000  Uiso   1.00
I460   I     0.05631   0.87527   0.27117   0.00000  Uiso   1.00
I461   I     0.25890   0.82060   0.15026   0.00000  Uiso   1.00
I462   I     0.08405   0.67092   0.35099   0.00000  Uiso   1.00
N463   N     0.16667   0.75001   0.12935   0.00000  Uiso   1.00
N464   N     0.16667   0.74999   0.37066   0.00000  Uiso   1.00
O465   O     0.16667   0.68573   0.29072   0.00000  Uiso   1.00
O466   O     0.16666   0.81427   0.20929   0.00000  Uiso   1.00
O467   O     0.16667   0.68573   0.20928   0.00000  Uiso   1.00
O468   O     0.16666   0.81427   0.29072   0.00000  Uiso   1.00
O469   O     0.09161   0.74999   0.28132   0.00000  Uiso   1.00
O470   O     0.24172   0.75001   0.21868   0.00000  Uiso   1.00
O471   O     0.09161   0.75000   0.19989   0.00000  Uiso   1.00
O472   O     0.24172   0.75000   0.30012   0.00000  Uiso   1.00
C473   C     0.50369   0.66509   0.25068   0.00000  Uiso   1.00
C474   C     0.51607   0.78729   0.44836   0.00000  Uiso   1.00
C475   C     0.49968   0.75148   0.02704   0.00000  Uiso   1.00
C476   C     0.49763   0.75033   0.47232   0.00000  Uiso   1.00
C477   C     0.40135   0.74970   0.23765   0.00000  Uiso   1.00
C478   C     0.59869   0.75015   0.26247   0.00000  Uiso   1.00
C479   C     0.34597   0.74929   0.23118   0.00000  Uiso   1.00
C480   C     0.65414   0.75041   0.26941   0.00000  Uiso   1.00
C481   C     0.52247   0.54784   0.29626   0.00000  Uiso   1.00
C482   C     0.46753   0.95272   0.26560   0.00000  Uiso   1.00
C483   C     0.52380   0.59407   0.29630   0.00000  Uiso   1.00
C484   C     0.50052   0.83479   0.25011   0.00000  Uiso   1.00
C485   C     0.46230   0.90663   0.26249   0.00000  Uiso   1.00
C486   C     0.51058   0.61673   0.25238   0.00000  Uiso   1.00
C487   C     0.50367   0.88290   0.25084   0.00000  Uiso   1.00
C488   C     0.50484   0.59243   0.20902   0.00000  Uiso   1.00
C489   C     0.54973   0.90526   0.24192   0.00000  Uiso   1.00
C490   C     0.50658   0.54612   0.20865   0.00000  Uiso   1.00
C491   C     0.55498   0.95165   0.24432   0.00000  Uiso   1.00
C492   C     0.51334   0.52381   0.25308   0.00000  Uiso   1.00
C493   C     0.51295   0.97533   0.25555   0.00000  Uiso   1.00
C494   C     0.50327   0.52233   0.16171   0.00000  Uiso   1.00
C495   C     0.54207   0.77088   0.05877   0.00000  Uiso   1.00
C496   C     0.53871   0.53420   0.12991   0.00000  Uiso   1.00
C497   C     0.53802   0.51048   0.08689   0.00000  Uiso   1.00
C498   C     0.50117   0.97547   0.07463   0.00000  Uiso   1.00
C499   C     0.46509   0.96399   0.10550   0.00000  Uiso   1.00
C500   C     0.46612   0.98724   0.14885   0.00000  Uiso   1.00
C501   C     0.60379   0.97475   0.23418   0.00000  Uiso   1.00
C502   C     0.62121   0.96855   0.18959   0.00000  Uiso   1.00
C503   C     0.66487   0.99312   0.17841   0.00000  Uiso   1.00
C504   C     0.35871   0.52327   0.21201   0.00000  Uiso   1.00
C505   C     0.34270   0.52847   0.25706   0.00000  Uiso   1.00
C506   C     0.47698   0.71326   0.44322   0.00000  Uiso   1.00
C507   C     0.63215   0.50424   0.26823   0.00000  Uiso   1.00
C508   C     0.59065   0.78529   0.03953   0.00000  Uiso   1.00
C509   C     0.61871   0.75337   0.01921   0.00000  Uiso   1.00
C510   C     0.66112   0.76649   0.49620   0.00000  Uiso   1.00
C511   C     0.34340   0.81147   0.49413   0.00000  Uiso   1.00
C512   C     0.64912   0.84355   0.01409   0.00000  Uiso   1.00
C513   C     0.60590   0.83067   0.03617   0.00000  Uiso   1.00
C514   C     0.46523   0.67002   0.46598   0.00000  Uiso   1.00
C515   C     0.50632   0.64611   0.48888   0.00000  Uiso   1.00
C516   C     0.49641   0.60672   0.01305   0.00000  Uiso   1.00
C517   C     0.53892   0.77355   0.10926   0.00000  Uiso   1.00
C518   C     0.44540   0.59075   0.01458   0.00000  Uiso   1.00
C519   C     0.40419   0.61424   0.49183   0.00000  Uiso   1.00
C520   C     0.41394   0.65370   0.46758   0.00000  Uiso   1.00
C521   C     0.41847   0.70080   0.11404   0.00000  Uiso   1.00
C522   C     0.36860   0.71623   0.11396   0.00000  Uiso   1.00
C523   C     0.66074   0.68666   0.12174   0.00000  Uiso   1.00
C524   C     0.33546   0.64141   0.12833   0.00000  Uiso   1.00
C525   C     0.38433   0.62550   0.12575   0.00000  Uiso   1.00
C526   C     0.42531   0.65502   0.11759   0.00000  Uiso   1.00
C527   C     0.55451   0.82125   0.38183   0.00000  Uiso   1.00
C528   C     0.47312   0.71626   0.39207   0.00000  Uiso   1.00
C529   C     0.53666   0.86452   0.37707   0.00000  Uiso   1.00
C530   C     0.56965   0.89986   0.36562   0.00000  Uiso   1.00
C531   C     0.62094   0.89248   0.36023   0.00000  Uiso   1.00
C532   C     0.63941   0.84983   0.36677   0.00000  Uiso   1.00
C533   C     0.60643   0.81438   0.37774   0.00000  Uiso   1.00
C534   C     0.45987   0.72983   0.09815   0.00000  Uiso   1.00
C535   C     0.52205   0.78509   0.39939   0.00000  Uiso   1.00
C536   C     0.45784   0.73365   0.04804   0.00000  Uiso   1.00
Cu537  Cu    0.50000   0.74999   0.29822   0.00000  Uiso   1.00
Cu538  Cu    0.50000   0.75000   0.20179   0.00000  Uiso   1.00
H539   H     0.65909   0.74814   0.19473   0.00000  Uiso   1.00
H540   H     0.56625   0.51911   0.06315   0.00000  Uiso   1.00
H541   H     0.50062   0.95721   0.04126   0.00000  Uiso   1.00
H542   H     0.43649   0.93689   0.09600   0.00000  Uiso   1.00
H543   H     0.43812   0.97762   0.17232   0.00000  Uiso   1.00
H544   H     0.59995   0.94588   0.16292   0.00000  Uiso   1.00
H545   H     0.34396   0.98908   0.14350   0.00000  Uiso   1.00
H546   H     0.39234   0.54244   0.20330   0.00000  Uiso   1.00
H547   H     0.36415   0.55145   0.28323   0.00000  Uiso   1.00
H548   H     0.62013   0.50864   0.30326   0.00000  Uiso   1.00
H549   H     0.60702   0.71838   0.02030   0.00000  Uiso   1.00
H550   H     0.34092   0.75172   0.30610   0.00000  Uiso   1.00
H551   H     0.34805   0.74181   0.47930   0.00000  Uiso   1.00
H552   H     0.37632   0.82149   0.47632   0.00000  Uiso   1.00
H553   H     0.66055   0.87848   0.01156   0.00000  Uiso   1.00
H554   H     0.58338   0.85608   0.04923   0.00000  Uiso   1.00
H555   H     0.54604   0.65815   0.48823   0.00000  Uiso   1.00
H556   H     0.52839   0.58881   0.03080   0.00000  Uiso   1.00
H557   H     0.43783   0.56039   0.03365   0.00000  Uiso   1.00
H558   H     0.36467   0.60210   0.49339   0.00000  Uiso   1.00
H559   H     0.38163   0.67209   0.45112   0.00000  Uiso   1.00
H560   H     0.36175   0.75110   0.10788   0.00000  Uiso   1.00
H561   H     0.53097   0.53042   0.33003   0.00000  Uiso   1.00
H562   H     0.62249   0.69877   0.12224   0.00000  Uiso   1.00
H563   H     0.63693   0.61857   0.13424   0.00000  Uiso   1.00
H564   H     0.39011   0.59020   0.12867   0.00000  Uiso   1.00
H565   H     0.46180   0.64223   0.11157   0.00000  Uiso   1.00
H566   H     0.49724   0.87072   0.38203   0.00000  Uiso   1.00
H567   H     0.55553   0.93299   0.36117   0.00000  Uiso   1.00
H568   H     0.64650   0.91989   0.35159   0.00000  Uiso   1.00
H569   H     0.34619   0.84428   0.36415   0.00000  Uiso   1.00
H570   H     0.62171   0.78183   0.38427   0.00000  Uiso   1.00
H571   H     0.43522   0.97114   0.27367   0.00000  Uiso   1.00
H572   H     0.49943   0.60942   0.17516   0.00000  Uiso   1.00
H573   H     0.58194   0.88652   0.23418   0.00000  Uiso   1.00
H574   H     0.42349   0.72085   0.02540   0.00000  Uiso   1.00
H575   H     0.52838   0.81770   0.46814   0.00000  Uiso   1.00
H576   H     0.56788   0.56090   0.13916   0.00000  Uiso   1.00
I577   I     0.55524   0.62470   0.36340   0.00000  Uiso   1.00
I578   I     0.38965   0.87527   0.27117   0.00000  Uiso   1.00
I579   I     0.59224   0.82060   0.15026   0.00000  Uiso   1.00
I580   I     0.41739   0.67092   0.35099   0.00000  Uiso   1.00
N581   N     0.50000   0.75001   0.12935   0.00000  Uiso   1.00
N582   N     0.50000   0.74999   0.37066   0.00000  Uiso   1.00
O583   O     0.50000   0.68573   0.29072   0.00000  Uiso   1.00
O584   O     0.50000   0.81427   0.20929   0.00000  Uiso   1.00
O585   O     0.50000   0.68573   0.20928   0.00000  Uiso   1.00
O586   O     0.50000   0.81427   0.29072   0.00000  Uiso   1.00
O587   O     0.42495   0.74999   0.28132   0.00000  Uiso   1.00
O588   O     0.57505   0.75001   0.21868   0.00000  Uiso   1.00
O589   O     0.42495   0.75000   0.19989   0.00000  Uiso   1.00
O590   O     0.57505   0.75000   0.30012   0.00000  Uiso   1.00
C591   C     0.83702   0.66509   0.25068   0.00000  Uiso   1.00
C592   C     0.84940   0.78729   0.44836   0.00000  Uiso   1.00
C593   C     0.83301   0.75148   0.02704   0.00000  Uiso   1.00
C594   C     0.83096   0.75033   0.47232   0.00000  Uiso   1.00
C595   C     0.73468   0.74970   0.23765   0.00000  Uiso   1.00
C596   C     0.93202   0.75015   0.26247   0.00000  Uiso   1.00
C597   C     0.67931   0.74929   0.23118   0.00000  Uiso   1.00
C598   C     0.98747   0.75041   0.26941   0.00000  Uiso   1.00
C599   C     0.85580   0.54784   0.29626   0.00000  Uiso   1.00
C600   C     0.80086   0.95272   0.26560   0.00000  Uiso   1.00
C601   C     0.85714   0.59407   0.29630   0.00000  Uiso   1.00
C602   C     0.83386   0.83479   0.25011   0.00000  Uiso   1.00
C603   C     0.79564   0.90663   0.26249   0.00000  Uiso   1.00
C604   C     0.84392   0.61673   0.25238   0.00000  Uiso   1.00
C605   C     0.83700   0.88290   0.25084   0.00000  Uiso   1.00
C606   C     0.83818   0.59243   0.20902   0.00000  Uiso   1.00
C607   C     0.88306   0.90526   0.24192   0.00000  Uiso   1.00
C608   C     0.83991   0.54612   0.20865   0.00000  Uiso   1.00
C609   C     0.88831   0.95165   0.24432   0.00000  Uiso   1.00
C610   C     0.84667   0.52381   0.25308   0.00000  Uiso   1.00
C611   C     0.84628   0.97533   0.25555   0.00000  Uiso   1.00
C612   C     0.83660   0.52233   0.16171   0.00000  Uiso   1.00
C613   C     0.87540   0.77088   0.05877   0.00000  Uiso   1.00
C614   C     0.87204   0.53420   0.12991   0.00000  Uiso   1.00
C615   C     0.87135   0.51048   0.08689   0.00000  Uiso   1.00
C616   C     0.83450   0.97547   0.07463   0.00000  Uiso   1.00
C617   C     0.79842   0.96399   0.10550   0.00000  Uiso   1.00
C618   C     0.79945   0.98724   0.14885   0.00000  Uiso   1.00
C619   C     0.93713   0.97475   0.23418   0.00000  Uiso   1.00
C620   C     0.95454   0.96855   0.18959   0.00000  Uiso   1.00
C621   C     0.99820   0.99312   0.17841   0.00000  Uiso   1.00
C622   C     0.69204   0.52327   0.21201   0.00000  Uiso   1.00
C623   C     0.67603   0.52847   0.25706   0.00000  Uiso   1.00
C624   C     0.81031   0.71326   0.44322   0.00000  Uiso   1.00
C625   C     0.96548   0.50424   0.26823   0.00000  Uiso   1.00
C626   C     0.92398   0.78529   0.03953   0.00000  Uiso   1.00
C627   C     0.95205   0.75337   0.01921   0.00000  Uiso   1.00
C628   C     0.99446   0.76649   0.49620   0.00000  Uiso   1.00
C629   C     0.67673   0.81147   0.49413   0.00000  Uiso   1.00
C630   C     0.98245   0.84355   0.01409   0.00000  Uiso   1.00
C631   C     0.93923   0.83067   0.03617   0.00000  Uiso   1.00
C632   C     0.79856   0.67002   0.46598   0.00000  Uiso   1.00
C633   C     0.83965   0.64611   0.48888   0.00000  Uiso   1.00
C634   C     0.82974   0.60672   0.01305   0.00000  Uiso   1.00
C635   C     0.87226   0.77355   0.10926   0.00000  Uiso   1.00
C636   C     0.77874   0.59075   0.01458   0.00000  Uiso   1.00
C637   C     0.73752   0.61424   0.49183   0.00000  Uiso   1.00
C638   C     0.74727   0.65370   0.46758   0.00000  Uiso   1.00
C639   C     0.75181   0.70080   0.11404   0.00000  Uiso   1.00
C640   C     0.70193   0.71623   0.11396   0.00000  Uiso   1.00
C641   C     0.99407   0.68666   0.12174   0.00000  Uiso   1.00
C642   C     0.66880   0.64141   0.12833   0.00000  Uiso   1.00
C643   C     0.71766   0.62550   0.12575   0.00000  Uiso   1.00
C644   C     0.75865   0.65502   0.11759   0.00000  Uiso   1.00
C645   C     0.88784   0.82125   0.38183   0.00000  Uiso   1.00
C646   C     0.80646   0.71626   0.39207   0.00000  Uiso   1.00
C647   C     0.86999   0.86452   0.37707   0.00000  Uiso   1.00
C648   C     0.90298   0.89986   0.36562   0.00000  Uiso   1.00
C649   C     0.95427   0.89248   0.36023   0.00000  Uiso   1.00
C650   C     0.97275   0.84983   0.36677   0.00000  Uiso   1.00
C651   C     0.93976   0.81438   0.37774   0.00000  Uiso   1.00
C652   C     0.79320   0.72983   0.09815   0.00000  Uiso   1.00
C653   C     0.85539   0.78509   0.39939   0.00000  Uiso   1.00
C654   C     0.79118   0.73365   0.04804   0.00000  Uiso   1.00
Cu655  Cu    0.83333   0.74999   0.29822   0.00000  Uiso   1.00
Cu656  Cu    0.83333   0.75000   0.20179   0.00000  Uiso   1.00
H657   H     0.99242   0.74814   0.19473   0.00000  Uiso   1.00
H658   H     0.89958   0.51911   0.06315   0.00000  Uiso   1.00
H659   H     0.83395   0.95721   0.04126   0.00000  Uiso   1.00
H660   H     0.76982   0.93689   0.09600   0.00000  Uiso   1.00
H661   H     0.77145   0.97762   0.17232   0.00000  Uiso   1.00
H662   H     0.93329   0.94588   0.16292   0.00000  Uiso   1.00
H663   H     0.67729   0.98908   0.14350   0.00000  Uiso   1.00
H664   H     0.72568   0.54244   0.20330   0.00000  Uiso   1.00
H665   H     0.69748   0.55145   0.28323   0.00000  Uiso   1.00
H666   H     0.95346   0.50864   0.30326   0.00000  Uiso   1.00
H667   H     0.94035   0.71838   0.02030   0.00000  Uiso   1.00
H668   H     0.67426   0.75172   0.30610   0.00000  Uiso   1.00
H669   H     0.68139   0.74181   0.47930   0.00000  Uiso   1.00
H670   H     0.70965   0.82149   0.47632   0.00000  Uiso   1.00
H671   H     0.99388   0.87848   0.01156   0.00000  Uiso   1.00
H672   H     0.91672   0.85608   0.04923   0.00000  Uiso   1.00
H673   H     0.87937   0.65815   0.48823   0.00000  Uiso   1.00
H674   H     0.86172   0.58881   0.03080   0.00000  Uiso   1.00
H675   H     0.77116   0.56039   0.03365   0.00000  Uiso   1.00
H676   H     0.69800   0.60210   0.49339   0.00000  Uiso   1.00
H677   H     0.71496   0.67209   0.45112   0.00000  Uiso   1.00
H678   H     0.69508   0.75110   0.10788   0.00000  Uiso   1.00
H679   H     0.86430   0.53042   0.33003   0.00000  Uiso   1.00
H680   H     0.95583   0.69877   0.12224   0.00000  Uiso   1.00
H681   H     0.97027   0.61857   0.13424   0.00000  Uiso   1.00
H682   H     0.72344   0.59020   0.12867   0.00000  Uiso   1.00
H683   H     0.79513   0.64223   0.11157   0.00000  Uiso   1.00
H684   H     0.83057   0.87072   0.38203   0.00000  Uiso   1.00
H685   H     0.88886   0.93299   0.36117   0.00000  Uiso   1.00
H686   H     0.97984   0.91989   0.35159   0.00000  Uiso   1.00
H687   H     0.67953   0.84428   0.36415   0.00000  Uiso   1.00
H688   H     0.95504   0.78183   0.38427   0.00000  Uiso   1.00
H689   H     0.76855   0.97114   0.27367   0.00000  Uiso   1.00
H690   H     0.83276   0.60942   0.17516   0.00000  Uiso   1.00
H691   H     0.91528   0.88652   0.23418   0.00000  Uiso   1.00
H692   H     0.75683   0.72085   0.02540   0.00000  Uiso   1.00
H693   H     0.86172   0.81770   0.46814   0.00000  Uiso   1.00
H694   H     0.90121   0.56090   0.13916   0.00000  Uiso   1.00
I695   I     0.88858   0.62470   0.36340   0.00000  Uiso   1.00
I696   I     0.72298   0.87527   0.27117   0.00000  Uiso   1.00
I697   I     0.92557   0.82060   0.15026   0.00000  Uiso   1.00
I698   I     0.75072   0.67092   0.35099   0.00000  Uiso   1.00
N699   N     0.83333   0.75001   0.12935   0.00000  Uiso   1.00
N700   N     0.83333   0.74999   0.37066   0.00000  Uiso   1.00
O701   O     0.83334   0.68573   0.29072   0.00000  Uiso   1.00
O702   O     0.83333   0.81427   0.20929   0.00000  Uiso   1.00
O703   O     0.83334   0.68573   0.20928   0.00000  Uiso   1.00
O704   O     0.83333   0.81427   0.29072   0.00000  Uiso   1.00
O705   O     0.75828   0.74999   0.28132   0.00000  Uiso   1.00
O706   O     0.90839   0.75001   0.21868   0.00000  Uiso   1.00
O707   O     0.75828   0.75000   0.19989   0.00000  Uiso   1.00
O708   O     0.90839   0.75000   0.30012   0.00000  Uiso   1.00
C709   C     0.17036   0.16509   0.75068   0.00000  Uiso   1.00
C710   C     0.18273   0.28729   0.94836   0.00000  Uiso   1.00
C711   C     0.16634   0.25148   0.52704   0.00000  Uiso   1.00
C712   C     0.16429   0.25033   0.97232   0.00000  Uiso   1.00
C713   C     0.06801   0.24970   0.73765   0.00000  Uiso   1.00
C714   C     0.26535   0.25015   0.76247   0.00000  Uiso   1.00
C715   C     0.01264   0.24929   0.73118   0.00000  Uiso   1.00
C716   C     0.32080   0.25041   0.76941   0.00000  Uiso   1.00
C717   C     0.18914   0.04784   0.79626   0.00000  Uiso   1.00
C718   C     0.13419   0.45272   0.76560   0.00000  Uiso   1.00
C719   C     0.19047   0.09407   0.79630   0.00000  Uiso   1.00
C720   C     0.16719   0.33479   0.75011   0.00000  Uiso   1.00
C721   C     0.12897   0.40663   0.76249   0.00000  Uiso   1.00
C722   C     0.17725   0.11673   0.75238   0.00000  Uiso   1.00
C723   C     0.17033   0.38290   0.75084   0.00000  Uiso   1.00
C724   C     0.17151   0.09243   0.70902   0.00000  Uiso   1.00
C725   C     0.21640   0.40526   0.74192   0.00000  Uiso   1.00
C726   C     0.17324   0.04612   0.70865   0.00000  Uiso   1.00
C727   C     0.22165   0.45165   0.74432   0.00000  Uiso   1.00
C728   C     0.18001   0.02381   0.75308   0.00000  Uiso   1.00
C729   C     0.17962   0.47533   0.75555   0.00000  Uiso   1.00
C730   C     0.16993   0.02233   0.66171   0.00000  Uiso   1.00
C731   C     0.20874   0.27088   0.55877   0.00000  Uiso   1.00
C732   C     0.20538   0.03420   0.62991   0.00000  Uiso   1.00
C733   C     0.20468   0.01048   0.58689   0.00000  Uiso   1.00
C734   C     0.16784   0.47547   0.57463   0.00000  Uiso   1.00
C735   C     0.13176   0.46399   0.60550   0.00000  Uiso   1.00
C736   C     0.13278   0.48724   0.64885   0.00000  Uiso   1.00
C737   C     0.27046   0.47475   0.73418   0.00000  Uiso   1.00
C738   C     0.28787   0.46855   0.68959   0.00000  Uiso   1.00
C739   C     0.33153   0.49312   0.67841   0.00000  Uiso   1.00
C740   C     0.02538   0.02327   0.71201   0.00000  Uiso   1.00
C741   C     0.00936   0.02847   0.75706   0.00000  Uiso   1.00
C742   C     0.14365   0.21326   0.94322   0.00000  Uiso   1.00
C743   C     0.29881   0.00424   0.76823   0.00000  Uiso   1.00
C744   C     0.25732   0.28529   0.53953   0.00000  Uiso   1.00
C745   C     0.28538   0.25337   0.51921   0.00000  Uiso   1.00
C746   C     0.32779   0.26649   0.99620   0.00000  Uiso   1.00
C747   C     0.01007   0.31147   0.99413   0.00000  Uiso   1.00
C748   C     0.31579   0.34355   0.51409   0.00000  Uiso   1.00
C749   C     0.27257   0.33067   0.53617   0.00000  Uiso   1.00
C750   C     0.13189   0.17002   0.96598   0.00000  Uiso   1.00
C751   C     0.17298   0.14611   0.98888   0.00000  Uiso   1.00
C752   C     0.16308   0.10672   0.51305   0.00000  Uiso   1.00
C753   C     0.20559   0.27355   0.60926   0.00000  Uiso   1.00
C754   C     0.11207   0.09075   0.51458   0.00000  Uiso   1.00
C755   C     0.07085   0.11424   0.99183   0.00000  Uiso   1.00
C756   C     0.08061   0.15370   0.96758   0.00000  Uiso   1.00
C757   C     0.08514   0.20080   0.61404   0.00000  Uiso   1.00
C758   C     0.03527   0.21623   0.61396   0.00000  Uiso   1.00
C759   C     0.32740   0.18666   0.62174   0.00000  Uiso   1.00
C760   C     0.00213   0.14141   0.62833   0.00000  Uiso   1.00
C761   C     0.05099   0.12550   0.62575   0.00000  Uiso   1.00
C762   C     0.09198   0.15502   0.61759   0.00000  Uiso   1.00
C763   C     0.22118   0.32125   0.88183   0.00000  Uiso   1.00
C764   C     0.13979   0.21626   0.89207   0.00000  Uiso   1.00
C765   C     0.20333   0.36452   0.87707   0.00000  Uiso   1.00
C766   C     0.23631   0.39986   0.86562   0.00000  Uiso   1.00
C767   C     0.28760   0.39248   0.86023   0.00000  Uiso   1.00
C768   C     0.30608   0.34983   0.86677   0.00000  Uiso   1.00
C769   C     0.27310   0.31438   0.87774   0.00000  Uiso   1.00
C770   C     0.12654   0.22983   0.59815   0.00000  Uiso   1.00
C771   C     0.18872   0.28509   0.89939   0.00000  Uiso   1.00
C772   C     0.12451   0.23365   0.54804   0.00000  Uiso   1.00
Cu773  Cu    0.16667   0.24999   0.79822   0.00000  Uiso   1.00
Cu774  Cu    0.16667   0.25000   0.70179   0.00000  Uiso   1.00
H775   H     0.32576   0.24814   0.69473   0.00000  Uiso   1.00
H776   H     0.23291   0.01911   0.56315   0.00000  Uiso   1.00
H777   H     0.16728   0.45721   0.54126   0.00000  Uiso   1.00
H778   H     0.10315   0.43689   0.59600   0.00000  Uiso   1.00
H779   H     0.10479   0.47762   0.67232   0.00000  Uiso   1.00
H780   H     0.26662   0.44588   0.66292   0.00000  Uiso   1.00
H781   H     0.01063   0.48908   0.64350   0.00000  Uiso   1.00
H782   H     0.05901   0.04244   0.70330   0.00000  Uiso   1.00
H783   H     0.03082   0.05145   0.78323   0.00000  Uiso   1.00
H784   H     0.28679   0.00864   0.80326   0.00000  Uiso   1.00
H785   H     0.27368   0.21838   0.52030   0.00000  Uiso   1.00
H786   H     0.00759   0.25172   0.80610   0.00000  Uiso   1.00
H787   H     0.01472   0.24181   0.97930   0.00000  Uiso   1.00
H788   H     0.04298   0.32149   0.97632   0.00000  Uiso   1.00
H789   H     0.32721   0.37848   0.51156   0.00000  Uiso   1.00
H790   H     0.25005   0.35608   0.54923   0.00000  Uiso   1.00
H791   H     0.21270   0.15815   0.98823   0.00000  Uiso   1.00
H792   H     0.19506   0.08881   0.53080   0.00000  Uiso   1.00
H793   H     0.10450   0.06039   0.53365   0.00000  Uiso   1.00
H794   H     0.03133   0.10210   0.99339   0.00000  Uiso   1.00
H795   H     0.04829   0.17209   0.95112   0.00000  Uiso   1.00
H796   H     0.02841   0.25110   0.60788   0.00000  Uiso   1.00
H797   H     0.19763   0.03042   0.83003   0.00000  Uiso   1.00
H798   H     0.28916   0.19877   0.62224   0.00000  Uiso   1.00
H799   H     0.30360   0.11857   0.63424   0.00000  Uiso   1.00
H800   H     0.05678   0.09020   0.62867   0.00000  Uiso   1.00
H801   H     0.12847   0.14223   0.61157   0.00000  Uiso   1.00
H802   H     0.16391   0.37072   0.88203   0.00000  Uiso   1.00
H803   H     0.22220   0.43299   0.86117   0.00000  Uiso   1.00
H804   H     0.31317   0.41989   0.85159   0.00000  Uiso   1.00
H805   H     0.01286   0.34428   0.86415   0.00000  Uiso   1.00
H806   H     0.28838   0.28183   0.88427   0.00000  Uiso   1.00
H807   H     0.10189   0.47114   0.77367   0.00000  Uiso   1.00
H808   H     0.16609   0.10942   0.67516   0.00000  Uiso   1.00
H809   H     0.24861   0.38652   0.73418   0.00000  Uiso   1.00
H810   H     0.09016   0.22085   0.52540   0.00000  Uiso   1.00
H811   H     0.19505   0.31770   0.96814   0.00000  Uiso   1.00
H812   H     0.23455   0.06090   0.63916   0.00000  Uiso   1.00
I813   I     0.22191   0.12470   0.86340   0.00000  Uiso   1.00
I814   I     0.05631   0.37527   0.77117   0.00000  Uiso   1.00
I815   I     0.25890   0.32060   0.65026   0.00000  Uiso   1.00
I816   I     0.08405   0.17092   0.85099   0.00000  Uiso   1.00
N817   N     0.16667   0.25001   0.62935   0.00000  Uiso   1.00
N818   N     0.16667   0.24999   0.87066   0.00000  Uiso   1.00
O819   O     0.16667   0.18573   0.79072   0.00000  Uiso   1.00
O820   O     0.16666   0.31427   0.70929   0.00000  Uiso   1.00
O821   O     0.16667   0.18573   0.70928   0.00000  Uiso   1.00
O822   O     0.16666   0.31427   0.79072   0.00000  Uiso   1.00
O823   O     0.09161   0.24999   0.78132   0.00000  Uiso   1.00
O824   O     0.24172   0.25001   0.71868   0.00000  Uiso   1.00
O825   O     0.09161   0.25000   0.69989   0.00000  Uiso   1.00
O826   O     0.24172   0.25000   0.80012   0.00000  Uiso   1.00
C827   C     0.50369   0.16509   0.75068   0.00000  Uiso   1.00
C828   C     0.51607   0.28729   0.94836   0.00000  Uiso   1.00
C829   C     0.49968   0.25148   0.52704   0.00000  Uiso   1.00
C830   C     0.49763   0.25033   0.97232   0.00000  Uiso   1.00
C831   C     0.40135   0.24970   0.73765   0.00000  Uiso   1.00
C832   C     0.59869   0.25015   0.76247   0.00000  Uiso   1.00
C833   C     0.34597   0.24929   0.73118   0.00000  Uiso   1.00
C834   C     0.65414   0.25041   0.76941   0.00000  Uiso   1.00
C835   C     0.52247   0.04784   0.79626   0.00000  Uiso   1.00
C836   C     0.46753   0.45272   0.76560   0.00000  Uiso   1.00
C837   C     0.52380   0.09407   0.79630   0.00000  Uiso   1.00
C838   C     0.50052   0.33479   0.75011   0.00000  Uiso   1.00
C839   C     0.46230   0.40663   0.76249   0.00000  Uiso   1.00
C840   C     0.51058   0.11673   0.75238   0.00000  Uiso   1.00
C841   C     0.50367   0.38290   0.75084   0.00000  Uiso   1.00
C842   C     0.50484   0.09243   0.70902   0.00000  Uiso   1.00
C843   C     0.54973   0.40526   0.74192   0.00000  Uiso   1.00
C844   C     0.50658   0.04612   0.70865   0.00000  Uiso   1.00
C845   C     0.55498   0.45165   0.74432   0.00000  Uiso   1.00
C846   C     0.51334   0.02381   0.75308   0.00000  Uiso   1.00
C847   C     0.51295   0.47533   0.75555   0.00000  Uiso   1.00
C848   C     0.50327   0.02233   0.66171   0.00000  Uiso   1.00
C849   C     0.54207   0.27088   0.55877   0.00000  Uiso   1.00
C850   C     0.53871   0.03420   0.62991   0.00000  Uiso   1.00
C851   C     0.53802   0.01048   0.58689   0.00000  Uiso   1.00
C852   C     0.50117   0.47547   0.57463   0.00000  Uiso   1.00
C853   C     0.46509   0.46399   0.60550   0.00000  Uiso   1.00
C854   C     0.46612   0.48724   0.64885   0.00000  Uiso   1.00
C855   C     0.60379   0.47475   0.73418   0.00000  Uiso   1.00
C856   C     0.62121   0.46855   0.68959   0.00000  Uiso   1.00
C857   C     0.66487   0.49312   0.67841   0.00000  Uiso   1.00
C858   C     0.35871   0.02327   0.71201   0.00000  Uiso   1.00
C859   C     0.34270   0.02847   0.75706   0.00000  Uiso   1.00
C860   C     0.47698   0.21326   0.94322   0.00000  Uiso   1.00
C861   C     0.63215   0.00424   0.76823   0.00000  Uiso   1.00
C862   C     0.59065   0.28529   0.53953   0.00000  Uiso   1.00
C863   C     0.61871   0.25337   0.51921   0.00000  Uiso   1.00
C864   C     0.66112   0.26649   0.99620   0.00000  Uiso   1.00
C865   C     0.34340   0.31147   0.99413   0.00000  Uiso   1.00
C866   C     0.64912   0.34355   0.51409   0.00000  Uiso   1.00
C867   C     0.60590   0.33067   0.53617   0.00000  Uiso   1.00
C868   C     0.46523   0.17002   0.96598   0.00000  Uiso   1.00
C869   C     0.50632   0.14611   0.98888   0.00000  Uiso   1.00
C870   C     0.49641   0.10672   0.51305   0.00000  Uiso   1.00
C871   C     0.53892   0.27355   0.60926   0.00000  Uiso   1.00
C872   C     0.44540   0.09075   0.51458   0.00000  Uiso   1.00
C873   C     0.40419   0.11424   0.99183   0.00000  Uiso   1.00
C874   C     0.41394   0.15370   0.96758   0.00000  Uiso   1.00
C875   C     0.41847   0.20080   0.61404   0.00000  Uiso   1.00
C876   C     0.36860   0.21623   0.61396   0.00000  Uiso   1.00
C877   C     0.66074   0.18666   0.62174   0.00000  Uiso   1.00
C878   C     0.33546   0.14141   0.62833   0.00000  Uiso   1.00
C879   C     0.38433   0.12550   0.62575   0.00000  Uiso   1.00
C880   C     0.42531   0.15502   0.61759   0.00000  Uiso   1.00
C881   C     0.55451   0.32125   0.88183   0.00000  Uiso   1.00
C882   C     0.47312   0.21626   0.89207   0.00000  Uiso   1.00
C883   C     0.53666   0.36452   0.87707   0.00000  Uiso   1.00
C884   C     0.56965   0.39986   0.86562   0.00000  Uiso   1.00
C885   C     0.62094   0.39248   0.86023   0.00000  Uiso   1.00
C886   C     0.63941   0.34983   0.86677   0.00000  Uiso   1.00
C887   C     0.60643   0.31438   0.87774   0.00000  Uiso   1.00
C888   C     0.45987   0.22983   0.59815   0.00000  Uiso   1.00
C889   C     0.52205   0.28509   0.89939   0.00000  Uiso   1.00
C890   C     0.45784   0.23365   0.54804   0.00000  Uiso   1.00
Cu891  Cu    0.50000   0.24999   0.79822   0.00000  Uiso   1.00
Cu892  Cu    0.50000   0.25000   0.70179   0.00000  Uiso   1.00
H893   H     0.65909   0.24814   0.69473   0.00000  Uiso   1.00
H894   H     0.56625   0.01911   0.56315   0.00000  Uiso   1.00
H895   H     0.50062   0.45721   0.54126   0.00000  Uiso   1.00
H896   H     0.43649   0.43689   0.59600   0.00000  Uiso   1.00
H897   H     0.43812   0.47762   0.67232   0.00000  Uiso   1.00
H898   H     0.59995   0.44588   0.66292   0.00000  Uiso   1.00
H899   H     0.34396   0.48908   0.64350   0.00000  Uiso   1.00
H900   H     0.39234   0.04244   0.70330   0.00000  Uiso   1.00
H901   H     0.36415   0.05145   0.78323   0.00000  Uiso   1.00
H902   H     0.62013   0.00864   0.80326   0.00000  Uiso   1.00
H903   H     0.60702   0.21838   0.52030   0.00000  Uiso   1.00
H904   H     0.34092   0.25172   0.80610   0.00000  Uiso   1.00
H905   H     0.34805   0.24181   0.97930   0.00000  Uiso   1.00
H906   H     0.37632   0.32149   0.97632   0.00000  Uiso   1.00
H907   H     0.66055   0.37848   0.51156   0.00000  Uiso   1.00
H908   H     0.58338   0.35608   0.54923   0.00000  Uiso   1.00
H909   H     0.54604   0.15815   0.98823   0.00000  Uiso   1.00
H910   H     0.52839   0.08881   0.53080   0.00000  Uiso   1.00
H911   H     0.43783   0.06039   0.53365   0.00000  Uiso   1.00
H912   H     0.36467   0.10210   0.99339   0.00000  Uiso   1.00
H913   H     0.38163   0.17209   0.95112   0.00000  Uiso   1.00
H914   H     0.36175   0.25110   0.60788   0.00000  Uiso   1.00
H915   H     0.53097   0.03042   0.83003   0.00000  Uiso   1.00
H916   H     0.62249   0.19877   0.62224   0.00000  Uiso   1.00
H917   H     0.63693   0.11857   0.63424   0.00000  Uiso   1.00
H918   H     0.39011   0.09020   0.62867   0.00000  Uiso   1.00
H919   H     0.46180   0.14223   0.61157   0.00000  Uiso   1.00
H920   H     0.49724   0.37072   0.88203   0.00000  Uiso   1.00
H921   H     0.55553   0.43299   0.86117   0.00000  Uiso   1.00
H922   H     0.64650   0.41989   0.85159   0.00000  Uiso   1.00
H923   H     0.34619   0.34428   0.86415   0.00000  Uiso   1.00
H924   H     0.62171   0.28183   0.88427   0.00000  Uiso   1.00
H925   H     0.43522   0.47114   0.77367   0.00000  Uiso   1.00
H926   H     0.49943   0.10942   0.67516   0.00000  Uiso   1.00
H927   H     0.58194   0.38652   0.73418   0.00000  Uiso   1.00
H928   H     0.42349   0.22085   0.52540   0.00000  Uiso   1.00
H929   H     0.52838   0.31770   0.96814   0.00000  Uiso   1.00
H930   H     0.56788   0.06090   0.63916   0.00000  Uiso   1.00
I931   I     0.55524   0.12470   0.86340   0.00000  Uiso   1.00
I932   I     0.38965   0.37527   0.77117   0.00000  Uiso   1.00
I933   I     0.59224   0.32060   0.65026   0.00000  Uiso   1.00
I934   I     0.41739   0.17092   0.85099   0.00000  Uiso   1.00
N935   N     0.50000   0.25001   0.62935   0.00000  Uiso   1.00
N936   N     0.50000   0.24999   0.87066   0.00000  Uiso   1.00
O937   O     0.50000   0.18573   0.79072   0.00000  Uiso   1.00
O938   O     0.50000   0.31427   0.70929   0.00000  Uiso   1.00
O939   O     0.50000   0.18573   0.70928   0.00000  Uiso   1.00
O940   O     0.50000   0.31427   0.79072   0.00000  Uiso   1.00
O941   O     0.42495   0.24999   0.78132   0.00000  Uiso   1.00
O942   O     0.57505   0.25001   0.71868   0.00000  Uiso   1.00
O943   O     0.42495   0.25000   0.69989   0.00000  Uiso   1.00
O944   O     0.57505   0.25000   0.80012   0.00000  Uiso   1.00
C945   C     0.83702   0.16509   0.75068   0.00000  Uiso   1.00
C946   C     0.84940   0.28729   0.94836   0.00000  Uiso   1.00
C947   C     0.83301   0.25148   0.52704   0.00000  Uiso   1.00
C948   C     0.83096   0.25033   0.97232   0.00000  Uiso   1.00
C949   C     0.73468   0.24970   0.73765   0.00000  Uiso   1.00
C950   C     0.93202   0.25015   0.76247   0.00000  Uiso   1.00
C951   C     0.67931   0.24929   0.73118   0.00000  Uiso   1.00
C952   C     0.98747   0.25041   0.76941   0.00000  Uiso   1.00
C953   C     0.85580   0.04784   0.79626   0.00000  Uiso   1.00
C954   C     0.80086   0.45272   0.76560   0.00000  Uiso   1.00
C955   C     0.85714   0.09407   0.79630   0.00000  Uiso   1.00
C956   C     0.83386   0.33479   0.75011   0.00000  Uiso   1.00
C957   C     0.79564   0.40663   0.76249   0.00000  Uiso   1.00
C958   C     0.84392   0.11673   0.75238   0.00000  Uiso   1.00
C959   C     0.83700   0.38290   0.75084   0.00000  Uiso   1.00
C960   C     0.83818   0.09243   0.70902   0.00000  Uiso   1.00
C961   C     0.88306   0.40526   0.74192   0.00000  Uiso   1.00
C962   C     0.83991   0.04612   0.70865   0.00000  Uiso   1.00
C963   C     0.88831   0.45165   0.74432   0.00000  Uiso   1.00
C964   C     0.84667   0.02381   0.75308   0.00000  Uiso   1.00
C965   C     0.84628   0.47533   0.75555   0.00000  Uiso   1.00
C966   C     0.83660   0.02233   0.66171   0.00000  Uiso   1.00
C967   C     0.87540   0.27088   0.55877   0.00000  Uiso   1.00
C968   C     0.87204   0.03420   0.62991   0.00000  Uiso   1.00
C969   C     0.87135   0.01048   0.58689   0.00000  Uiso   1.00
C970   C     0.83450   0.47547   0.57463   0.00000  Uiso   1.00
C971   C     0.79842   0.46399   0.60550   0.00000  Uiso   1.00
C972   C     0.79945   0.48724   0.64885   0.00000  Uiso   1.00
C973   C     0.93713   0.47475   0.73418   0.00000  Uiso   1.00
C974   C     0.95454   0.46855   0.68959   0.00000  Uiso   1.00
C975   C     0.99820   0.49312   0.67841   0.00000  Uiso   1.00
C976   C     0.69204   0.02327   0.71201   0.00000  Uiso   1.00
C977   C     0.67603   0.02847   0.75706   0.00000  Uiso   1.00
C978   C     0.81031   0.21326   0.94322   0.00000  Uiso   1.00
C979   C     0.96548   0.00424   0.76823   0.00000  Uiso   1.00
C980   C     0.92398   0.28529   0.53953   0.00000  Uiso   1.00
C981   C     0.95205   0.25337   0.51921   0.00000  Uiso   1.00
C982   C     0.99446   0.26649   0.99620   0.00000  Uiso   1.00
C983   C     0.67673   0.31147   0.99413   0.00000  Uiso   1.00
C984   C     0.98245   0.34355   0.51409   0.00000  Uiso   1.00
C985   C     0.93923   0.33067   0.53617   0.00000  Uiso   1.00
C986   C     0.79856   0.17002   0.96598   0.00000  Uiso   1.00
C987   C     0.83965   0.14611   0.98888   0.00000  Uiso   1.00
C988   C     0.82974   0.10672   0.51305   0.00000  Uiso   1.00
C989   C     0.87226   0.27355   0.60926   0.00000  Uiso   1.00
C990   C     0.77874   0.09075   0.51458   0.00000  Uiso   1.00
C991   C     0.73752   0.11424   0.99183   0.00000  Uiso   1.00
C992   C     0.74727   0.15370   0.96758   0.00000  Uiso   1.00
C993   C     0.75181   0.20080   0.61404   0.00000  Uiso   1.00
C994   C     0.70193   0.21623   0.61396   0.00000  Uiso   1.00
C995   C     0.99407   0.18666   0.62174   0.00000  Uiso   1.00
C996   C     0.66880   0.14141   0.62833   0.00000  Uiso   1.00
C997   C     0.71766   0.12550   0.62575   0.00000  Uiso   1.00
C998   C     0.75865   0.15502   0.61759   0.00000  Uiso   1.00
C999   C     0.88784   0.32125   0.88183   0.00000  Uiso   1.00
C1000  C     0.80646   0.21626   0.89207   0.00000  Uiso   1.00
C1001  C     0.86999   0.36452   0.87707   0.00000  Uiso   1.00
C1002  C     0.90298   0.39986   0.86562   0.00000  Uiso   1.00
C1003  C     0.95427   0.39248   0.86023   0.00000  Uiso   1.00
C1004  C     0.97275   0.34983   0.86677   0.00000  Uiso   1.00
C1005  C     0.93976   0.31438   0.87774   0.00000  Uiso   1.00
C1006  C     0.79320   0.22983   0.59815   0.00000  Uiso   1.00
C1007  C     0.85539   0.28509   0.89939   0.00000  Uiso   1.00
C1008  C     0.79118   0.23365   0.54804   0.00000  Uiso   1.00
Cu1009 Cu    0.83333   0.24999   0.79822   0.00000  Uiso   1.00
Cu1010 Cu    0.83333   0.25000   0.70179   0.00000  Uiso   1.00
H1011  H     0.99242   0.24814   0.69473   0.00000  Uiso   1.00
H1012  H     0.89958   0.01911   0.56315   0.00000  Uiso   1.00
H1013  H     0.83395   0.45721   0.54126   0.00000  Uiso   1.00
H1014  H     0.76982   0.43689   0.59600   0.00000  Uiso   1.00
H1015  H     0.77145   0.47762   0.67232   0.00000  Uiso   1.00
H1016  H     0.93329   0.44588   0.66292   0.00000  Uiso   1.00
H1017  H     0.67729   0.48908   0.64350   0.00000  Uiso   1.00
H1018  H     0.72568   0.04244   0.70330   0.00000  Uiso   1.00
H1019  H     0.69748   0.05145   0.78323   0.00000  Uiso   1.00
H1020  H     0.95346   0.00864   0.80326   0.00000  Uiso   1.00
H1021  H     0.94035   0.21838   0.52030   0.00000  Uiso   1.00
H1022  H     0.67426   0.25172   0.80610   0.00000  Uiso   1.00
H1023  H     0.68139   0.24181   0.97930   0.00000  Uiso   1.00
H1024  H     0.70965   0.32149   0.97632   0.00000  Uiso   1.00
H1025  H     0.99388   0.37848   0.51156   0.00000  Uiso   1.00
H1026  H     0.91672   0.35608   0.54923   0.00000  Uiso   1.00
H1027  H     0.87937   0.15815   0.98823   0.00000  Uiso   1.00
H1028  H     0.86172   0.08881   0.53080   0.00000  Uiso   1.00
H1029  H     0.77116   0.06039   0.53365   0.00000  Uiso   1.00
H1030  H     0.69800   0.10210   0.99339   0.00000  Uiso   1.00
H1031  H     0.71496   0.17209   0.95112   0.00000  Uiso   1.00
H1032  H     0.69508   0.25110   0.60788   0.00000  Uiso   1.00
H1033  H     0.86430   0.03042   0.83003   0.00000  Uiso   1.00
H1034  H     0.95583   0.19877   0.62224   0.00000  Uiso   1.00
H1035  H     0.97027   0.11857   0.63424   0.00000  Uiso   1.00
H1036  H     0.72344   0.09020   0.62867   0.00000  Uiso   1.00
H1037  H     0.79513   0.14223   0.61157   0.00000  Uiso   1.00
H1038  H     0.83057   0.37072   0.88203   0.00000  Uiso   1.00
H1039  H     0.88886   0.43299   0.86117   0.00000  Uiso   1.00
H1040  H     0.97984   0.41989   0.85159   0.00000  Uiso   1.00
H1041  H     0.67953   0.34428   0.86415   0.00000  Uiso   1.00
H1042  H     0.95504   0.28183   0.88427   0.00000  Uiso   1.00
H1043  H     0.76855   0.47114   0.77367   0.00000  Uiso   1.00
H1044  H     0.83276   0.10942   0.67516   0.00000  Uiso   1.00
H1045  H     0.91528   0.38652   0.73418   0.00000  Uiso   1.00
H1046  H     0.75683   0.22085   0.52540   0.00000  Uiso   1.00
H1047  H     0.86172   0.31770   0.96814   0.00000  Uiso   1.00
H1048  H     0.90121   0.06090   0.63916   0.00000  Uiso   1.00
I1049  I     0.88858   0.12470   0.86340   0.00000  Uiso   1.00
I1050  I     0.72298   0.37527   0.77117   0.00000  Uiso   1.00
I1051  I     0.92557   0.32060   0.65026   0.00000  Uiso   1.00
I1052  I     0.75072   0.17092   0.85099   0.00000  Uiso   1.00
N1053  N     0.83333   0.25001   0.62935   0.00000  Uiso   1.00
N1054  N     0.83333   0.24999   0.87066   0.00000  Uiso   1.00
O1055  O     0.83334   0.18573   0.79072   0.00000  Uiso   1.00
O1056  O     0.83333   0.31427   0.70929   0.00000  Uiso   1.00
O1057  O     0.83334   0.18573   0.70928   0.00000  Uiso   1.00
O1058  O     0.83333   0.31427   0.79072   0.00000  Uiso   1.00
O1059  O     0.75828   0.24999   0.78132   0.00000  Uiso   1.00
O1060  O     0.90839   0.25001   0.71868   0.00000  Uiso   1.00
O1061  O     0.75828   0.25000   0.69989   0.00000  Uiso   1.00
O1062  O     0.90839   0.25000   0.80012   0.00000  Uiso   1.00
C1063  C     0.17036   0.66509   0.75068   0.00000  Uiso   1.00
C1064  C     0.18273   0.78729   0.94836   0.00000  Uiso   1.00
C1065  C     0.16634   0.75148   0.52704   0.00000  Uiso   1.00
C1066  C     0.16429   0.75033   0.97232   0.00000  Uiso   1.00
C1067  C     0.06801   0.74970   0.73765   0.00000  Uiso   1.00
C1068  C     0.26535   0.75015   0.76247   0.00000  Uiso   1.00
C1069  C     0.01264   0.74929   0.73118   0.00000  Uiso   1.00
C1070  C     0.32080   0.75041   0.76941   0.00000  Uiso   1.00
C1071  C     0.18914   0.54784   0.79626   0.00000  Uiso   1.00
C1072  C     0.13419   0.95272   0.76560   0.00000  Uiso   1.00
C1073  C     0.19047   0.59407   0.79630   0.00000  Uiso   1.00
C1074  C     0.16719   0.83479   0.75011   0.00000  Uiso   1.00
C1075  C     0.12897   0.90663   0.76249   0.00000  Uiso   1.00
C1076  C     0.17725   0.61673   0.75238   0.00000  Uiso   1.00
C1077  C     0.17033   0.88290   0.75084   0.00000  Uiso   1.00
C1078  C     0.17151   0.59243   0.70902   0.00000  Uiso   1.00
C1079  C     0.21640   0.90526   0.74192   0.00000  Uiso   1.00
C1080  C     0.17324   0.54612   0.70865   0.00000  Uiso   1.00
C1081  C     0.22165   0.95165   0.74432   0.00000  Uiso   1.00
C1082  C     0.18001   0.52381   0.75308   0.00000  Uiso   1.00
C1083  C     0.17962   0.97533   0.75555   0.00000  Uiso   1.00
C1084  C     0.16993   0.52233   0.66171   0.00000  Uiso   1.00
C1085  C     0.20874   0.77088   0.55877   0.00000  Uiso   1.00
C1086  C     0.20538   0.53420   0.62991   0.00000  Uiso   1.00
C1087  C     0.20468   0.51048   0.58689   0.00000  Uiso   1.00
C1088  C     0.16784   0.97547   0.57463   0.00000  Uiso   1.00
C1089  C     0.13176   0.96399   0.60550   0.00000  Uiso   1.00
C1090  C     0.13278   0.98724   0.64885   0.00000  Uiso   1.00
C1091  C     0.27046   0.97475   0.73418   0.00000  Uiso   1.00
C1092  C     0.28787   0.96855   0.68959   0.00000  Uiso   1.00
C1093  C     0.33153   0.99312   0.67841   0.00000  Uiso   1.00
C1094  C     0.02538   0.52327   0.71201   0.00000  Uiso   1.00
C1095  C     0.00936   0.52847   0.75706   0.00000  Uiso   1.00
C1096  C     0.14365   0.71326   0.94322   0.00000  Uiso   1.00
C1097  C     0.29881   0.50424   0.76823   0.00000  Uiso   1.00
C1098  C     0.25732   0.78529   0.53953   0.00000  Uiso   1.00
C1099  C     0.28538   0.75337   0.51921   0.00000  Uiso   1.00
C1100  C     0.32779   0.76649   0.99620   0.00000  Uiso   1.00
C1101  C     0.01007   0.81147   0.99413   0.00000  Uiso   1.00
C1102  C     0.31579   0.84355   0.51409   0.00000  Uiso   1.00
C1103  C     0.27257   0.83067   0.53617   0.00000  Uiso   1.00
C1104  C     0.13189   0.67002   0.96598   0.00000  Uiso   1.00
C1105  C     0.17298   0.64611   0.98888   0.00000  Uiso   1.00
C1106  C     0.16308   0.60672   0.51305   0.00000  Uiso   1.00
C1107  C     0.20559   0.77355   0.60926   0.00000  Uiso   1.00
C1108  C     0.11207   0.59075   0.51458   0.00000  Uiso   1.00
C1109  C     0.07085   0.61424   0.99183   0.00000  Uiso   1.00
C1110  C     0.08061   0.65370   0.96758   0.00000  Uiso   1.00
C1111  C     0.08514   0.70080   0.61404   0.00000  Uiso   1.00
C1112  C     0.03527   0.71623   0.61396   0.00000  Uiso   1.00
C1113  C     0.32740   0.68666   0.62174   0.00000  Uiso   1.00
C1114  C     0.00213   0.64141   0.62833   0.00000  Uiso   1.00
C1115  C     0.05099   0.62550   0.62575   0.00000  Uiso   1.00
C1116  C     0.09198   0.65502   0.61759   0.00000  Uiso   1.00
C1117  C     0.22118   0.82125   0.88183   0.00000  Uiso   1.00
C1118  C     0.13979   0.71626   0.89207   0.00000  Uiso   1.00
C1119  C     0.20333   0.86452   0.87707   0.00000  Uiso   1.00
C1120  C     0.23631   0.89986   0.86562   0.00000  Uiso   1.00
C1121  C     0.28760   0.89248   0.86023   0.00000  Uiso   1.00
C1122  C     0.30608   0.84983   0.86677   0.00000  Uiso   1.00
C1123  C     0.27310   0.81438   0.87774   0.00000  Uiso   1.00
C1124  C     0.12654   0.72983   0.59815   0.00000  Uiso   1.00
C1125  C     0.18872   0.78509   0.89939   0.00000  Uiso   1.00
C1126  C     0.12451   0.73365   0.54804   0.00000  Uiso   1.00
Cu1127 Cu    0.16667   0.74999   0.79822   0.00000  Uiso   1.00
Cu1128 Cu    0.16667   0.75000   0.70179   0.00000  Uiso   1.00
H1129  H     0.32576   0.74814   0.69473   0.00000  Uiso   1.00
H1130  H     0.23291   0.51911   0.56315   0.00000  Uiso   1.00
H1131  H     0.16728   0.95721   0.54126   0.00000  Uiso   1.00
H1132  H     0.10315   0.93689   0.59600   0.00000  Uiso   1.00
H1133  H     0.10479   0.97762   0.67232   0.00000  Uiso   1.00
H1134  H     0.26662   0.94588   0.66292   0.00000  Uiso   1.00
H1135  H     0.01063   0.98908   0.64350   0.00000  Uiso   1.00
H1136  H     0.05901   0.54244   0.70330   0.00000  Uiso   1.00
H1137  H     0.03082   0.55145   0.78323   0.00000  Uiso   1.00
H1138  H     0.28679   0.50864   0.80326   0.00000  Uiso   1.00
H1139  H     0.27368   0.71838   0.52030   0.00000  Uiso   1.00
H1140  H     0.00759   0.75172   0.80610   0.00000  Uiso   1.00
H1141  H     0.01472   0.74181   0.97930   0.00000  Uiso   1.00
H1142  H     0.04298   0.82149   0.97632   0.00000  Uiso   1.00
H1143  H     0.32721   0.87848   0.51156   0.00000  Uiso   1.00
H1144  H     0.25005   0.85608   0.54923   0.00000  Uiso   1.00
H1145  H     0.21270   0.65815   0.98823   0.00000  Uiso   1.00
H1146  H     0.19506   0.58881   0.53080   0.00000  Uiso   1.00
H1147  H     0.10450   0.56039   0.53365   0.00000  Uiso   1.00
H1148  H     0.03133   0.60210   0.99339   0.00000  Uiso   1.00
H1149  H     0.04829   0.67209   0.95112   0.00000  Uiso   1.00
H1150  H     0.02841   0.75110   0.60788   0.00000  Uiso   1.00
H1151  H     0.19763   0.53042   0.83003   0.00000  Uiso   1.00
H1152  H     0.28916   0.69877   0.62224   0.00000  Uiso   1.00
H1153  H     0.30360   0.61857   0.63424   0.00000  Uiso   1.00
H1154  H     0.05678   0.59020   0.62867   0.00000  Uiso   1.00
H1155  H     0.12847   0.64223   0.61157   0.00000  Uiso   1.00
H1156  H     0.16391   0.87072   0.88203   0.00000  Uiso   1.00
H1157  H     0.22220   0.93299   0.86117   0.00000  Uiso   1.00
H1158  H     0.31317   0.91989   0.85159   0.00000  Uiso   1.00
H1159  H     0.01286   0.84428   0.86415   0.00000  Uiso   1.00
H1160  H     0.28838   0.78183   0.88427   0.00000  Uiso   1.00
H1161  H     0.10189   0.97114   0.77367   0.00000  Uiso   1.00
H1162  H     0.16609   0.60942   0.67516   0.00000  Uiso   1.00
H1163  H     0.24861   0.88652   0.73418   0.00000  Uiso   1.00
H1164  H     0.09016   0.72085   0.52540   0.00000  Uiso   1.00
H1165  H     0.19505   0.81770   0.96814   0.00000  Uiso   1.00
H1166  H     0.23455   0.56090   0.63916   0.00000  Uiso   1.00
I1167  I     0.22191   0.62470   0.86340   0.00000  Uiso   1.00
I1168  I     0.05631   0.87527   0.77117   0.00000  Uiso   1.00
I1169  I     0.25890   0.82060   0.65026   0.00000  Uiso   1.00
I1170  I     0.08405   0.67092   0.85099   0.00000  Uiso   1.00
N1171  N     0.16667   0.75001   0.62935   0.00000  Uiso   1.00
N1172  N     0.16667   0.74999   0.87066   0.00000  Uiso   1.00
O1173  O     0.16667   0.68573   0.79072   0.00000  Uiso   1.00
O1174  O     0.16666   0.81427   0.70929   0.00000  Uiso   1.00
O1175  O     0.16667   0.68573   0.70928   0.00000  Uiso   1.00
O1176  O     0.16666   0.81427   0.79072   0.00000  Uiso   1.00
O1177  O     0.09161   0.74999   0.78132   0.00000  Uiso   1.00
O1178  O     0.24172   0.75001   0.71868   0.00000  Uiso   1.00
O1179  O     0.09161   0.75000   0.69989   0.00000  Uiso   1.00
O1180  O     0.24172   0.75000   0.80012   0.00000  Uiso   1.00
C1181  C     0.50369   0.66509   0.75068   0.00000  Uiso   1.00
C1182  C     0.51607   0.78729   0.94836   0.00000  Uiso   1.00
C1183  C     0.49968   0.75148   0.52704   0.00000  Uiso   1.00
C1184  C     0.49763   0.75033   0.97232   0.00000  Uiso   1.00
C1185  C     0.40135   0.74970   0.73765   0.00000  Uiso   1.00
C1186  C     0.59869   0.75015   0.76247   0.00000  Uiso   1.00
C1187  C     0.34597   0.74929   0.73118   0.00000  Uiso   1.00
C1188  C     0.65414   0.75041   0.76941   0.00000  Uiso   1.00
C1189  C     0.52247   0.54784   0.79626   0.00000  Uiso   1.00
C1190  C     0.46753   0.95272   0.76560   0.00000  Uiso   1.00
C1191  C     0.52380   0.59407   0.79630   0.00000  Uiso   1.00
C1192  C     0.50052   0.83479   0.75011   0.00000  Uiso   1.00
C1193  C     0.46230   0.90663   0.76249   0.00000  Uiso   1.00
C1194  C     0.51058   0.61673   0.75238   0.00000  Uiso   1.00
C1195  C     0.50367   0.88290   0.75084   0.00000  Uiso   1.00
C1196  C     0.50484   0.59243   0.70902   0.00000  Uiso   1.00
C1197  C     0.54973   0.90526   0.74192   0.00000  Uiso   1.00
C1198  C     0.50658   0.54612   0.70865   0.00000  Uiso   1.00
C1199  C     0.55498   0.95165   0.74432   0.00000  Uiso   1.00
C1200  C     0.51334   0.52381   0.75308   0.00000  Uiso   1.00
C1201  C     0.51295   0.97533   0.75555   0.00000  Uiso   1.00
C1202  C     0.50327   0.52233   0.66171   0.00000  Uiso   1.00
C1203  C     0.54207   0.77088   0.55877   0.00000  Uiso   1.00
C1204  C     0.53871   0.53420   0.62991   0.00000  Uiso   1.00
C1205  C     0.53802   0.51048   0.58689   0.00000  Uiso   1.00
C1206  C     0.50117   0.97547   0.57463   0.00000  Uiso   1.00
C1207  C     0.46509   0.96399   0.60550   0.00000  Uiso   1.00
C1208  C     0.46612   0.98724   0.64885   0.00000  Uiso   1.00
C1209  C     0.60379   0.97475   0.73418   0.00000  Uiso   1.00
C1210  C     0.62121   0.96855   0.68959   0.00000  Uiso   1.00
C1211  C     0.66487   0.99312   0.67841   0.00000  Uiso   1.00
C1212  C     0.35871   0.52327   0.71201   0.00000  Uiso   1.00
C1213  C     0.34270   0.52847   0.75706   0.00000  Uiso   1.00
C1214  C     0.47698   0.71326   0.94322   0.00000  Uiso   1.00
C1215  C     0.63215   0.50424   0.76823   0.00000  Uiso   1.00
C1216  C     0.59065   0.78529   0.53953   0.00000  Uiso   1.00
C1217  C     0.61871   0.75337   0.51921   0.00000  Uiso   1.00
C1218  C     0.66112   0.76649   0.99620   0.00000  Uiso   1.00
C1219  C     0.34340   0.81147   0.99413   0.00000  Uiso   1.00
C1220  C     0.64912   0.84355   0.51409   0.00000  Uiso   1.00
C1221  C     0.60590   0.83067   0.53617   0.00000  Uiso   1.00
C1222  C     0.46523   0.67002   0.96598   0.00000  Uiso   1.00
C1223  C     0.50632   0.64611   0.98888   0.00000  Uiso   1.00
C1224  C     0.49641   0.60672   0.51305   0.00000  Uiso   1.00
C1225  C     0.53892   0.77355   0.60926   0.00000  Uiso   1.00
C1226  C     0.44540   0.59075   0.51458   0.00000  Uiso   1.00
C1227  C     0.40419   0.61424   0.99183   0.00000  Uiso   1.00
C1228  C     0.41394   0.65370   0.96758   0.00000  Uiso   1.00
C1229  C     0.41847   0.70080   0.61404   0.00000  Uiso   1.00
C1230  C     0.36860   0.71623   0.61396   0.00000  Uiso   1.00
C1231  C     0.66074   0.68666   0.62174   0.00000  Uiso   1.00
C1232  C     0.33546   0.64141   0.62833   0.00000  Uiso   1.00
C1233  C     0.38433   0.62550   0.62575   0.00000  Uiso   1.00
C1234  C     0.42531   0.65502   0.61759   0.00000  Uiso   1.00
C1235  C     0.55451   0.82125   0.88183   0.00000  Uiso   1.00
C1236  C     0.47312   0.71626   0.89207   0.00000  Uiso   1.00
C1237  C     0.53666   0.86452   0.87707   0.00000  Uiso   1.00
C1238  C     0.56965   0.89986   0.86562   0.00000  Uiso   1.00
C1239  C     0.62094   0.89248   0.86023   0.00000  Uiso   1.00
C1240  C     0.63941   0.84983   0.86677   0.00000  Uiso   1.00
C1241  C     0.60643   0.81438   0.87774   0.00000  Uiso   1.00
C1242  C     0.45987   0.72983   0.59815   0.00000  Uiso   1.00
C1243  C     0.52205   0.78509   0.89939   0.00000  Uiso   1.00
C1244  C     0.45784   0.73365   0.54804   0.00000  Uiso   1.00
Cu1245 Cu    0.50000   0.74999   0.79822   0.00000  Uiso   1.00
Cu1246 Cu    0.50000   0.75000   0.70179   0.00000  Uiso   1.00
H1247  H     0.65909   0.74814   0.69473   0.00000  Uiso   1.00
H1248  H     0.56625   0.51911   0.56315   0.00000  Uiso   1.00
H1249  H     0.50062   0.95721   0.54126   0.00000  Uiso   1.00
H1250  H     0.43649   0.93689   0.59600   0.00000  Uiso   1.00
H1251  H     0.43812   0.97762   0.67232   0.00000  Uiso   1.00
H1252  H     0.59995   0.94588   0.66292   0.00000  Uiso   1.00
H1253  H     0.34396   0.98908   0.64350   0.00000  Uiso   1.00
H1254  H     0.39234   0.54244   0.70330   0.00000  Uiso   1.00
H1255  H     0.36415   0.55145   0.78323   0.00000  Uiso   1.00
H1256  H     0.62013   0.50864   0.80326   0.00000  Uiso   1.00
H1257  H     0.60702   0.71838   0.52030   0.00000  Uiso   1.00
H1258  H     0.34092   0.75172   0.80610   0.00000  Uiso   1.00
H1259  H     0.34805   0.74181   0.97930   0.00000  Uiso   1.00
H1260  H     0.37632   0.82149   0.97632   0.00000  Uiso   1.00
H1261  H     0.66055   0.87848   0.51156   0.00000  Uiso   1.00
H1262  H     0.58338   0.85608   0.54923   0.00000  Uiso   1.00
H1263  H     0.54604   0.65815   0.98823   0.00000  Uiso   1.00
H1264  H     0.52839   0.58881   0.53080   0.00000  Uiso   1.00
H1265  H     0.43783   0.56039   0.53365   0.00000  Uiso   1.00
H1266  H     0.36467   0.60210   0.99339   0.00000  Uiso   1.00
H1267  H     0.38163   0.67209   0.95112   0.00000  Uiso   1.00
H1268  H     0.36175   0.75110   0.60788   0.00000  Uiso   1.00
H1269  H     0.53097   0.53042   0.83003   0.00000  Uiso   1.00
H1270  H     0.62249   0.69877   0.62224   0.00000  Uiso   1.00
H1271  H     0.63693   0.61857   0.63424   0.00000  Uiso   1.00
H1272  H     0.39011   0.59020   0.62867   0.00000  Uiso   1.00
H1273  H     0.46180   0.64223   0.61157   0.00000  Uiso   1.00
H1274  H     0.49724   0.87072   0.88203   0.00000  Uiso   1.00
H1275  H     0.55553   0.93299   0.86117   0.00000  Uiso   1.00
H1276  H     0.64650   0.91989   0.85159   0.00000  Uiso   1.00
H1277  H     0.34619   0.84428   0.86415   0.00000  Uiso   1.00
H1278  H     0.62171   0.78183   0.88427   0.00000  Uiso   1.00
H1279  H     0.43522   0.97114   0.77367   0.00000  Uiso   1.00
H1280  H     0.49943   0.60942   0.67516   0.00000  Uiso   1.00
H1281  H     0.58194   0.88652   0.73418   0.00000  Uiso   1.00
H1282  H     0.42349   0.72085   0.52540   0.00000  Uiso   1.00
H1283  H     0.52838   0.81770   0.96814   0.00000  Uiso   1.00
H1284  H     0.56788   0.56090   0.63916   0.00000  Uiso   1.00
I1285  I     0.55524   0.62470   0.86340   0.00000  Uiso   1.00
I1286  I     0.38965   0.87527   0.77117   0.00000  Uiso   1.00
I1287  I     0.59224   0.82060   0.65026   0.00000  Uiso   1.00
I1288  I     0.41739   0.67092   0.85099   0.00000  Uiso   1.00
N1289  N     0.50000   0.75001   0.62935   0.00000  Uiso   1.00
N1290  N     0.50000   0.74999   0.87066   0.00000  Uiso   1.00
O1291  O     0.50000   0.68573   0.79072   0.00000  Uiso   1.00
O1292  O     0.50000   0.81427   0.70929   0.00000  Uiso   1.00
O1293  O     0.50000   0.68573   0.70928   0.00000  Uiso   1.00
O1294  O     0.50000   0.81427   0.79072   0.00000  Uiso   1.00
O1295  O     0.42495   0.74999   0.78132   0.00000  Uiso   1.00
O1296  O     0.57505   0.75001   0.71868   0.00000  Uiso   1.00
O1297  O     0.42495   0.75000   0.69989   0.00000  Uiso   1.00
O1298  O     0.57505   0.75000   0.80012   0.00000  Uiso   1.00
C1299  C     0.83702   0.66509   0.75068   0.00000  Uiso   1.00
C1300  C     0.84940   0.78729   0.94836   0.00000  Uiso   1.00
C1301  C     0.83301   0.75148   0.52704   0.00000  Uiso   1.00
C1302  C     0.83096   0.75033   0.97232   0.00000  Uiso   1.00
C1303  C     0.73468   0.74970   0.73765   0.00000  Uiso   1.00
C1304  C     0.93202   0.75015   0.76247   0.00000  Uiso   1.00
C1305  C     0.67931   0.74929   0.73118   0.00000  Uiso   1.00
C1306  C     0.98747   0.75041   0.76941   0.00000  Uiso   1.00
C1307  C     0.85580   0.54784   0.79626   0.00000  Uiso   1.00
C1308  C     0.80086   0.95272   0.76560   0.00000  Uiso   1.00
C1309  C     0.85714   0.59407   0.79630   0.00000  Uiso   1.00
C1310  C     0.83386   0.83479   0.75011   0.00000  Uiso   1.00
C1311  C     0.79564   0.90663   0.76249   0.00000  Uiso   1.00
C1312  C     0.84392   0.61673   0.75238   0.00000  Uiso   1.00
C1313  C     0.83700   0.88290   0.75084   0.00000  Uiso   1.00
C1314  C     0.83818   0.59243   0.70902   0.00000  Uiso   1.00
C1315  C     0.88306   0.90526   0.74192   0.00000  Uiso   1.00
C1316  C     0.83991   0.54612   0.70865   0.00000  Uiso   1.00
C1317  C     0.88831   0.95165   0.74432   0.00000  Uiso   1.00
C1318  C     0.84667   0.52381   0.75308   0.00000  Uiso   1.00
C1319  C     0.84628   0.97533   0.75555   0.00000  Uiso   1.00
C1320  C     0.83660   0.52233   0.66171   0.00000  Uiso   1.00
C1321  C     0.87540   0.77088   0.55877   0.00000  Uiso   1.00
C1322  C     0.87204   0.53420   0.62991   0.00000  Uiso   1.00
C1323  C     0.87135   0.51048   0.58689   0.00000  Uiso   1.00
C1324  C     0.83450   0.97547   0.57463   0.00000  Uiso   1.00
C1325  C     0.79842   0.96399   0.60550   0.00000  Uiso   1.00
C1326  C     0.79945   0.98724   0.64885   0.00000  Uiso   1.00
C1327  C     0.93713   0.97475   0.73418   0.00000  Uiso   1.00
C1328  C     0.95454   0.96855   0.68959   0.00000  Uiso   1.00
C1329  C     0.99820   0.99312   0.67841   0.00000  Uiso   1.00
C1330  C     0.69204   0.52327   0.71201   0.00000  Uiso   1.00
C1331  C     0.67603   0.52847   0.75706   0.00000  Uiso   1.00
C1332  C     0.81031   0.71326   0.94322   0.00000  Uiso   1.00
C1333  C     0.96548   0.50424   0.76823   0.00000  Uiso   1.00
C1334  C     0.92398   0.78529   0.53953   0.00000  Uiso   1.00
C1335  C     0.95205   0.75337   0.51921   0.00000  Uiso   1.00
C1336  C     0.99446   0.76649   0.99620   0.00000  Uiso   1.00
C1337  C     0.67673   0.81147   0.99413   0.00000  Uiso   1.00
C1338  C     0.98245   0.84355   0.51409   0.00000  Uiso   1.00
C1339  C     0.93923   0.83067   0.53617   0.00000  Uiso   1.00
C1340  C     0.79856   0.67002   0.96598   0.00000  Uiso   1.00
C1341  C     0.83965   0.64611   0.98888   0.00000  Uiso   1.00
C1342  C     0.82974   0.60672   0.51305   0.00000  Uiso   1.00
C1343  C     0.87226   0.77355   0.60926   0.00000  Uiso   1.00
C1344  C     0.77874   0.59075   0.51458   0.00000  Uiso   1.00
C1345  C     0.73752   0.61424   0.99183   0.00000  Uiso   1.00
C1346  C     0.74727   0.65370   0.96758   0.00000  Uiso   1.00
C1347  C     0.75181   0.70080   0.61404   0.00000  Uiso   1.00
C1348  C     0.70193   0.71623   0.61396   0.00000  Uiso   1.00
C1349  C     0.99407   0.68666   0.62174   0.00000  Uiso   1.00
C1350  C     0.66880   0.64141   0.62833   0.00000  Uiso   1.00
C1351  C     0.71766   0.62550   0.62575   0.00000  Uiso   1.00
C1352  C     0.75865   0.65502   0.61759   0.00000  Uiso   1.00
C1353  C     0.88784   0.82125   0.88183   0.00000  Uiso   1.00
C1354  C     0.80646   0.71626   0.89207   0.00000  Uiso   1.00
C1355  C     0.86999   0.86452   0.87707   0.00000  Uiso   1.00
C1356  C     0.90298   0.89986   0.86562   0.00000  Uiso   1.00
C1357  C     0.95427   0.89248   0.86023   0.00000  Uiso   1.00
C1358  C     0.97275   0.84983   0.86677   0.00000  Uiso   1.00
C1359  C     0.93976   0.81438   0.87774   0.00000  Uiso   1.00
C1360  C     0.79320   0.72983   0.59815   0.00000  Uiso   1.00
C1361  C     0.85539   0.78509   0.89939   0.00000  Uiso   1.00
C1362  C     0.79118   0.73365   0.54804   0.00000  Uiso   1.00
Cu1363 Cu    0.83333   0.74999   0.79822   0.00000  Uiso   1.00
Cu1364 Cu    0.83333   0.75000   0.70179   0.00000  Uiso   1.00
H1365  H     0.99242   0.74814   0.69473   0.00000  Uiso   1.00
H1366  H     0.89958   0.51911   0.56315   0.00000  Uiso   1.00
H1367  H     0.83395   0.95721   0.54126   0.00000  Uiso   1.00
H1368  H     0.76982   0.93689   0.59600   0.00000  Uiso   1.00
H1369  H     0.77145   0.97762   0.67232   0.00000  Uiso   1.00
H1370  H     0.93329   0.94588   0.66292   0.00000  Uiso   1.00
H1371  H     0.67729   0.98908   0.64350   0.00000  Uiso   1.00
H1372  H     0.72568   0.54244   0.70330   0.00000  Uiso   1.00
H1373  H     0.69748   0.55145   0.78323   0.00000  Uiso   1.00
H1374  H     0.95346   0.50864   0.80326   0.00000  Uiso   1.00
H1375  H     0.94035   0.71838   0.52030   0.00000  Uiso   1.00
H1376  H     0.67426   0.75172   0.80610   0.00000  Uiso   1.00
H1377  H     0.68139   0.74181   0.97930   0.00000  Uiso   1.00
H1378  H     0.70965   0.82149   0.97632   0.00000  Uiso   1.00
H1379  H     0.99388   0.87848   0.51156   0.00000  Uiso   1.00
H1380  H     0.91672   0.85608   0.54923   0.00000  Uiso   1.00
H1381  H     0.87937   0.65815   0.98823   0.00000  Uiso   1.00
H1382  H     0.86172   0.58881   0.53080   0.00000  Uiso   1.00
H1383  H     0.77116   0.56039   0.53365   0.00000  Uiso   1.00
H1384  H     0.69800   0.60210   0.99339   0.00000  Uiso   1.00
H1385  H     0.71496   0.67209   0.95112   0.00000  Uiso   1.00
H1386  H     0.69508   0.75110   0.60788   0.00000  Uiso   1.00
H1387  H     0.86430   0.53042   0.83003   0.00000  Uiso   1.00
H1388  H     0.95583   0.69877   0.62224   0.00000  Uiso   1.00
H1389  H     0.97027   0.61857   0.63424   0.00000  Uiso   1.00
H1390  H     0.72344   0.59020   0.62867   0.00000  Uiso   1.00
H1391  H     0.79513   0.64223   0.61157   0.00000  Uiso   1.00
H1392  H     0.83057   0.87072   0.88203   0.00000  Uiso   1.00
H1393  H     0.88886   0.93299   0.86117   0.00000  Uiso   1.00
H1394  H     0.97984   0.91989   0.85159   0.00000  Uiso   1.00
H1395  H     0.67953   0.84428   0.86415   0.00000  Uiso   1.00
H1396  H     0.95504   0.78183   0.88427   0.00000  Uiso   1.00
H1397  H     0.76855   0.97114   0.77367   0.00000  Uiso   1.00
H1398  H     0.83276   0.60942   0.67516   0.00000  Uiso   1.00
H1399  H     0.91528   0.88652   0.73418   0.00000  Uiso   1.00
H1400  H     0.75683   0.72085   0.52540   0.00000  Uiso   1.00
H1401  H     0.86172   0.81770   0.96814   0.00000  Uiso   1.00
H1402  H     0.90121   0.56090   0.63916   0.00000  Uiso   1.00
I1403  I     0.88858   0.62470   0.86340   0.00000  Uiso   1.00
I1404  I     0.72298   0.87527   0.77117   0.00000  Uiso   1.00
I1405  I     0.92557   0.82060   0.65026   0.00000  Uiso   1.00
I1406  I     0.75072   0.67092   0.85099   0.00000  Uiso   1.00
N1407  N     0.83333   0.75001   0.62935   0.00000  Uiso   1.00
N1408  N     0.83333   0.74999   0.87066   0.00000  Uiso   1.00
O1409  O     0.83334   0.68573   0.79072   0.00000  Uiso   1.00
O1410  O     0.83333   0.81427   0.70929   0.00000  Uiso   1.00
O1411  O     0.83334   0.68573   0.70928   0.00000  Uiso   1.00
O1412  O     0.83333   0.81427   0.79072   0.00000  Uiso   1.00
O1413  O     0.75828   0.74999   0.78132   0.00000  Uiso   1.00
O1414  O     0.90839   0.75001   0.71868   0.00000  Uiso   1.00
O1415  O     0.75828   0.75000   0.69989   0.00000  Uiso   1.00
O1416  O     0.90839   0.75000   0.80012   0.00000  Uiso   1.00
loop_
_geom_bond_atom_site_label_1
_geom_bond_atom_site_label_2
_geom_bond_distance
_geom_bond_site_symmetry_2
_ccdc_geom_bond_type
C1     O113    1.311   .     A
C1     C14     1.476   .     S
C1     O111    1.300   .     A
C2     C63     1.405   .     A
C2     C4      1.399   .     A
C2     H103    1.079   .     S
C3     C23     1.417   .     A
C3     C64     1.395   .     A
C3     C712    1.528   1_554 S
C4     C34     1.418   .     A
C4     C711    1.528   .     S
C5     O115    1.291   .     A
C5     C7      1.430   .     S
C5     O117    1.297   .     A
C6     C8      1.432   .     S
C6     O116    1.294   .     A
C6     O118    1.295   .     A
C7     C244    1.335   1_455 S
C7     H303    1.082   1_455 S
C8     C125    1.335   .     S
C8     H196    1.087   .     S
C9     H89     1.084   .     S
C9     C20     1.394   .     A
C9     C11     1.389   .     A
C10    C21     1.398   .     A
C10    C13     1.387   .     A
C10    H99     1.083   .     S
C11    C14     1.417   .     A
C11    I105    2.131   .     S
C12    O114    1.297   .     A
C12    C15     1.446   .     S
C12    O112    1.298   .     A
C13    I106    2.118   .     S
C13    C15     1.401   .     A
C14    C16     1.403   .     A
C15    C17     1.400   .     A
C16    H100    1.074   .     S
C16    C18     1.396   .     A
C17    H101    1.083   .     S
C17    C19     1.396   .     A
C18    C20     1.410   .     A
C18    C22     1.487   .     S
C19    C21     1.411   .     A
C19    C29     1.481   .     S
C20    C375    1.460   1_545 S
C21    C374    1.460   .     S
C22    C24     1.405   .     A
C22    C382    1.406   1_545 S
C23    C45     1.432   .     A
C23    C36     1.490   .     S
C24    C25     1.398   .     A
C24    H104    1.082   .     S
C25    H68     1.082   .     S
C25    C380    1.397   1_545 S
C26    C27     1.397   .     A
C26    H69     1.082   .     S
C26    C379    1.397   .     S
C27    H70     1.082   .     S
C27    C28     1.398   .     A
C28    H71     1.079   .     S
C28    C376    1.406   .     S
C29    C30     1.404   .     A
C29    C389    1.406   .     S
C30    C31     1.398   .     A
C30    H72     1.083   .     S
C31    C504    1.398   .     S
C31    H191    1.082   .     S
C32    H74     1.081   .     S
C32    C33     1.396   .     A
C32    C621    1.398   1_445 S
C33    H75     1.083   .     S
C33    C271    1.398   1_455 S
C34    C56     1.427   .     A
C34    C42     1.486   .     S
C35    H76     1.082   .     S
C35    C151    1.398   .     S
C35    C383    1.406   1_545 S
C36    C37     1.405   .     A
C36    C41     1.409   .     A
C37    H77     1.082   .     S
C37    C746    1.397   1_554 S
C38    C745    1.397   .     S
C38    C157    1.396   .     S
C38    H197    1.080   .     S
C39    H80     1.083   .     S
C39    C274    1.396   1_455 S
C39    C984    1.397   1_455 S
C40    C41     1.399   .     A
C40    H81     1.082   .     S
C40    C865    1.397   1_554 S
C41    H82     1.083   .     S
C42    C48     1.408   .     A
C42    C43     1.404   .     A
C43    H83     1.082   .     S
C43    C752    1.396   .     S
C44    C46     1.397   .     A
C44    H84     1.080   .     S
C44    C751    1.396   1_554 S
C45    N109    1.391   .     A
C45    I107    2.144   .     S
C46    H85     1.082   .     S
C46    C755    1.398   1_554 S
C47    H86     1.082   .     S
C47    C48     1.399   .     A
C47    C754    1.398   .     S
C48    H87     1.082   .     S
C49    C54     1.400   .     A
C49    C50     1.405   .     A
C49    C62     1.471   .     S
C50    H88     1.083   .     S
C50    C287    1.400   1_455 S
C51    H90     1.083   .     S
C51    C168    1.400   .     S
C51    C170    1.397   .     S
C52    C53     1.397   .     A
C52    C287    1.397   1_455 S
C52    H327    1.081   1_455 S
C53    C54     1.398   .     A
C53    H92     1.082   .     S
C54    H93     1.081   .     S
C55    C63     1.471   .     S
C55    C57     1.406   .     A
C55    C61     1.402   .     A
C56    I108    2.148   .     S
C56    N110    1.388   .     A
C57    H94     1.083   .     S
C57    C58     1.398   .     A
C58    H95     1.083   .     S
C58    C59     1.397   .     A
C59    C60     1.398   .     A
C59    H96     1.082   .     S
C60    C61     1.397   .     A
C60    H215    1.081   .     S
C61    H98     1.083   .     S
C62    C64     1.404   .     A
C62    N109    1.380   .     A
C63    N110    1.378   .     A
C64    H102    1.076   .     S
Cu65   O114    1.946   .     S
Cu65   O111    1.945   .     S
Cu65   O118    1.952   .     S
Cu65   O115    1.950   .     S
Cu65   Cu66    2.704   .     S
Cu65   N110    2.031   .     S
Cu66   O113    1.946   .     S
Cu66   O116    1.950   .     S
Cu66   O117    1.952   .     S
Cu66   N109    2.031   .     S
Cu66   O112    1.945   .     S
H67    C125    1.082   .     S
H73    C267    1.082   1_455 S
H78    C244    1.087   1_455 S
H79    C274    1.080   1_455 S
H91    C170    1.081   .     S
H97    C296    1.081   1_455 S
C119   O231    1.311   .     A
C119   C132    1.476   .     S
C119   O229    1.300   .     A
C120   C181    1.405   .     A
C120   C122    1.399   .     A
C120   H221    1.079   .     S
C121   C141    1.417   .     A
C121   C182    1.395   .     A
C121   C830    1.528   1_554 S
C122   C152    1.418   .     A
C122   C829    1.528   .     S
C123   O233    1.291   .     A
C123   C125    1.430   .     S
C123   O235    1.297   .     A
C124   C126    1.432   .     S
C124   O234    1.294   .     A
C124   O236    1.295   .     A
C126   C243    1.335   .     S
C126   H314    1.087   .     S
C127   H207    1.084   .     S
C127   C138    1.394   .     A
C127   C129    1.389   .     A
C128   C139    1.398   .     A
C128   C131    1.387   .     A
C128   H217    1.083   .     S
C129   C132    1.417   .     A
C129   I223    2.131   .     S
C130   O232    1.297   .     A
C130   C133    1.446   .     S
C130   O230    1.298   .     A
C131   I224    2.118   .     S
C131   C133    1.401   .     A
C132   C134    1.403   .     A
C133   C135    1.400   .     A
C134   H218    1.074   .     S
C134   C136    1.396   .     A
C135   H219    1.083   .     S
C135   C137    1.396   .     A
C136   C138    1.410   .     A
C136   C140    1.487   .     S
C137   C139    1.411   .     A
C137   C147    1.481   .     S
C138   C493    1.460   1_545 S
C139   C492    1.460   .     S
C140   C142    1.405   .     A
C140   C500    1.406   1_545 S
C141   C163    1.432   .     A
C141   C154    1.490   .     S
C142   C143    1.398   .     A
C142   H222    1.082   .     S
C143   H186    1.082   .     S
C143   C498    1.397   1_545 S
C144   C145    1.397   .     A
C144   H187    1.082   .     S
C144   C497    1.397   .     S
C145   H188    1.082   .     S
C145   C146    1.398   .     A
C146   H189    1.079   .     S
C146   C494    1.406   .     S
C147   C148    1.404   .     A
C147   C507    1.406   .     S
C148   C149    1.398   .     A
C148   H190    1.083   .     S
C149   C622    1.398   .     S
C149   H309    1.082   .     S
C150   H192    1.081   .     S
C150   C151    1.396   .     A
C150   C385    1.398   1_545 S
C151   H193    1.083   .     S
C152   C174    1.427   .     A
C152   C160    1.486   .     S
C153   H194    1.082   .     S
C153   C269    1.398   .     S
C153   C501    1.406   1_545 S
C154   C155    1.405   .     A
C154   C159    1.409   .     A
C155   H195    1.082   .     S
C155   C864    1.397   1_554 S
C156   C863    1.397   .     S
C156   C275    1.396   .     S
C156   H315    1.080   .     S
C157   H198    1.083   .     S
C157   C748    1.397   .     S
C158   C159    1.399   .     A
C158   H199    1.082   .     S
C158   C983    1.397   1_554 S
C159   H200    1.083   .     S
C160   C166    1.408   .     A
C160   C161    1.404   .     A
C161   H201    1.082   .     S
C161   C870    1.396   .     S
C162   C164    1.397   .     A
C162   H202    1.080   .     S
C162   C869    1.396   1_554 S
C163   N227    1.391   .     A
C163   I225    2.144   .     S
C164   H203    1.082   .     S
C164   C873    1.398   1_554 S
C165   H204    1.082   .     S
C165   C166    1.399   .     A
C165   C872    1.398   .     S
C166   H205    1.082   .     S
C167   C172    1.400   .     A
C167   C168    1.405   .     A
C167   C180    1.471   .     S
C168   H206    1.083   .     S
C169   H208    1.083   .     S
C169   C286    1.400   .     S
C169   C288    1.397   .     S
C170   C171    1.397   .     A
C171   C172    1.398   .     A
C171   H210    1.082   .     S
C172   H211    1.081   .     S
C173   C181    1.471   .     S
C173   C175    1.406   .     A
C173   C179    1.402   .     A
C174   I226    2.148   .     S
C174   N228    1.388   .     A
C175   H212    1.083   .     S
C175   C176    1.398   .     A
C176   H213    1.083   .     S
C176   C177    1.397   .     A
C177   C178    1.398   .     A
C177   H214    1.082   .     S
C178   C179    1.397   .     A
C178   H333    1.081   .     S
C179   H216    1.083   .     S
C180   C182    1.404   .     A
C180   N227    1.380   .     A
C181   N228    1.378   .     A
C182   H220    1.076   .     S
Cu183  O232    1.946   .     S
Cu183  O229    1.945   .     S
Cu183  O236    1.952   .     S
Cu183  O233    1.950   .     S
Cu183  Cu184   2.704   .     S
Cu183  N228    2.031   .     S
Cu184  O231    1.946   .     S
Cu184  O234    1.950   .     S
Cu184  O235    1.952   .     S
Cu184  N227    2.031   .     S
Cu184  O230    1.945   .     S
H185   C243    1.082   .     S
H209   C288    1.081   .     S
C237   O349    1.311   .     A
C237   C250    1.476   .     S
C237   O347    1.300   .     A
C238   C299    1.405   .     A
C238   C240    1.399   .     A
C238   H339    1.079   .     S
C239   C259    1.417   .     A
C239   C300    1.395   .     A
C239   C948    1.528   1_554 S
C240   C270    1.418   .     A
C240   C947    1.528   .     S
C241   O351    1.291   .     A
C241   C243    1.430   .     S
C241   O353    1.297   .     A
C242   C244    1.432   .     S
C242   O352    1.294   .     A
C242   O354    1.295   .     A
C244   C7      1.335   1_655 S
C244   H78     1.087   1_655 S
C245   H325    1.084   .     S
C245   C256    1.394   .     A
C245   C247    1.389   .     A
C246   C257    1.398   .     A
C246   C249    1.387   .     A
C246   H335    1.083   .     S
C247   C250    1.417   .     A
C247   I341    2.131   .     S
C248   O350    1.297   .     A
C248   C251    1.446   .     S
C248   O348    1.298   .     A
C249   I342    2.118   .     S
C249   C251    1.401   .     A
C250   C252    1.403   .     A
C251   C253    1.400   .     A
C252   H336    1.074   .     S
C252   C254    1.396   .     A
C253   H337    1.083   .     S
C253   C255    1.396   .     A
C254   C256    1.410   .     A
C254   C258    1.487   .     S
C255   C257    1.411   .     A
C255   C265    1.481   .     S
C256   C611    1.460   1_545 S
C257   C610    1.460   .     S
C258   C260    1.405   .     A
C258   C618    1.406   1_545 S
C259   C281    1.432   .     A
C259   C272    1.490   .     S
C260   C261    1.398   .     A
C260   H340    1.082   .     S
C261   H304    1.082   .     S
C261   C616    1.397   1_545 S
C262   C263    1.397   .     A
C262   H305    1.082   .     S
C262   C615    1.397   .     S
C263   H306    1.082   .     S
C263   C264    1.398   .     A
C264   H307    1.079   .     S
C264   C612    1.406   .     S
C265   C266    1.404   .     A
C265   C625    1.406   .     S
C266   C267    1.398   .     A
C266   H308    1.083   .     S
C267   C386    1.398   1_655 S
C267   H73     1.082   1_655 S
C268   H310    1.081   .     S
C268   C269    1.396   .     A
C268   C503    1.398   1_545 S
C269   H311    1.083   .     S
C270   C292    1.427   .     A
C270   C278    1.486   .     S
C271   H312    1.082   .     S
C271   C33     1.398   1_655 S
C271   C619    1.406   1_545 S
C272   C273    1.405   .     A
C272   C277    1.409   .     A
C273   H313    1.082   .     S
C273   C982    1.397   1_554 S
C274   C981    1.397   .     S
C274   C39     1.396   1_655 S
C274   H79     1.080   1_655 S
C275   H316    1.083   .     S
C275   C866    1.397   .     S
C276   C277    1.399   .     A
C276   H317    1.082   .     S
C276   C747    1.397   1_654 S
C277   H318    1.083   .     S
C278   C284    1.408   .     A
C278   C279    1.404   .     A
C279   H319    1.082   .     S
C279   C988    1.396   .     S
C280   C282    1.397   .     A
C280   H320    1.080   .     S
C280   C987    1.396   1_554 S
C281   N345    1.391   .     A
C281   I343    2.144   .     S
C282   H321    1.082   .     S
C282   C991    1.398   1_554 S
C283   H322    1.082   .     S
C283   C284    1.399   .     A
C283   C990    1.398   .     S
C284   H323    1.082   .     S
C285   C290    1.400   .     A
C285   C286    1.405   .     A
C285   C298    1.471   .     S
C286   H324    1.083   .     S
C287   H326    1.083   .     S
C287   C50     1.400   1_655 S
C287   C52     1.397   1_655 S
C288   C289    1.397   .     A
C289   C290    1.398   .     A
C289   H328    1.082   .     S
C290   H329    1.081   .     S
C291   C299    1.471   .     S
C291   C293    1.406   .     A
C291   C297    1.402   .     A
C292   I344    2.148   .     S
C292   N346    1.388   .     A
C293   H330    1.083   .     S
C293   C294    1.398   .     A
C294   H331    1.083   .     S
C294   C295    1.397   .     A
C295   C296    1.398   .     A
C295   H332    1.082   .     S
C296   C297    1.397   .     A
C296   H97     1.081   1_655 S
C297   H334    1.083   .     S
C298   C300    1.404   .     A
C298   N345    1.380   .     A
C299   N346    1.378   .     A
C300   H338    1.076   .     S
Cu301  O350    1.946   .     S
Cu301  O347    1.945   .     S
Cu301  O354    1.952   .     S
Cu301  O351    1.950   .     S
Cu301  Cu302   2.704   .     S
Cu301  N346    2.031   .     S
Cu302  O349    1.946   .     S
Cu302  O352    1.950   .     S
Cu302  O353    1.952   .     S
Cu302  N345    2.031   .     S
Cu302  O348    1.945   .     S
H303   C7      1.082   1_655 S
H327   C52     1.081   1_655 S
C355   O467    1.311   .     A
C355   C368    1.476   .     S
C355   O465    1.300   .     A
C356   C417    1.405   .     A
C356   C358    1.399   .     A
C356   H457    1.079   .     S
C357   C377    1.417   .     A
C357   C418    1.395   .     A
C357   C1066   1.528   1_554 S
C358   C388    1.418   .     A
C358   C1065   1.528   .     S
C359   O469    1.291   .     A
C359   C361    1.430   .     S
C359   O471    1.297   .     A
C360   C362    1.432   .     S
C360   O470    1.294   .     A
C360   O472    1.295   .     A
C361   C598    1.335   1_455 S
C361   H657    1.082   1_455 S
C362   C479    1.335   .     S
C362   H550    1.087   .     S
C363   H443    1.084   .     S
C363   C374    1.394   .     A
C363   C365    1.389   .     A
C364   C375    1.398   .     A
C364   C367    1.387   .     A
C364   H453    1.083   .     S
C365   C368    1.417   .     A
C365   I459    2.131   .     S
C366   O468    1.297   .     A
C366   C369    1.446   .     S
C366   O466    1.298   .     A
C367   I460    2.118   .     S
C367   C369    1.401   .     A
C368   C370    1.403   .     A
C369   C371    1.400   .     A
C370   H454    1.074   .     S
C370   C372    1.396   .     A
C371   H455    1.083   .     S
C371   C373    1.396   .     A
C372   C374    1.410   .     A
C372   C376    1.487   .     S
C373   C375    1.411   .     A
C373   C383    1.481   .     S
C375   C20     1.460   1_565 S
C376   C378    1.405   .     A
C377   C399    1.432   .     A
C377   C390    1.490   .     S
C378   C379    1.398   .     A
C378   H458    1.082   .     S
C379   H422    1.082   .     S
C380   C381    1.397   .     A
C380   H423    1.082   .     S
C380   C25     1.397   1_565 S
C381   H424    1.082   .     S
C381   C382    1.398   .     A
C382   H425    1.079   .     S
C382   C22     1.406   1_565 S
C383   C384    1.404   .     A
C383   C35     1.406   1_565 S
C384   C385    1.398   .     A
C384   H426    1.083   .     S
C385   C150    1.398   1_565 S
C385   H545    1.082   .     S
C386   H428    1.081   .     S
C386   C387    1.396   .     A
C386   C267    1.398   1_455 S
C387   H429    1.083   .     S
C387   C625    1.398   1_455 S
C388   C410    1.427   .     A
C388   C396    1.486   .     S
C389   H430    1.082   .     S
C389   C505    1.398   .     S
C390   C391    1.405   .     A
C390   C395    1.409   .     A
C391   H431    1.082   .     S
C391   C1100   1.397   1_554 S
C392   C1099   1.397   .     S
C392   C511    1.396   .     S
C392   H551    1.080   .     S
C393   H434    1.083   .     S
C393   C628    1.396   1_455 S
C393   C1338   1.397   1_455 S
C394   C395    1.399   .     A
C394   H435    1.082   .     S
C394   C1219   1.397   1_554 S
C395   H436    1.083   .     S
C396   C402    1.408   .     A
C396   C397    1.404   .     A
C397   H437    1.082   .     S
C397   C1106   1.396   .     S
C398   C400    1.397   .     A
C398   H438    1.080   .     S
C398   C1105   1.396   1_554 S
C399   N463    1.391   .     A
C399   I461    2.144   .     S
C400   H439    1.082   .     S
C400   C1109   1.398   1_554 S
C401   H440    1.082   .     S
C401   C402    1.399   .     A
C401   C1108   1.398   .     S
C402   H441    1.082   .     S
C403   C408    1.400   .     A
C403   C404    1.405   .     A
C403   C416    1.471   .     S
C404   H442    1.083   .     S
C404   C641    1.400   1_455 S
C405   H444    1.083   .     S
C405   C522    1.400   .     S
C405   C524    1.397   .     S
C406   C407    1.397   .     A
C406   C641    1.397   1_455 S
C406   H681    1.081   1_455 S
C407   C408    1.398   .     A
C407   H446    1.082   .     S
C408   H447    1.081   .     S
C409   C417    1.471   .     S
C409   C411    1.406   .     A
C409   C415    1.402   .     A
C410   I462    2.148   .     S
C410   N464    1.388   .     A
C411   H448    1.083   .     S
C411   C412    1.398   .     A
C412   H449    1.083   .     S
C412   C413    1.397   .     A
C413   C414    1.398   .     A
C413   H450    1.082   .     S
C414   C415    1.397   .     A
C414   H569    1.081   .     S
C415   H452    1.083   .     S
C416   C418    1.404   .     A
C416   N463    1.380   .     A
C417   N464    1.378   .     A
C418   H456    1.076   .     S
Cu419  O468    1.946   .     S
Cu419  O465    1.945   .     S
Cu419  O472    1.952   .     S
Cu419  O469    1.950   .     S
Cu419  Cu420   2.704   .     S
Cu419  N464    2.031   .     S
Cu420  O467    1.946   .     S
Cu420  O470    1.950   .     S
Cu420  O471    1.952   .     S
Cu420  N463    2.031   .     S
Cu420  O466    1.945   .     S
H421   C479    1.082   .     S
H427   C621    1.082   1_455 S
H432   C598    1.087   1_455 S
H433   C628    1.080   1_455 S
H445   C524    1.081   .     S
H451   C650    1.081   1_455 S
C473   O585    1.311   .     A
C473   C486    1.476   .     S
C473   O583    1.300   .     A
C474   C535    1.405   .     A
C474   C476    1.399   .     A
C474   H575    1.079   .     S
C475   C495    1.417   .     A
C475   C536    1.395   .     A
C475   C1184   1.528   1_554 S
C476   C506    1.418   .     A
C476   C1183   1.528   .     S
C477   O587    1.291   .     A
C477   C479    1.430   .     S
C477   O589    1.297   .     A
C478   C480    1.432   .     S
C478   O588    1.294   .     A
C478   O590    1.295   .     A
C480   C597    1.335   .     S
C480   H668    1.087   .     S
C481   H561    1.084   .     S
C481   C492    1.394   .     A
C481   C483    1.389   .     A
C482   C493    1.398   .     A
C482   C485    1.387   .     A
C482   H571    1.083   .     S
C483   C486    1.417   .     A
C483   I577    2.131   .     S
C484   O586    1.297   .     A
C484   C487    1.446   .     S
C484   O584    1.298   .     A
C485   I578    2.118   .     S
C485   C487    1.401   .     A
C486   C488    1.403   .     A
C487   C489    1.400   .     A
C488   H572    1.074   .     S
C488   C490    1.396   .     A
C489   H573    1.083   .     S
C489   C491    1.396   .     A
C490   C492    1.410   .     A
C490   C494    1.487   .     S
C491   C493    1.411   .     A
C491   C501    1.481   .     S
C493   C138    1.460   1_565 S
C494   C496    1.405   .     A
C495   C517    1.432   .     A
C495   C508    1.490   .     S
C496   C497    1.398   .     A
C496   H576    1.082   .     S
C497   H540    1.082   .     S
C498   C499    1.397   .     A
C498   H541    1.082   .     S
C498   C143    1.397   1_565 S
C499   H542    1.082   .     S
C499   C500    1.398   .     A
C500   H543    1.079   .     S
C500   C140    1.406   1_565 S
C501   C502    1.404   .     A
C501   C153    1.406   1_565 S
C502   C503    1.398   .     A
C502   H544    1.083   .     S
C503   C268    1.398   1_565 S
C503   H663    1.082   .     S
C504   H546    1.081   .     S
C504   C505    1.396   .     A
C505   H547    1.083   .     S
C506   C528    1.427   .     A
C506   C514    1.486   .     S
C507   H548    1.082   .     S
C507   C623    1.398   .     S
C508   C509    1.405   .     A
C508   C513    1.409   .     A
C509   H549    1.082   .     S
C509   C1218   1.397   1_554 S
C510   C1217   1.397   .     S
C510   C629    1.396   .     S
C510   H669    1.080   .     S
C511   H552    1.083   .     S
C511   C1102   1.397   .     S
C512   C513    1.399   .     A
C512   H553    1.082   .     S
C512   C1337   1.397   1_554 S
C513   H554    1.083   .     S
C514   C520    1.408   .     A
C514   C515    1.404   .     A
C515   H555    1.082   .     S
C515   C1224   1.396   .     S
C516   C518    1.397   .     A
C516   H556    1.080   .     S
C516   C1223   1.396   1_554 S
C517   N581    1.391   .     A
C517   I579    2.144   .     S
C518   H557    1.082   .     S
C518   C1227   1.398   1_554 S
C519   H558    1.082   .     S
C519   C520    1.399   .     A
C519   C1226   1.398   .     S
C520   H559    1.082   .     S
C521   C526    1.400   .     A
C521   C522    1.405   .     A
C521   C534    1.471   .     S
C522   H560    1.083   .     S
C523   H562    1.083   .     S
C523   C640    1.400   .     S
C523   C642    1.397   .     S
C524   C525    1.397   .     A
C525   C526    1.398   .     A
C525   H564    1.082   .     S
C526   H565    1.081   .     S
C527   C535    1.471   .     S
C527   C529    1.406   .     A
C527   C533    1.402   .     A
C528   I580    2.148   .     S
C528   N582    1.388   .     A
C529   H566    1.083   .     S
C529   C530    1.398   .     A
C530   H567    1.083   .     S
C530   C531    1.397   .     A
C531   C532    1.398   .     A
C531   H568    1.082   .     S
C532   C533    1.397   .     A
C532   H687    1.081   .     S
C533   H570    1.083   .     S
C534   C536    1.404   .     A
C534   N581    1.380   .     A
C535   N582    1.378   .     A
C536   H574    1.076   .     S
Cu537  O586    1.946   .     S
Cu537  O583    1.945   .     S
Cu537  O590    1.952   .     S
Cu537  O587    1.950   .     S
Cu537  Cu538   2.704   .     S
Cu537  N582    2.031   .     S
Cu538  O585    1.946   .     S
Cu538  O588    1.950   .     S
Cu538  O589    1.952   .     S
Cu538  N581    2.031   .     S
Cu538  O584    1.945   .     S
H539   C597    1.082   .     S
H563   C642    1.081   .     S
C591   O703    1.311   .     A
C591   C604    1.476   .     S
C591   O701    1.300   .     A
C592   C653    1.405   .     A
C592   C594    1.399   .     A
C592   H693    1.079   .     S
C593   C613    1.417   .     A
C593   C654    1.395   .     A
C593   C1302   1.528   1_554 S
C594   C624    1.418   .     A
C594   C1301   1.528   .     S
C595   O705    1.291   .     A
C595   C597    1.430   .     S
C595   O707    1.297   .     A
C596   C598    1.432   .     S
C596   O706    1.294   .     A
C596   O708    1.295   .     A
C598   C361    1.335   1_655 S
C598   H432    1.087   1_655 S
C599   H679    1.084   .     S
C599   C610    1.394   .     A
C599   C601    1.389   .     A
C600   C611    1.398   .     A
C600   C603    1.387   .     A
C600   H689    1.083   .     S
C601   C604    1.417   .     A
C601   I695    2.131   .     S
C602   O704    1.297   .     A
C602   C605    1.446   .     S
C602   O702    1.298   .     A
C603   I696    2.118   .     S
C603   C605    1.401   .     A
C604   C606    1.403   .     A
C605   C607    1.400   .     A
C606   H690    1.074   .     S
C606   C608    1.396   .     A
C607   H691    1.083   .     S
C607   C609    1.396   .     A
C608   C610    1.410   .     A
C608   C612    1.487   .     S
C609   C611    1.411   .     A
C609   C619    1.481   .     S
C611   C256    1.460   1_565 S
C612   C614    1.405   .     A
C613   C635    1.432   .     A
C613   C626    1.490   .     S
C614   C615    1.398   .     A
C614   H694    1.082   .     S
C615   H658    1.082   .     S
C616   C617    1.397   .     A
C616   H659    1.082   .     S
C616   C261    1.397   1_565 S
C617   H660    1.082   .     S
C617   C618    1.398   .     A
C618   H661    1.079   .     S
C618   C258    1.406   1_565 S
C619   C620    1.404   .     A
C619   C271    1.406   1_565 S
C620   C621    1.398   .     A
C620   H662    1.083   .     S
C621   C32     1.398   1_665 S
C621   H427    1.082   1_655 S
C622   H664    1.081   .     S
C622   C623    1.396   .     A
C623   H665    1.083   .     S
C624   C646    1.427   .     A
C624   C632    1.486   .     S
C625   H666    1.082   .     S
C625   C387    1.398   1_655 S
C626   C627    1.405   .     A
C626   C631    1.409   .     A
C627   H667    1.082   .     S
C627   C1336   1.397   1_554 S
C628   C1335   1.397   .     S
C628   C393    1.396   1_655 S
C628   H433    1.080   1_655 S
C629   H670    1.083   .     S
C629   C1220   1.397   .     S
C630   C631    1.399   .     A
C630   H671    1.082   .     S
C630   C1101   1.397   1_654 S
C631   H672    1.083   .     S
C632   C638    1.408   .     A
C632   C633    1.404   .     A
C633   H673    1.082   .     S
C633   C1342   1.396   .     S
C634   C636    1.397   .     A
C634   H674    1.080   .     S
C634   C1341   1.396   1_554 S
C635   N699    1.391   .     A
C635   I697    2.144   .     S
C636   H675    1.082   .     S
C636   C1345   1.398   1_554 S
C637   H676    1.082   .     S
C637   C638    1.399   .     A
C637   C1344   1.398   .     S
C638   H677    1.082   .     S
C639   C644    1.400   .     A
C639   C640    1.405   .     A
C639   C652    1.471   .     S
C640   H678    1.083   .     S
C641   H680    1.083   .     S
C641   C404    1.400   1_655 S
C641   C406    1.397   1_655 S
C642   C643    1.397   .     A
C643   C644    1.398   .     A
C643   H682    1.082   .     S
C644   H683    1.081   .     S
C645   C653    1.471   .     S
C645   C647    1.406   .     A
C645   C651    1.402   .     A
C646   I698    2.148   .     S
C646   N700    1.388   .     A
C647   H684    1.083   .     S
C647   C648    1.398   .     A
C648   H685    1.083   .     S
C648   C649    1.397   .     A
C649   C650    1.398   .     A
C649   H686    1.082   .     S
C650   C651    1.397   .     A
C650   H451    1.081   1_655 S
C651   H688    1.083   .     S
C652   C654    1.404   .     A
C652   N699    1.380   .     A
C653   N700    1.378   .     A
C654   H692    1.076   .     S
Cu655  O704    1.946   .     S
Cu655  O701    1.945   .     S
Cu655  O708    1.952   .     S
Cu655  O705    1.950   .     S
Cu655  Cu656   2.704   .     S
Cu655  N700    2.031   .     S
Cu656  O703    1.946   .     S
Cu656  O706    1.950   .     S
Cu656  O707    1.952   .     S
Cu656  N699    2.031   .     S
Cu656  O702    1.945   .     S
H657   C361    1.082   1_655 S
H681   C406    1.081   1_655 S
C709   O821    1.311   .     A
C709   C722    1.476   .     S
C709   O819    1.300   .     A
C710   C771    1.405   .     A
C710   C712    1.399   .     A
C710   H811    1.079   .     S
C711   C731    1.417   .     A
C711   C772    1.395   .     A
C712   C742    1.418   .     A
C712   C3      1.528   1_556 S
C713   O823    1.291   .     A
C713   C715    1.430   .     S
C713   O825    1.297   .     A
C714   C716    1.432   .     S
C714   O824    1.294   .     A
C714   O826    1.295   .     A
C715   C952    1.335   1_455 S
C715   H1011   1.082   1_455 S
C716   C833    1.335   .     S
C716   H904    1.087   .     S
C717   H797    1.084   .     S
C717   C728    1.394   .     A
C717   C719    1.389   .     A
C718   C729    1.398   .     A
C718   C721    1.387   .     A
C718   H807    1.083   .     S
C719   C722    1.417   .     A
C719   I813    2.131   .     S
C720   O822    1.297   .     A
C720   C723    1.446   .     S
C720   O820    1.298   .     A
C721   I814    2.118   .     S
C721   C723    1.401   .     A
C722   C724    1.403   .     A
C723   C725    1.400   .     A
C724   H808    1.074   .     S
C724   C726    1.396   .     A
C725   H809    1.083   .     S
C725   C727    1.396   .     A
C726   C728    1.410   .     A
C726   C730    1.487   .     S
C727   C729    1.411   .     A
C727   C737    1.481   .     S
C728   C1083   1.460   1_545 S
C729   C1082   1.460   .     S
C730   C732    1.405   .     A
C730   C1090   1.406   1_545 S
C731   C753    1.432   .     A
C731   C744    1.490   .     S
C732   C733    1.398   .     A
C732   H812    1.082   .     S
C733   H776    1.082   .     S
C733   C1088   1.397   1_545 S
C734   C735    1.397   .     A
C734   H777    1.082   .     S
C734   C1087   1.397   .     S
C735   H778    1.082   .     S
C735   C736    1.398   .     A
C736   H779    1.079   .     S
C736   C1084   1.406   .     S
C737   C738    1.404   .     A
C737   C1097   1.406   .     S
C738   C739    1.398   .     A
C738   H780    1.083   .     S
C739   C1212   1.398   .     S
C739   H899    1.082   .     S
C740   H782    1.081   .     S
C740   C741    1.396   .     A
C740   C1329   1.398   1_445 S
C741   H783    1.083   .     S
C741   C979    1.398   1_455 S
C742   C764    1.427   .     A
C742   C750    1.486   .     S
C743   H784    1.082   .     S
C743   C859    1.398   .     S
C743   C1091   1.406   1_545 S
C744   C745    1.405   .     A
C744   C749    1.409   .     A
C745   H785    1.082   .     S
C746   C37     1.397   1_556 S
C746   C865    1.396   .     S
C746   H905    1.080   .     S
C747   H788    1.083   .     S
C747   C982    1.396   1_455 S
C747   C276    1.397   1_456 S
C748   C749    1.399   .     A
C748   H789    1.082   .     S
C749   H790    1.083   .     S
C750   C756    1.408   .     A
C750   C751    1.404   .     A
C751   H791    1.082   .     S
C751   C44     1.396   1_556 S
C752   C754    1.397   .     A
C752   H792    1.080   .     S
C753   N817    1.391   .     A
C753   I815    2.144   .     S
C754   H793    1.082   .     S
C755   H794    1.082   .     S
C755   C756    1.399   .     A
C755   C46     1.398   1_556 S
C756   H795    1.082   .     S
C757   C762    1.400   .     A
C757   C758    1.405   .     A
C757   C770    1.471   .     S
C758   H796    1.083   .     S
C758   C995    1.400   1_455 S
C759   H798    1.083   .     S
C759   C876    1.400   .     S
C759   C878    1.397   .     S
C760   C761    1.397   .     A
C760   C995    1.397   1_455 S
C760   H1035   1.081   1_455 S
C761   C762    1.398   .     A
C761   H800    1.082   .     S
C762   H801    1.081   .     S
C763   C771    1.471   .     S
C763   C765    1.406   .     A
C763   C769    1.402   .     A
C764   I816    2.148   .     S
C764   N818    1.388   .     A
C765   H802    1.083   .     S
C765   C766    1.398   .     A
C766   H803    1.083   .     S
C766   C767    1.397   .     A
C767   C768    1.398   .     A
C767   H804    1.082   .     S
C768   C769    1.397   .     A
C768   H923    1.081   .     S
C769   H806    1.083   .     S
C770   C772    1.404   .     A
C770   N817    1.380   .     A
C771   N818    1.378   .     A
C772   H810    1.076   .     S
Cu773  O822    1.946   .     S
Cu773  O819    1.945   .     S
Cu773  O826    1.952   .     S
Cu773  O823    1.950   .     S
Cu773  Cu774   2.704   .     S
Cu773  N818    2.031   .     S
Cu774  O821    1.946   .     S
Cu774  O824    1.950   .     S
Cu774  O825    1.952   .     S
Cu774  N817    2.031   .     S
Cu774  O820    1.945   .     S
H775   C833    1.082   .     S
H781   C975    1.082   1_455 S
H786   C952    1.087   1_455 S
H787   C982    1.080   1_455 S
H799   C878    1.081   .     S
H805   C1004   1.081   1_455 S
C827   O939    1.311   .     A
C827   C840    1.476   .     S
C827   O937    1.300   .     A
C828   C889    1.405   .     A
C828   C830    1.399   .     A
C828   H929    1.079   .     S
C829   C849    1.417   .     A
C829   C890    1.395   .     A
C830   C860    1.418   .     A
C830   C121    1.528   1_556 S
C831   O941    1.291   .     A
C831   C833    1.430   .     S
C831   O943    1.297   .     A
C832   C834    1.432   .     S
C832   O942    1.294   .     A
C832   O944    1.295   .     A
C834   C951    1.335   .     S
C834   H1022   1.087   .     S
C835   H915    1.084   .     S
C835   C846    1.394   .     A
C835   C837    1.389   .     A
C836   C847    1.398   .     A
C836   C839    1.387   .     A
C836   H925    1.083   .     S
C837   C840    1.417   .     A
C837   I931    2.131   .     S
C838   O940    1.297   .     A
C838   C841    1.446   .     S
C838   O938    1.298   .     A
C839   I932    2.118   .     S
C839   C841    1.401   .     A
C840   C842    1.403   .     A
C841   C843    1.400   .     A
C842   H926    1.074   .     S
C842   C844    1.396   .     A
C843   H927    1.083   .     S
C843   C845    1.396   .     A
C844   C846    1.410   .     A
C844   C848    1.487   .     S
C845   C847    1.411   .     A
C845   C855    1.481   .     S
C846   C1201   1.460   1_545 S
C847   C1200   1.460   .     S
C848   C850    1.405   .     A
C848   C1208   1.406   1_545 S
C849   C871    1.432   .     A
C849   C862    1.490   .     S
C850   C851    1.398   .     A
C850   H930    1.082   .     S
C851   H894    1.082   .     S
C851   C1206   1.397   1_545 S
C852   C853    1.397   .     A
C852   H895    1.082   .     S
C852   C1205   1.397   .     S
C853   H896    1.082   .     S
C853   C854    1.398   .     A
C854   H897    1.079   .     S
C854   C1202   1.406   .     S
C855   C856    1.404   .     A
C855   C1215   1.406   .     S
C856   C857    1.398   .     A
C856   H898    1.083   .     S
C857   C1330   1.398   .     S
C857   H1017   1.082   .     S
C858   H900    1.081   .     S
C858   C859    1.396   .     A
C858   C1093   1.398   1_545 S
C859   H901    1.083   .     S
C860   C882    1.427   .     A
C860   C868    1.486   .     S
C861   H902    1.082   .     S
C861   C977    1.398   .     S
C861   C1209   1.406   1_545 S
C862   C863    1.405   .     A
C862   C867    1.409   .     A
C863   H903    1.082   .     S
C864   C155    1.397   1_556 S
C864   C983    1.396   .     S
C864   H1023   1.080   .     S
C865   H906    1.083   .     S
C865   C40     1.397   1_556 S
C866   C867    1.399   .     A
C866   H907    1.082   .     S
C867   H908    1.083   .     S
C868   C874    1.408   .     A
C868   C869    1.404   .     A
C869   H909    1.082   .     S
C869   C162    1.396   1_556 S
C870   C872    1.397   .     A
C870   H910    1.080   .     S
C871   N935    1.391   .     A
C871   I933    2.144   .     S
C872   H911    1.082   .     S
C873   H912    1.082   .     S
C873   C874    1.399   .     A
C873   C164    1.398   1_556 S
C874   H913    1.082   .     S
C875   C880    1.400   .     A
C875   C876    1.405   .     A
C875   C888    1.471   .     S
C876   H914    1.083   .     S
C877   H916    1.083   .     S
C877   C994    1.400   .     S
C877   C996    1.397   .     S
C878   C879    1.397   .     A
C879   C880    1.398   .     A
C879   H918    1.082   .     S
C880   H919    1.081   .     S
C881   C889    1.471   .     S
C881   C883    1.406   .     A
C881   C887    1.402   .     A
C882   I934    2.148   .     S
C882   N936    1.388   .     A
C883   H920    1.083   .     S
C883   C884    1.398   .     A
C884   H921    1.083   .     S
C884   C885    1.397   .     A
C885   C886    1.398   .     A
C885   H922    1.082   .     S
C886   C887    1.397   .     A
C886   H1041   1.081   .     S
C887   H924    1.083   .     S
C888   C890    1.404   .     A
C888   N935    1.380   .     A
C889   N936    1.378   .     A
C890   H928    1.076   .     S
Cu891  O940    1.946   .     S
Cu891  O937    1.945   .     S
Cu891  O944    1.952   .     S
Cu891  O941    1.950   .     S
Cu891  Cu892   2.704   .     S
Cu891  N936    2.031   .     S
Cu892  O939    1.946   .     S
Cu892  O942    1.950   .     S
Cu892  O943    1.952   .     S
Cu892  N935    2.031   .     S
Cu892  O938    1.945   .     S
H893   C951    1.082   .     S
H917   C996    1.081   .     S
C945   O1057   1.311   .     A
C945   C958    1.476   .     S
C945   O1055   1.300   .     A
C946   C1007   1.405   .     A
C946   C948    1.399   .     A
C946   H1047   1.079   .     S
C947   C967    1.417   .     A
C947   C1008   1.395   .     A
C948   C978    1.418   .     A
C948   C239    1.528   1_556 S
C949   O1059   1.291   .     A
C949   C951    1.430   .     S
C949   O1061   1.297   .     A
C950   C952    1.432   .     S
C950   O1060   1.294   .     A
C950   O1062   1.295   .     A
C952   C715    1.335   1_655 S
C952   H786    1.087   1_655 S
C953   H1033   1.084   .     S
C953   C964    1.394   .     A
C953   C955    1.389   .     A
C954   C965    1.398   .     A
C954   C957    1.387   .     A
C954   H1043   1.083   .     S
C955   C958    1.417   .     A
C955   I1049   2.131   .     S
C956   O1058   1.297   .     A
C956   C959    1.446   .     S
C956   O1056   1.298   .     A
C957   I1050   2.118   .     S
C957   C959    1.401   .     A
C958   C960    1.403   .     A
C959   C961    1.400   .     A
C960   H1044   1.074   .     S
C960   C962    1.396   .     A
C961   H1045   1.083   .     S
C961   C963    1.396   .     A
C962   C964    1.410   .     A
C962   C966    1.487   .     S
C963   C965    1.411   .     A
C963   C973    1.481   .     S
C964   C1319   1.460   1_545 S
C965   C1318   1.460   .     S
C966   C968    1.405   .     A
C966   C1326   1.406   1_545 S
C967   C989    1.432   .     A
C967   C980    1.490   .     S
C968   C969    1.398   .     A
C968   H1048   1.082   .     S
C969   H1012   1.082   .     S
C969   C1324   1.397   1_545 S
C970   C971    1.397   .     A
C970   H1013   1.082   .     S
C970   C1323   1.397   .     S
C971   H1014   1.082   .     S
C971   C972    1.398   .     A
C972   H1015   1.079   .     S
C972   C1320   1.406   .     S
C973   C974    1.404   .     A
C973   C1333   1.406   .     S
C974   C975    1.398   .     A
C974   H1016   1.083   .     S
C975   C1094   1.398   1_655 S
C975   H781    1.082   1_655 S
C976   H1018   1.081   .     S
C976   C977    1.396   .     A
C976   C1211   1.398   1_545 S
C977   H1019   1.083   .     S
C978   C1000   1.427   .     A
C978   C986    1.486   .     S
C979   H1020   1.082   .     S
C979   C741    1.398   1_655 S
C979   C1327   1.406   1_545 S
C980   C981    1.405   .     A
C980   C985    1.409   .     A
C981   H1021   1.082   .     S
C982   C273    1.397   1_556 S
C982   C747    1.396   1_655 S
C982   H787    1.080   1_655 S
C983   H1024   1.083   .     S
C983   C158    1.397   1_556 S
C984   C985    1.399   .     A
C984   H1025   1.082   .     S
C984   C39     1.397   1_655 S
C985   H1026   1.083   .     S
C986   C992    1.408   .     A
C986   C987    1.404   .     A
C987   H1027   1.082   .     S
C987   C280    1.396   1_556 S
C988   C990    1.397   .     A
C988   H1028   1.080   .     S
C989   N1053   1.391   .     A
C989   I1051   2.144   .     S
C990   H1029   1.082   .     S
C991   H1030   1.082   .     S
C991   C992    1.399   .     A
C991   C282    1.398   1_556 S
C992   H1031   1.082   .     S
C993   C998    1.400   .     A
C993   C994    1.405   .     A
C993   C1006   1.471   .     S
C994   H1032   1.083   .     S
C995   H1034   1.083   .     S
C995   C758    1.400   1_655 S
C995   C760    1.397   1_655 S
C996   C997    1.397   .     A
C997   C998    1.398   .     A
C997   H1036   1.082   .     S
C998   H1037   1.081   .     S
C999   C1007   1.471   .     S
C999   C1001   1.406   .     A
C999   C1005   1.402   .     A
C1000  I1052   2.148   .     S
C1000  N1054   1.388   .     A
C1001  H1038   1.083   .     S
C1001  C1002   1.398   .     A
C1002  H1039   1.083   .     S
C1002  C1003   1.397   .     A
C1003  C1004   1.398   .     A
C1003  H1040   1.082   .     S
C1004  C1005   1.397   .     A
C1004  H805    1.081   1_655 S
C1005  H1042   1.083   .     S
C1006  C1008   1.404   .     A
C1006  N1053   1.380   .     A
C1007  N1054   1.378   .     A
C1008  H1046   1.076   .     S
Cu1009 O1058   1.946   .     S
Cu1009 O1055   1.945   .     S
Cu1009 O1062   1.952   .     S
Cu1009 O1059   1.950   .     S
Cu1009 Cu1010  2.704   .     S
Cu1009 N1054   2.031   .     S
Cu1010 O1057   1.946   .     S
Cu1010 O1060   1.950   .     S
Cu1010 O1061   1.952   .     S
Cu1010 N1053   2.031   .     S
Cu1010 O1056   1.945   .     S
H1011  C715    1.082   1_655 S
H1035  C760    1.081   1_655 S
C1063  O1175   1.311   .     A
C1063  C1076   1.476   .     S
C1063  O1173   1.300   .     A
C1064  C1125   1.405   .     A
C1064  C1066   1.399   .     A
C1064  H1165   1.079   .     S
C1065  C1085   1.417   .     A
C1065  C1126   1.395   .     A
C1066  C1096   1.418   .     A
C1066  C357    1.528   1_556 S
C1067  O1177   1.291   .     A
C1067  C1069   1.430   .     S
C1067  O1179   1.297   .     A
C1068  C1070   1.432   .     S
C1068  O1178   1.294   .     A
C1068  O1180   1.295   .     A
C1069  C1306   1.335   1_455 S
C1069  H1365   1.082   1_455 S
C1070  C1187   1.335   .     S
C1070  H1258   1.087   .     S
C1071  H1151   1.084   .     S
C1071  C1082   1.394   .     A
C1071  C1073   1.389   .     A
C1072  C1083   1.398   .     A
C1072  C1075   1.387   .     A
C1072  H1161   1.083   .     S
C1073  C1076   1.417   .     A
C1073  I1167   2.131   .     S
C1074  O1176   1.297   .     A
C1074  C1077   1.446   .     S
C1074  O1174   1.298   .     A
C1075  I1168   2.118   .     S
C1075  C1077   1.401   .     A
C1076  C1078   1.403   .     A
C1077  C1079   1.400   .     A
C1078  H1162   1.074   .     S
C1078  C1080   1.396   .     A
C1079  H1163   1.083   .     S
C1079  C1081   1.396   .     A
C1080  C1082   1.410   .     A
C1080  C1084   1.487   .     S
C1081  C1083   1.411   .     A
C1081  C1091   1.481   .     S
C1083  C728    1.460   1_565 S
C1084  C1086   1.405   .     A
C1085  C1107   1.432   .     A
C1085  C1098   1.490   .     S
C1086  C1087   1.398   .     A
C1086  H1166   1.082   .     S
C1087  H1130   1.082   .     S
C1088  C1089   1.397   .     A
C1088  H1131   1.082   .     S
C1088  C733    1.397   1_565 S
C1089  H1132   1.082   .     S
C1089  C1090   1.398   .     A
C1090  H1133   1.079   .     S
C1090  C730    1.406   1_565 S
C1091  C1092   1.404   .     A
C1091  C743    1.406   1_565 S
C1092  C1093   1.398   .     A
C1092  H1134   1.083   .     S
C1093  C858    1.398   1_565 S
C1093  H1253   1.082   .     S
C1094  H1136   1.081   .     S
C1094  C1095   1.396   .     A
C1094  C975    1.398   1_455 S
C1095  H1137   1.083   .     S
C1095  C1333   1.398   1_455 S
C1096  C1118   1.427   .     A
C1096  C1104   1.486   .     S
C1097  H1138   1.082   .     S
C1097  C1213   1.398   .     S
C1098  C1099   1.405   .     A
C1098  C1103   1.409   .     A
C1099  H1139   1.082   .     S
C1100  C391    1.397   1_556 S
C1100  C1219   1.396   .     S
C1100  H1259   1.080   .     S
C1101  H1142   1.083   .     S
C1101  C1336   1.396   1_455 S
C1101  C630    1.397   1_456 S
C1102  C1103   1.399   .     A
C1102  H1143   1.082   .     S
C1103  H1144   1.083   .     S
C1104  C1110   1.408   .     A
C1104  C1105   1.404   .     A
C1105  H1145   1.082   .     S
C1105  C398    1.396   1_556 S
C1106  C1108   1.397   .     A
C1106  H1146   1.080   .     S
C1107  N1171   1.391   .     A
C1107  I1169   2.144   .     S
C1108  H1147   1.082   .     S
C1109  H1148   1.082   .     S
C1109  C1110   1.399   .     A
C1109  C400    1.398   1_556 S
C1110  H1149   1.082   .     S
C1111  C1116   1.400   .     A
C1111  C1112   1.405   .     A
C1111  C1124   1.471   .     S
C1112  H1150   1.083   .     S
C1112  C1349   1.400   1_455 S
C1113  H1152   1.083   .     S
C1113  C1230   1.400   .     S
C1113  C1232   1.397   .     S
C1114  C1115   1.397   .     A
C1114  C1349   1.397   1_455 S
C1114  H1389   1.081   1_455 S
C1115  C1116   1.398   .     A
C1115  H1154   1.082   .     S
C1116  H1155   1.081   .     S
C1117  C1125   1.471   .     S
C1117  C1119   1.406   .     A
C1117  C1123   1.402   .     A
C1118  I1170   2.148   .     S
C1118  N1172   1.388   .     A
C1119  H1156   1.083   .     S
C1119  C1120   1.398   .     A
C1120  H1157   1.083   .     S
C1120  C1121   1.397   .     A
C1121  C1122   1.398   .     A
C1121  H1158   1.082   .     S
C1122  C1123   1.397   .     A
C1122  H1277   1.081   .     S
C1123  H1160   1.083   .     S
C1124  C1126   1.404   .     A
C1124  N1171   1.380   .     A
C1125  N1172   1.378   .     A
C1126  H1164   1.076   .     S
Cu1127 O1176   1.946   .     S
Cu1127 O1173   1.945   .     S
Cu1127 O1180   1.952   .     S
Cu1127 O1177   1.950   .     S
Cu1127 Cu1128  2.704   .     S
Cu1127 N1172   2.031   .     S
Cu1128 O1175   1.946   .     S
Cu1128 O1178   1.950   .     S
Cu1128 O1179   1.952   .     S
Cu1128 N1171   2.031   .     S
Cu1128 O1174   1.945   .     S
H1129  C1187   1.082   .     S
H1135  C1329   1.082   1_455 S
H1140  C1306   1.087   1_455 S
H1141  C1336   1.080   1_455 S
H1153  C1232   1.081   .     S
H1159  C1358   1.081   1_455 S
C1181  O1293   1.311   .     A
C1181  C1194   1.476   .     S
C1181  O1291   1.300   .     A
C1182  C1243   1.405   .     A
C1182  C1184   1.399   .     A
C1182  H1283   1.079   .     S
C1183  C1203   1.417   .     A
C1183  C1244   1.395   .     A
C1184  C1214   1.418   .     A
C1184  C475    1.528   1_556 S
C1185  O1295   1.291   .     A
C1185  C1187   1.430   .     S
C1185  O1297   1.297   .     A
C1186  C1188   1.432   .     S
C1186  O1296   1.294   .     A
C1186  O1298   1.295   .     A
C1188  C1305   1.335   .     S
C1188  H1376   1.087   .     S
C1189  H1269   1.084   .     S
C1189  C1200   1.394   .     A
C1189  C1191   1.389   .     A
C1190  C1201   1.398   .     A
C1190  C1193   1.387   .     A
C1190  H1279   1.083   .     S
C1191  C1194   1.417   .     A
C1191  I1285   2.131   .     S
C1192  O1294   1.297   .     A
C1192  C1195   1.446   .     S
C1192  O1292   1.298   .     A
C1193  I1286   2.118   .     S
C1193  C1195   1.401   .     A
C1194  C1196   1.403   .     A
C1195  C1197   1.400   .     A
C1196  H1280   1.074   .     S
C1196  C1198   1.396   .     A
C1197  H1281   1.083   .     S
C1197  C1199   1.396   .     A
C1198  C1200   1.410   .     A
C1198  C1202   1.487   .     S
C1199  C1201   1.411   .     A
C1199  C1209   1.481   .     S
C1201  C846    1.460   1_565 S
C1202  C1204   1.405   .     A
C1203  C1225   1.432   .     A
C1203  C1216   1.490   .     S
C1204  C1205   1.398   .     A
C1204  H1284   1.082   .     S
C1205  H1248   1.082   .     S
C1206  C1207   1.397   .     A
C1206  H1249   1.082   .     S
C1206  C851    1.397   1_565 S
C1207  H1250   1.082   .     S
C1207  C1208   1.398   .     A
C1208  H1251   1.079   .     S
C1208  C848    1.406   1_565 S
C1209  C1210   1.404   .     A
C1209  C861    1.406   1_565 S
C1210  C1211   1.398   .     A
C1210  H1252   1.083   .     S
C1211  C976    1.398   1_565 S
C1211  H1371   1.082   .     S
C1212  H1254   1.081   .     S
C1212  C1213   1.396   .     A
C1213  H1255   1.083   .     S
C1214  C1236   1.427   .     A
C1214  C1222   1.486   .     S
C1215  H1256   1.082   .     S
C1215  C1331   1.398   .     S
C1216  C1217   1.405   .     A
C1216  C1221   1.409   .     A
C1217  H1257   1.082   .     S
C1218  C509    1.397   1_556 S
C1218  C1337   1.396   .     S
C1218  H1377   1.080   .     S
C1219  H1260   1.083   .     S
C1219  C394    1.397   1_556 S
C1220  C1221   1.399   .     A
C1220  H1261   1.082   .     S
C1221  H1262   1.083   .     S
C1222  C1228   1.408   .     A
C1222  C1223   1.404   .     A
C1223  H1263   1.082   .     S
C1223  C516    1.396   1_556 S
C1224  C1226   1.397   .     A
C1224  H1264   1.080   .     S
C1225  N1289   1.391   .     A
C1225  I1287   2.144   .     S
C1226  H1265   1.082   .     S
C1227  H1266   1.082   .     S
C1227  C1228   1.399   .     A
C1227  C518    1.398   1_556 S
C1228  H1267   1.082   .     S
C1229  C1234   1.400   .     A
C1229  C1230   1.405   .     A
C1229  C1242   1.471   .     S
C1230  H1268   1.083   .     S
C1231  H1270   1.083   .     S
C1231  C1348   1.400   .     S
C1231  C1350   1.397   .     S
C1232  C1233   1.397   .     A
C1233  C1234   1.398   .     A
C1233  H1272   1.082   .     S
C1234  H1273   1.081   .     S
C1235  C1243   1.471   .     S
C1235  C1237   1.406   .     A
C1235  C1241   1.402   .     A
C1236  I1288   2.148   .     S
C1236  N1290   1.388   .     A
C1237  H1274   1.083   .     S
C1237  C1238   1.398   .     A
C1238  H1275   1.083   .     S
C1238  C1239   1.397   .     A
C1239  C1240   1.398   .     A
C1239  H1276   1.082   .     S
C1240  C1241   1.397   .     A
C1240  H1395   1.081   .     S
C1241  H1278   1.083   .     S
C1242  C1244   1.404   .     A
C1242  N1289   1.380   .     A
C1243  N1290   1.378   .     A
C1244  H1282   1.076   .     S
Cu1245 O1294   1.946   .     S
Cu1245 O1291   1.945   .     S
Cu1245 O1298   1.952   .     S
Cu1245 O1295   1.950   .     S
Cu1245 Cu1246  2.704   .     S
Cu1245 N1290   2.031   .     S
Cu1246 O1293   1.946   .     S
Cu1246 O1296   1.950   .     S
Cu1246 O1297   1.952   .     S
Cu1246 N1289   2.031   .     S
Cu1246 O1292   1.945   .     S
H1247  C1305   1.082   .     S
H1271  C1350   1.081   .     S
C1299  O1411   1.311   .     A
C1299  C1312   1.476   .     S
C1299  O1409   1.300   .     A
C1300  C1361   1.405   .     A
C1300  C1302   1.399   .     A
C1300  H1401   1.079   .     S
C1301  C1321   1.417   .     A
C1301  C1362   1.395   .     A
C1302  C1332   1.418   .     A
C1302  C593    1.528   1_556 S
C1303  O1413   1.291   .     A
C1303  C1305   1.430   .     S
C1303  O1415   1.297   .     A
C1304  C1306   1.432   .     S
C1304  O1414   1.294   .     A
C1304  O1416   1.295   .     A
C1306  C1069   1.335   1_655 S
C1306  H1140   1.087   1_655 S
C1307  H1387   1.084   .     S
C1307  C1318   1.394   .     A
C1307  C1309   1.389   .     A
C1308  C1319   1.398   .     A
C1308  C1311   1.387   .     A
C1308  H1397   1.083   .     S
C1309  C1312   1.417   .     A
C1309  I1403   2.131   .     S
C1310  O1412   1.297   .     A
C1310  C1313   1.446   .     S
C1310  O1410   1.298   .     A
C1311  I1404   2.118   .     S
C1311  C1313   1.401   .     A
C1312  C1314   1.403   .     A
C1313  C1315   1.400   .     A
C1314  H1398   1.074   .     S
C1314  C1316   1.396   .     A
C1315  H1399   1.083   .     S
C1315  C1317   1.396   .     A
C1316  C1318   1.410   .     A
C1316  C1320   1.487   .     S
C1317  C1319   1.411   .     A
C1317  C1327   1.481   .     S
C1319  C964    1.460   1_565 S
C1320  C1322   1.405   .     A
C1321  C1343   1.432   .     A
C1321  C1334   1.490   .     S
C1322  C1323   1.398   .     A
C1322  H1402   1.082   .     S
C1323  H1366   1.082   .     S
C1324  C1325   1.397   .     A
C1324  H1367   1.082   .     S
C1324  C969    1.397   1_565 S
C1325  H1368   1.082   .     S
C1325  C1326   1.398   .     A
C1326  H1369   1.079   .     S
C1326  C966    1.406   1_565 S
C1327  C1328   1.404   .     A
C1327  C979    1.406   1_565 S
C1328  C1329   1.398   .     A
C1328  H1370   1.083   .     S
C1329  C740    1.398   1_665 S
C1329  H1135   1.082   1_655 S
C1330  H1372   1.081   .     S
C1330  C1331   1.396   .     A
C1331  H1373   1.083   .     S
C1332  C1354   1.427   .     A
C1332  C1340   1.486   .     S
C1333  H1374   1.082   .     S
C1333  C1095   1.398   1_655 S
C1334  C1335   1.405   .     A
C1334  C1339   1.409   .     A
C1335  H1375   1.082   .     S
C1336  C627    1.397   1_556 S
C1336  C1101   1.396   1_655 S
C1336  H1141   1.080   1_655 S
C1337  H1378   1.083   .     S
C1337  C512    1.397   1_556 S
C1338  C1339   1.399   .     A
C1338  H1379   1.082   .     S
C1338  C393    1.397   1_655 S
C1339  H1380   1.083   .     S
C1340  C1346   1.408   .     A
C1340  C1341   1.404   .     A
C1341  H1381   1.082   .     S
C1341  C634    1.396   1_556 S
C1342  C1344   1.397   .     A
C1342  H1382   1.080   .     S
C1343  N1407   1.391   .     A
C1343  I1405   2.144   .     S
C1344  H1383   1.082   .     S
C1345  H1384   1.082   .     S
C1345  C1346   1.399   .     A
C1345  C636    1.398   1_556 S
C1346  H1385   1.082   .     S
C1347  C1352   1.400   .     A
C1347  C1348   1.405   .     A
C1347  C1360   1.471   .     S
C1348  H1386   1.083   .     S
C1349  H1388   1.083   .     S
C1349  C1112   1.400   1_655 S
C1349  C1114   1.397   1_655 S
C1350  C1351   1.397   .     A
C1351  C1352   1.398   .     A
C1351  H1390   1.082   .     S
C1352  H1391   1.081   .     S
C1353  C1361   1.471   .     S
C1353  C1355   1.406   .     A
C1353  C1359   1.402   .     A
C1354  I1406   2.148   .     S
C1354  N1408   1.388   .     A
C1355  H1392   1.083   .     S
C1355  C1356   1.398   .     A
C1356  H1393   1.083   .     S
C1356  C1357   1.397   .     A
C1357  C1358   1.398   .     A
C1357  H1394   1.082   .     S
C1358  C1359   1.397   .     A
C1358  H1159   1.081   1_655 S
C1359  H1396   1.083   .     S
C1360  C1362   1.404   .     A
C1360  N1407   1.380   .     A
C1361  N1408   1.378   .     A
C1362  H1400   1.076   .     S
Cu1363 O1412   1.946   .     S
Cu1363 O1409   1.945   .     S
Cu1363 O1416   1.952   .     S
Cu1363 O1413   1.950   .     S
Cu1363 Cu1364  2.704   .     S
Cu1363 N1408   2.031   .     S
Cu1364 O1411   1.946   .     S
Cu1364 O1414   1.950   .     S
Cu1364 O1415   1.952   .     S
Cu1364 N1407   2.031   .     S
Cu1364 O1410   1.945   .     S
H1365  C1069   1.082   1_655 S
H1389  C1114   1.081   1_655 S
