data_str_m1_o10_o18_pcu_sym.80
_audit_creation_date              2020-01-03
_audit_creation_method            'Materials Studio'
_symmetry_space_group_name_H-M    'P1'
_symmetry_Int_Tables_number       1
_symmetry_cell_setting            triclinic
loop_
_symmetry_equiv_pos_as_xyz
  x,y,z
_cell_length_a                    32.5498
_cell_length_b                    32.5406
_cell_length_c                    35.5831
_cell_angle_alpha                 97.9583
_cell_angle_beta                  73.2100
_cell_angle_gamma                 98.5199
loop_
_atom_site_label
_atom_site_type_symbol
_atom_site_fract_x
_atom_site_fract_y
_atom_site_fract_z
_atom_site_U_iso_or_equiv
_atom_site_adp_type
_atom_site_occupancy
C1     C     0.05250   0.15985   0.25879   0.00000  Uiso   1.00
C2     C     0.20902   0.13695   0.45766   0.00000  Uiso   1.00
C3     C     0.22539   0.11369   0.47870   0.00000  Uiso   1.00
C4     C     0.28107   0.17356   0.24124   0.00000  Uiso   1.00
C5     C     0.21838   0.12309   0.01921   0.00000  Uiso   1.00
C6     C     0.19799   0.15891   0.03845   0.00000  Uiso   1.00
C7     C     0.23020   0.09620   0.04093   0.00000  Uiso   1.00
C8     C     0.22024   0.10343   0.08187   0.00000  Uiso   1.00
C9     C     0.18556   0.16370   0.07994   0.00000  Uiso   1.00
C10    C     0.32701   0.17626   0.23772   0.00000  Uiso   1.00
C11    C     0.00713   0.15736   0.26223   0.00000  Uiso   1.00
C12    C     0.12499   0.23750   0.41705   0.00000  Uiso   1.00
C13    C     0.18093   0.32215   0.23798   0.00000  Uiso   1.00
C14    C     0.15179   0.01207   0.26218   0.00000  Uiso   1.00
C15    C     0.15604   0.05607   0.25888   0.00000  Uiso   1.00
C16    C     0.17689   0.27767   0.24132   0.00000  Uiso   1.00
C17    C     0.18802   0.14551   0.14398   0.00000  Uiso   1.00
C18    C     0.14590   0.18799   0.35622   0.00000  Uiso   1.00
C19    C     0.14264   0.20096   0.39826   0.00000  Uiso   1.00
C20    C     0.19760   0.13697   0.10132   0.00000  Uiso   1.00
C21    C     0.12809   0.25257   0.45484   0.00000  Uiso   1.00
C22    C     0.16153   0.17866   0.41845   0.00000  Uiso   1.00
C23    C     0.16657   0.19394   0.45614   0.00000  Uiso   1.00
C24    C     0.14958   0.23176   0.47453   0.00000  Uiso   1.00
C25    C     0.18727   0.17214   0.47616   0.00000  Uiso   1.00
C26    C     0.18706   0.18637   0.01583   0.00000  Uiso   1.00
C27    C     0.17694   0.22760   0.03076   0.00000  Uiso   1.00
C28    C     0.15617   0.24906   0.01118   0.00000  Uiso   1.00
Cl29   Cl    0.13976   0.29863   0.03245   0.00000  Uiso   1.00
H30    H     0.24651   0.06923   0.02628   0.00000  Uiso   1.00
H31    H     0.11002   0.25523   0.40207   0.00000  Uiso   1.00
H32    H     0.17210   0.14930   0.40387   0.00000  Uiso   1.00
H33    H     0.21495   0.12704   0.42659   0.00000  Uiso   1.00
H34    H     0.01666   0.19368   0.21507   0.00000  Uiso   1.00
H35    H     0.31815   0.13985   0.28512   0.00000  Uiso   1.00
H36    H     0.20785   0.00274   0.21567   0.00000  Uiso   1.00
H37    H     0.12454   0.33223   0.28461   0.00000  Uiso   1.00
H38    H     0.16474   0.18688   0.09619   0.00000  Uiso   1.00
H39    H     0.22974   0.08268   0.09839   0.00000  Uiso   1.00
H40    H     0.24166   0.08688   0.46348   0.00000  Uiso   1.00
H41    H     0.11443   0.28127   0.46787   0.00000  Uiso   1.00
I42    I     0.20534   0.26411   0.07419   0.00000  Uiso   1.00
O43    O     0.16667   0.16667   0.25000   0.00000  Uiso   1.00
O44    O     0.15693   0.12393   0.16625   0.00000  Uiso   1.00
O45    O     0.12687   0.20646   0.33749   0.00000  Uiso   1.00
O46    O     0.21088   0.17493   0.15877   0.00000  Uiso   1.00
O47    O     0.17198   0.16135   0.33749   0.00000  Uiso   1.00
O48    O     0.17849   0.08101   0.27821   0.00000  Uiso   1.00
O49    O     0.14581   0.26136   0.26767   0.00000  Uiso   1.00
O50    O     0.07452   0.13251   0.23607   0.00000  Uiso   1.00
O51    O     0.26785   0.19179   0.21806   0.00000  Uiso   1.00
O52    O     0.06990   0.18960   0.27820   0.00000  Uiso   1.00
O53    O     0.25440   0.15277   0.26768   0.00000  Uiso   1.00
O54    O     0.13800   0.06903   0.23607   0.00000  Uiso   1.00
O55    O     0.20437   0.25527   0.21806   0.00000  Uiso   1.00
Zn56   Zn    0.19244   0.14090   0.28278   0.00000  Uiso   1.00
Zn57   Zn    0.13459   0.12378   0.22258   0.00000  Uiso   1.00
Zn58   Zn    0.21166   0.19664   0.21188   0.00000  Uiso   1.00
Zn59   Zn    0.12798   0.20535   0.28277   0.00000  Uiso   1.00
C60    C     0.38583   0.15985   0.25879   0.00000  Uiso   1.00
C61    C     0.54235   0.13695   0.45766   0.00000  Uiso   1.00
C62    C     0.55872   0.11369   0.47870   0.00000  Uiso   1.00
C63    C     0.61441   0.17356   0.24124   0.00000  Uiso   1.00
C64    C     0.55171   0.12309   0.01921   0.00000  Uiso   1.00
C65    C     0.53133   0.15891   0.03845   0.00000  Uiso   1.00
C66    C     0.56353   0.09620   0.04093   0.00000  Uiso   1.00
C67    C     0.55357   0.10343   0.08187   0.00000  Uiso   1.00
C68    C     0.51889   0.16370   0.07994   0.00000  Uiso   1.00
C69    C     0.66034   0.17626   0.23772   0.00000  Uiso   1.00
C70    C     0.34046   0.15736   0.26223   0.00000  Uiso   1.00
C71    C     0.45833   0.23750   0.41705   0.00000  Uiso   1.00
C72    C     0.51426   0.32215   0.23798   0.00000  Uiso   1.00
C73    C     0.48512   0.01207   0.26218   0.00000  Uiso   1.00
C74    C     0.48937   0.05607   0.25888   0.00000  Uiso   1.00
C75    C     0.51022   0.27767   0.24132   0.00000  Uiso   1.00
C76    C     0.52135   0.14551   0.14398   0.00000  Uiso   1.00
C77    C     0.47924   0.18799   0.35622   0.00000  Uiso   1.00
C78    C     0.47597   0.20096   0.39826   0.00000  Uiso   1.00
C79    C     0.53093   0.13697   0.10132   0.00000  Uiso   1.00
C80    C     0.46142   0.25257   0.45484   0.00000  Uiso   1.00
C81    C     0.49486   0.17866   0.41845   0.00000  Uiso   1.00
C82    C     0.49991   0.19394   0.45614   0.00000  Uiso   1.00
C83    C     0.48292   0.23176   0.47453   0.00000  Uiso   1.00
C84    C     0.52061   0.17214   0.47616   0.00000  Uiso   1.00
C85    C     0.52040   0.18637   0.01583   0.00000  Uiso   1.00
C86    C     0.51028   0.22760   0.03076   0.00000  Uiso   1.00
C87    C     0.48951   0.24906   0.01118   0.00000  Uiso   1.00
Cl88   Cl    0.47310   0.29863   0.03245   0.00000  Uiso   1.00
H89    H     0.57984   0.06923   0.02628   0.00000  Uiso   1.00
H90    H     0.44336   0.25523   0.40207   0.00000  Uiso   1.00
H91    H     0.50543   0.14930   0.40387   0.00000  Uiso   1.00
H92    H     0.54829   0.12704   0.42659   0.00000  Uiso   1.00
H93    H     0.34999   0.19368   0.21507   0.00000  Uiso   1.00
H94    H     0.65148   0.13985   0.28512   0.00000  Uiso   1.00
H95    H     0.54118   0.00274   0.21567   0.00000  Uiso   1.00
H96    H     0.45787   0.33223   0.28461   0.00000  Uiso   1.00
H97    H     0.49808   0.18688   0.09619   0.00000  Uiso   1.00
H98    H     0.56307   0.08268   0.09839   0.00000  Uiso   1.00
H99    H     0.57499   0.08688   0.46348   0.00000  Uiso   1.00
H100   H     0.44777   0.28127   0.46787   0.00000  Uiso   1.00
I101   I     0.53867   0.26411   0.07419   0.00000  Uiso   1.00
O102   O     0.50000   0.16667   0.25000   0.00000  Uiso   1.00
O103   O     0.49027   0.12393   0.16625   0.00000  Uiso   1.00
O104   O     0.46020   0.20646   0.33749   0.00000  Uiso   1.00
O105   O     0.54421   0.17493   0.15877   0.00000  Uiso   1.00
O106   O     0.50532   0.16135   0.33749   0.00000  Uiso   1.00
O107   O     0.51182   0.08101   0.27821   0.00000  Uiso   1.00
O108   O     0.47914   0.26136   0.26767   0.00000  Uiso   1.00
O109   O     0.40785   0.13251   0.23607   0.00000  Uiso   1.00
O110   O     0.60119   0.19179   0.21806   0.00000  Uiso   1.00
O111   O     0.40323   0.18960   0.27820   0.00000  Uiso   1.00
O112   O     0.58773   0.15277   0.26768   0.00000  Uiso   1.00
O113   O     0.47133   0.06903   0.23607   0.00000  Uiso   1.00
O114   O     0.53771   0.25527   0.21806   0.00000  Uiso   1.00
Zn115  Zn    0.52577   0.14090   0.28278   0.00000  Uiso   1.00
Zn116  Zn    0.46792   0.12378   0.22258   0.00000  Uiso   1.00
Zn117  Zn    0.54500   0.19664   0.21188   0.00000  Uiso   1.00
Zn118  Zn    0.46131   0.20535   0.28277   0.00000  Uiso   1.00
C119   C     0.71916   0.15985   0.25879   0.00000  Uiso   1.00
C120   C     0.87569   0.13695   0.45766   0.00000  Uiso   1.00
C121   C     0.89206   0.11369   0.47870   0.00000  Uiso   1.00
C122   C     0.94774   0.17356   0.24124   0.00000  Uiso   1.00
C123   C     0.88504   0.12309   0.01921   0.00000  Uiso   1.00
C124   C     0.86466   0.15891   0.03845   0.00000  Uiso   1.00
C125   C     0.89686   0.09620   0.04093   0.00000  Uiso   1.00
C126   C     0.88691   0.10343   0.08187   0.00000  Uiso   1.00
C127   C     0.85223   0.16370   0.07994   0.00000  Uiso   1.00
C128   C     0.99367   0.17626   0.23772   0.00000  Uiso   1.00
C129   C     0.67380   0.15736   0.26223   0.00000  Uiso   1.00
C130   C     0.79166   0.23750   0.41705   0.00000  Uiso   1.00
C131   C     0.84760   0.32215   0.23798   0.00000  Uiso   1.00
C132   C     0.81845   0.01207   0.26218   0.00000  Uiso   1.00
C133   C     0.82270   0.05607   0.25888   0.00000  Uiso   1.00
C134   C     0.84356   0.27767   0.24132   0.00000  Uiso   1.00
C135   C     0.85468   0.14551   0.14398   0.00000  Uiso   1.00
C136   C     0.81257   0.18799   0.35622   0.00000  Uiso   1.00
C137   C     0.80930   0.20096   0.39826   0.00000  Uiso   1.00
C138   C     0.86426   0.13697   0.10132   0.00000  Uiso   1.00
C139   C     0.79476   0.25257   0.45484   0.00000  Uiso   1.00
C140   C     0.82819   0.17866   0.41845   0.00000  Uiso   1.00
C141   C     0.83324   0.19394   0.45614   0.00000  Uiso   1.00
C142   C     0.81625   0.23176   0.47453   0.00000  Uiso   1.00
C143   C     0.85394   0.17214   0.47616   0.00000  Uiso   1.00
C144   C     0.85373   0.18637   0.01583   0.00000  Uiso   1.00
C145   C     0.84361   0.22760   0.03076   0.00000  Uiso   1.00
C146   C     0.82284   0.24906   0.01118   0.00000  Uiso   1.00
Cl147  Cl    0.80643   0.29863   0.03245   0.00000  Uiso   1.00
H148   H     0.91317   0.06923   0.02628   0.00000  Uiso   1.00
H149   H     0.77669   0.25523   0.40207   0.00000  Uiso   1.00
H150   H     0.83876   0.14930   0.40387   0.00000  Uiso   1.00
H151   H     0.88162   0.12704   0.42659   0.00000  Uiso   1.00
H152   H     0.68332   0.19368   0.21507   0.00000  Uiso   1.00
H153   H     0.98482   0.13985   0.28512   0.00000  Uiso   1.00
H154   H     0.87451   0.00274   0.21567   0.00000  Uiso   1.00
H155   H     0.79121   0.33223   0.28461   0.00000  Uiso   1.00
H156   H     0.83141   0.18688   0.09619   0.00000  Uiso   1.00
H157   H     0.89640   0.08268   0.09839   0.00000  Uiso   1.00
H158   H     0.90832   0.08688   0.46348   0.00000  Uiso   1.00
H159   H     0.78110   0.28127   0.46787   0.00000  Uiso   1.00
I160   I     0.87200   0.26411   0.07419   0.00000  Uiso   1.00
O161   O     0.83333   0.16667   0.25000   0.00000  Uiso   1.00
O162   O     0.82360   0.12393   0.16625   0.00000  Uiso   1.00
O163   O     0.79354   0.20646   0.33749   0.00000  Uiso   1.00
O164   O     0.87755   0.17493   0.15877   0.00000  Uiso   1.00
O165   O     0.83865   0.16135   0.33749   0.00000  Uiso   1.00
O166   O     0.84515   0.08101   0.27821   0.00000  Uiso   1.00
O167   O     0.81247   0.26136   0.26767   0.00000  Uiso   1.00
O168   O     0.74119   0.13251   0.23607   0.00000  Uiso   1.00
O169   O     0.93452   0.19179   0.21806   0.00000  Uiso   1.00
O170   O     0.73656   0.18960   0.27820   0.00000  Uiso   1.00
O171   O     0.92106   0.15277   0.26768   0.00000  Uiso   1.00
O172   O     0.80467   0.06903   0.23607   0.00000  Uiso   1.00
O173   O     0.87104   0.25527   0.21806   0.00000  Uiso   1.00
Zn174  Zn    0.85910   0.14090   0.28278   0.00000  Uiso   1.00
Zn175  Zn    0.80125   0.12378   0.22258   0.00000  Uiso   1.00
Zn176  Zn    0.87833   0.19664   0.21188   0.00000  Uiso   1.00
Zn177  Zn    0.79465   0.20535   0.28277   0.00000  Uiso   1.00
C178   C     0.05250   0.49318   0.25879   0.00000  Uiso   1.00
C179   C     0.20902   0.47029   0.45766   0.00000  Uiso   1.00
C180   C     0.22539   0.44703   0.47870   0.00000  Uiso   1.00
C181   C     0.28107   0.50690   0.24124   0.00000  Uiso   1.00
C182   C     0.21838   0.45642   0.01921   0.00000  Uiso   1.00
C183   C     0.19799   0.49225   0.03845   0.00000  Uiso   1.00
C184   C     0.23020   0.42953   0.04093   0.00000  Uiso   1.00
C185   C     0.22024   0.43676   0.08187   0.00000  Uiso   1.00
C186   C     0.18556   0.49703   0.07994   0.00000  Uiso   1.00
C187   C     0.32701   0.50959   0.23772   0.00000  Uiso   1.00
C188   C     0.00713   0.49070   0.26223   0.00000  Uiso   1.00
C189   C     0.12499   0.57083   0.41705   0.00000  Uiso   1.00
C190   C     0.18093   0.65548   0.23798   0.00000  Uiso   1.00
C191   C     0.15179   0.34540   0.26218   0.00000  Uiso   1.00
C192   C     0.15604   0.38941   0.25888   0.00000  Uiso   1.00
C193   C     0.17689   0.61100   0.24132   0.00000  Uiso   1.00
C194   C     0.18802   0.47884   0.14398   0.00000  Uiso   1.00
C195   C     0.14590   0.52132   0.35622   0.00000  Uiso   1.00
C196   C     0.14264   0.53430   0.39826   0.00000  Uiso   1.00
C197   C     0.19760   0.47031   0.10132   0.00000  Uiso   1.00
C198   C     0.12809   0.58590   0.45484   0.00000  Uiso   1.00
C199   C     0.16153   0.51199   0.41845   0.00000  Uiso   1.00
C200   C     0.16657   0.52727   0.45614   0.00000  Uiso   1.00
C201   C     0.14958   0.56510   0.47453   0.00000  Uiso   1.00
C202   C     0.18727   0.50548   0.47616   0.00000  Uiso   1.00
C203   C     0.18706   0.51971   0.01583   0.00000  Uiso   1.00
C204   C     0.17694   0.56093   0.03076   0.00000  Uiso   1.00
C205   C     0.15617   0.58240   0.01118   0.00000  Uiso   1.00
Cl206  Cl    0.13976   0.63197   0.03245   0.00000  Uiso   1.00
H207   H     0.24651   0.40257   0.02628   0.00000  Uiso   1.00
H208   H     0.11002   0.58857   0.40207   0.00000  Uiso   1.00
H209   H     0.17210   0.48263   0.40387   0.00000  Uiso   1.00
H210   H     0.21495   0.46037   0.42659   0.00000  Uiso   1.00
H211   H     0.01666   0.52701   0.21507   0.00000  Uiso   1.00
H212   H     0.31815   0.47319   0.28512   0.00000  Uiso   1.00
H213   H     0.20785   0.33608   0.21567   0.00000  Uiso   1.00
H214   H     0.12454   0.66556   0.28461   0.00000  Uiso   1.00
H215   H     0.16474   0.52021   0.09619   0.00000  Uiso   1.00
H216   H     0.22974   0.41602   0.09839   0.00000  Uiso   1.00
H217   H     0.24166   0.42021   0.46348   0.00000  Uiso   1.00
H218   H     0.11443   0.61461   0.46787   0.00000  Uiso   1.00
I219   I     0.20534   0.59745   0.07419   0.00000  Uiso   1.00
O220   O     0.16667   0.50000   0.25000   0.00000  Uiso   1.00
O221   O     0.15693   0.45726   0.16625   0.00000  Uiso   1.00
O222   O     0.12687   0.53979   0.33749   0.00000  Uiso   1.00
O223   O     0.21088   0.50826   0.15877   0.00000  Uiso   1.00
O224   O     0.17198   0.49468   0.33749   0.00000  Uiso   1.00
O225   O     0.17849   0.41434   0.27821   0.00000  Uiso   1.00
O226   O     0.14581   0.59469   0.26767   0.00000  Uiso   1.00
O227   O     0.07452   0.46584   0.23607   0.00000  Uiso   1.00
O228   O     0.26785   0.52512   0.21806   0.00000  Uiso   1.00
O229   O     0.06990   0.52293   0.27820   0.00000  Uiso   1.00
O230   O     0.25440   0.48610   0.26768   0.00000  Uiso   1.00
O231   O     0.13800   0.40236   0.23607   0.00000  Uiso   1.00
O232   O     0.20437   0.58860   0.21806   0.00000  Uiso   1.00
Zn233  Zn    0.19244   0.47423   0.28278   0.00000  Uiso   1.00
Zn234  Zn    0.13459   0.45711   0.22258   0.00000  Uiso   1.00
Zn235  Zn    0.21166   0.52997   0.21188   0.00000  Uiso   1.00
Zn236  Zn    0.12798   0.53868   0.28277   0.00000  Uiso   1.00
C237   C     0.38583   0.49318   0.25879   0.00000  Uiso   1.00
C238   C     0.54235   0.47029   0.45766   0.00000  Uiso   1.00
C239   C     0.55872   0.44703   0.47870   0.00000  Uiso   1.00
C240   C     0.61441   0.50690   0.24124   0.00000  Uiso   1.00
C241   C     0.55171   0.45642   0.01921   0.00000  Uiso   1.00
C242   C     0.53133   0.49225   0.03845   0.00000  Uiso   1.00
C243   C     0.56353   0.42953   0.04093   0.00000  Uiso   1.00
C244   C     0.55357   0.43676   0.08187   0.00000  Uiso   1.00
C245   C     0.51889   0.49703   0.07994   0.00000  Uiso   1.00
C246   C     0.66034   0.50959   0.23772   0.00000  Uiso   1.00
C247   C     0.34046   0.49070   0.26223   0.00000  Uiso   1.00
C248   C     0.45833   0.57083   0.41705   0.00000  Uiso   1.00
C249   C     0.51426   0.65548   0.23798   0.00000  Uiso   1.00
C250   C     0.48512   0.34540   0.26218   0.00000  Uiso   1.00
C251   C     0.48937   0.38941   0.25888   0.00000  Uiso   1.00
C252   C     0.51022   0.61100   0.24132   0.00000  Uiso   1.00
C253   C     0.52135   0.47884   0.14398   0.00000  Uiso   1.00
C254   C     0.47924   0.52132   0.35622   0.00000  Uiso   1.00
C255   C     0.47597   0.53430   0.39826   0.00000  Uiso   1.00
C256   C     0.53093   0.47031   0.10132   0.00000  Uiso   1.00
C257   C     0.46142   0.58590   0.45484   0.00000  Uiso   1.00
C258   C     0.49486   0.51199   0.41845   0.00000  Uiso   1.00
C259   C     0.49991   0.52727   0.45614   0.00000  Uiso   1.00
C260   C     0.48292   0.56510   0.47453   0.00000  Uiso   1.00
C261   C     0.52061   0.50548   0.47616   0.00000  Uiso   1.00
C262   C     0.52040   0.51971   0.01583   0.00000  Uiso   1.00
C263   C     0.51028   0.56093   0.03076   0.00000  Uiso   1.00
C264   C     0.48951   0.58240   0.01118   0.00000  Uiso   1.00
Cl265  Cl    0.47310   0.63197   0.03245   0.00000  Uiso   1.00
H266   H     0.57984   0.40257   0.02628   0.00000  Uiso   1.00
H267   H     0.44336   0.58857   0.40207   0.00000  Uiso   1.00
H268   H     0.50543   0.48263   0.40387   0.00000  Uiso   1.00
H269   H     0.54829   0.46037   0.42659   0.00000  Uiso   1.00
H270   H     0.34999   0.52701   0.21507   0.00000  Uiso   1.00
H271   H     0.65148   0.47319   0.28512   0.00000  Uiso   1.00
H272   H     0.54118   0.33608   0.21567   0.00000  Uiso   1.00
H273   H     0.45787   0.66556   0.28461   0.00000  Uiso   1.00
H274   H     0.49808   0.52021   0.09619   0.00000  Uiso   1.00
H275   H     0.56307   0.41602   0.09839   0.00000  Uiso   1.00
H276   H     0.57499   0.42021   0.46348   0.00000  Uiso   1.00
H277   H     0.44777   0.61461   0.46787   0.00000  Uiso   1.00
I278   I     0.53867   0.59745   0.07419   0.00000  Uiso   1.00
O279   O     0.50000   0.50000   0.25000   0.00000  Uiso   1.00
O280   O     0.49027   0.45726   0.16625   0.00000  Uiso   1.00
O281   O     0.46020   0.53979   0.33749   0.00000  Uiso   1.00
O282   O     0.54421   0.50826   0.15877   0.00000  Uiso   1.00
O283   O     0.50532   0.49468   0.33749   0.00000  Uiso   1.00
O284   O     0.51182   0.41434   0.27821   0.00000  Uiso   1.00
O285   O     0.47914   0.59469   0.26767   0.00000  Uiso   1.00
O286   O     0.40785   0.46584   0.23607   0.00000  Uiso   1.00
O287   O     0.60119   0.52512   0.21806   0.00000  Uiso   1.00
O288   O     0.40323   0.52293   0.27820   0.00000  Uiso   1.00
O289   O     0.58773   0.48610   0.26768   0.00000  Uiso   1.00
O290   O     0.47133   0.40236   0.23607   0.00000  Uiso   1.00
O291   O     0.53771   0.58860   0.21806   0.00000  Uiso   1.00
Zn292  Zn    0.52577   0.47423   0.28278   0.00000  Uiso   1.00
Zn293  Zn    0.46792   0.45711   0.22258   0.00000  Uiso   1.00
Zn294  Zn    0.54500   0.52997   0.21188   0.00000  Uiso   1.00
Zn295  Zn    0.46131   0.53868   0.28277   0.00000  Uiso   1.00
C296   C     0.71916   0.49318   0.25879   0.00000  Uiso   1.00
C297   C     0.87569   0.47029   0.45766   0.00000  Uiso   1.00
C298   C     0.89206   0.44703   0.47870   0.00000  Uiso   1.00
C299   C     0.94774   0.50690   0.24124   0.00000  Uiso   1.00
C300   C     0.88504   0.45642   0.01921   0.00000  Uiso   1.00
C301   C     0.86466   0.49225   0.03845   0.00000  Uiso   1.00
C302   C     0.89686   0.42953   0.04093   0.00000  Uiso   1.00
C303   C     0.88691   0.43676   0.08187   0.00000  Uiso   1.00
C304   C     0.85223   0.49703   0.07994   0.00000  Uiso   1.00
C305   C     0.99367   0.50959   0.23772   0.00000  Uiso   1.00
C306   C     0.67380   0.49070   0.26223   0.00000  Uiso   1.00
C307   C     0.79166   0.57083   0.41705   0.00000  Uiso   1.00
C308   C     0.84760   0.65548   0.23798   0.00000  Uiso   1.00
C309   C     0.81845   0.34540   0.26218   0.00000  Uiso   1.00
C310   C     0.82270   0.38941   0.25888   0.00000  Uiso   1.00
C311   C     0.84356   0.61100   0.24132   0.00000  Uiso   1.00
C312   C     0.85468   0.47884   0.14398   0.00000  Uiso   1.00
C313   C     0.81257   0.52132   0.35622   0.00000  Uiso   1.00
C314   C     0.80930   0.53430   0.39826   0.00000  Uiso   1.00
C315   C     0.86426   0.47031   0.10132   0.00000  Uiso   1.00
C316   C     0.79476   0.58590   0.45484   0.00000  Uiso   1.00
C317   C     0.82819   0.51199   0.41845   0.00000  Uiso   1.00
C318   C     0.83324   0.52727   0.45614   0.00000  Uiso   1.00
C319   C     0.81625   0.56510   0.47453   0.00000  Uiso   1.00
C320   C     0.85394   0.50548   0.47616   0.00000  Uiso   1.00
C321   C     0.85373   0.51971   0.01583   0.00000  Uiso   1.00
C322   C     0.84361   0.56093   0.03076   0.00000  Uiso   1.00
C323   C     0.82284   0.58240   0.01118   0.00000  Uiso   1.00
Cl324  Cl    0.80643   0.63197   0.03245   0.00000  Uiso   1.00
H325   H     0.91317   0.40257   0.02628   0.00000  Uiso   1.00
H326   H     0.77669   0.58857   0.40207   0.00000  Uiso   1.00
H327   H     0.83876   0.48263   0.40387   0.00000  Uiso   1.00
H328   H     0.88162   0.46037   0.42659   0.00000  Uiso   1.00
H329   H     0.68332   0.52701   0.21507   0.00000  Uiso   1.00
H330   H     0.98482   0.47319   0.28512   0.00000  Uiso   1.00
H331   H     0.87451   0.33608   0.21567   0.00000  Uiso   1.00
H332   H     0.79121   0.66556   0.28461   0.00000  Uiso   1.00
H333   H     0.83141   0.52021   0.09619   0.00000  Uiso   1.00
H334   H     0.89640   0.41602   0.09839   0.00000  Uiso   1.00
H335   H     0.90832   0.42021   0.46348   0.00000  Uiso   1.00
H336   H     0.78110   0.61461   0.46787   0.00000  Uiso   1.00
I337   I     0.87200   0.59745   0.07419   0.00000  Uiso   1.00
O338   O     0.83333   0.50000   0.25000   0.00000  Uiso   1.00
O339   O     0.82360   0.45726   0.16625   0.00000  Uiso   1.00
O340   O     0.79354   0.53979   0.33749   0.00000  Uiso   1.00
O341   O     0.87755   0.50826   0.15877   0.00000  Uiso   1.00
O342   O     0.83865   0.49468   0.33749   0.00000  Uiso   1.00
O343   O     0.84515   0.41434   0.27821   0.00000  Uiso   1.00
O344   O     0.81247   0.59469   0.26767   0.00000  Uiso   1.00
O345   O     0.74119   0.46584   0.23607   0.00000  Uiso   1.00
O346   O     0.93452   0.52512   0.21806   0.00000  Uiso   1.00
O347   O     0.73656   0.52293   0.27820   0.00000  Uiso   1.00
O348   O     0.92106   0.48610   0.26768   0.00000  Uiso   1.00
O349   O     0.80467   0.40236   0.23607   0.00000  Uiso   1.00
O350   O     0.87104   0.58860   0.21806   0.00000  Uiso   1.00
Zn351  Zn    0.85910   0.47423   0.28278   0.00000  Uiso   1.00
Zn352  Zn    0.80125   0.45711   0.22258   0.00000  Uiso   1.00
Zn353  Zn    0.87833   0.52997   0.21188   0.00000  Uiso   1.00
Zn354  Zn    0.79465   0.53868   0.28277   0.00000  Uiso   1.00
C355   C     0.05250   0.82651   0.25879   0.00000  Uiso   1.00
C356   C     0.20902   0.80362   0.45766   0.00000  Uiso   1.00
C357   C     0.22539   0.78036   0.47870   0.00000  Uiso   1.00
C358   C     0.28107   0.84023   0.24124   0.00000  Uiso   1.00
C359   C     0.21838   0.78976   0.01921   0.00000  Uiso   1.00
C360   C     0.19799   0.82558   0.03845   0.00000  Uiso   1.00
C361   C     0.23020   0.76286   0.04093   0.00000  Uiso   1.00
C362   C     0.22024   0.77010   0.08187   0.00000  Uiso   1.00
C363   C     0.18556   0.83037   0.07994   0.00000  Uiso   1.00
C364   C     0.32701   0.84293   0.23772   0.00000  Uiso   1.00
C365   C     0.00713   0.82403   0.26223   0.00000  Uiso   1.00
C366   C     0.12499   0.90416   0.41705   0.00000  Uiso   1.00
C367   C     0.18093   0.98881   0.23798   0.00000  Uiso   1.00
C368   C     0.15179   0.67873   0.26218   0.00000  Uiso   1.00
C369   C     0.15604   0.72274   0.25888   0.00000  Uiso   1.00
C370   C     0.17689   0.94434   0.24132   0.00000  Uiso   1.00
C371   C     0.18802   0.81217   0.14398   0.00000  Uiso   1.00
C372   C     0.14590   0.85466   0.35622   0.00000  Uiso   1.00
C373   C     0.14264   0.86763   0.39826   0.00000  Uiso   1.00
C374   C     0.19760   0.80364   0.10132   0.00000  Uiso   1.00
C375   C     0.12809   0.91924   0.45484   0.00000  Uiso   1.00
C376   C     0.16153   0.84532   0.41845   0.00000  Uiso   1.00
C377   C     0.16657   0.86061   0.45614   0.00000  Uiso   1.00
C378   C     0.14958   0.89843   0.47453   0.00000  Uiso   1.00
C379   C     0.18727   0.83881   0.47616   0.00000  Uiso   1.00
C380   C     0.18706   0.85304   0.01583   0.00000  Uiso   1.00
C381   C     0.17694   0.89426   0.03076   0.00000  Uiso   1.00
C382   C     0.15617   0.91573   0.01118   0.00000  Uiso   1.00
Cl383  Cl    0.13976   0.96530   0.03245   0.00000  Uiso   1.00
H384   H     0.24651   0.73590   0.02628   0.00000  Uiso   1.00
H385   H     0.11002   0.92190   0.40207   0.00000  Uiso   1.00
H386   H     0.17210   0.81596   0.40387   0.00000  Uiso   1.00
H387   H     0.21495   0.79370   0.42659   0.00000  Uiso   1.00
H388   H     0.01666   0.86034   0.21507   0.00000  Uiso   1.00
H389   H     0.31815   0.80652   0.28512   0.00000  Uiso   1.00
H390   H     0.20785   0.66941   0.21567   0.00000  Uiso   1.00
H391   H     0.12454   0.99890   0.28461   0.00000  Uiso   1.00
H392   H     0.16474   0.85355   0.09619   0.00000  Uiso   1.00
H393   H     0.22974   0.74935   0.09839   0.00000  Uiso   1.00
H394   H     0.24166   0.75354   0.46348   0.00000  Uiso   1.00
H395   H     0.11443   0.94794   0.46787   0.00000  Uiso   1.00
I396   I     0.20534   0.93078   0.07419   0.00000  Uiso   1.00
O397   O     0.16667   0.83333   0.25000   0.00000  Uiso   1.00
O398   O     0.15693   0.79060   0.16625   0.00000  Uiso   1.00
O399   O     0.12687   0.87313   0.33749   0.00000  Uiso   1.00
O400   O     0.21088   0.84159   0.15877   0.00000  Uiso   1.00
O401   O     0.17198   0.82802   0.33749   0.00000  Uiso   1.00
O402   O     0.17849   0.74768   0.27821   0.00000  Uiso   1.00
O403   O     0.14581   0.92803   0.26767   0.00000  Uiso   1.00
O404   O     0.07452   0.79917   0.23607   0.00000  Uiso   1.00
O405   O     0.26785   0.85845   0.21806   0.00000  Uiso   1.00
O406   O     0.06990   0.85627   0.27820   0.00000  Uiso   1.00
O407   O     0.25440   0.81944   0.26768   0.00000  Uiso   1.00
O408   O     0.13800   0.73570   0.23607   0.00000  Uiso   1.00
O409   O     0.20437   0.92193   0.21806   0.00000  Uiso   1.00
Zn410  Zn    0.19244   0.80756   0.28278   0.00000  Uiso   1.00
Zn411  Zn    0.13459   0.79044   0.22258   0.00000  Uiso   1.00
Zn412  Zn    0.21166   0.86331   0.21188   0.00000  Uiso   1.00
Zn413  Zn    0.12798   0.87202   0.28277   0.00000  Uiso   1.00
C414   C     0.38583   0.82651   0.25879   0.00000  Uiso   1.00
C415   C     0.54235   0.80362   0.45766   0.00000  Uiso   1.00
C416   C     0.55872   0.78036   0.47870   0.00000  Uiso   1.00
C417   C     0.61441   0.84023   0.24124   0.00000  Uiso   1.00
C418   C     0.55171   0.78976   0.01921   0.00000  Uiso   1.00
C419   C     0.53133   0.82558   0.03845   0.00000  Uiso   1.00
C420   C     0.56353   0.76286   0.04093   0.00000  Uiso   1.00
C421   C     0.55357   0.77010   0.08187   0.00000  Uiso   1.00
C422   C     0.51889   0.83037   0.07994   0.00000  Uiso   1.00
C423   C     0.66034   0.84293   0.23772   0.00000  Uiso   1.00
C424   C     0.34046   0.82403   0.26223   0.00000  Uiso   1.00
C425   C     0.45833   0.90416   0.41705   0.00000  Uiso   1.00
C426   C     0.51426   0.98881   0.23798   0.00000  Uiso   1.00
C427   C     0.48512   0.67873   0.26218   0.00000  Uiso   1.00
C428   C     0.48937   0.72274   0.25888   0.00000  Uiso   1.00
C429   C     0.51022   0.94434   0.24132   0.00000  Uiso   1.00
C430   C     0.52135   0.81217   0.14398   0.00000  Uiso   1.00
C431   C     0.47924   0.85466   0.35622   0.00000  Uiso   1.00
C432   C     0.47597   0.86763   0.39826   0.00000  Uiso   1.00
C433   C     0.53093   0.80364   0.10132   0.00000  Uiso   1.00
C434   C     0.46142   0.91924   0.45484   0.00000  Uiso   1.00
C435   C     0.49486   0.84532   0.41845   0.00000  Uiso   1.00
C436   C     0.49991   0.86061   0.45614   0.00000  Uiso   1.00
C437   C     0.48292   0.89843   0.47453   0.00000  Uiso   1.00
C438   C     0.52061   0.83881   0.47616   0.00000  Uiso   1.00
C439   C     0.52040   0.85304   0.01583   0.00000  Uiso   1.00
C440   C     0.51028   0.89426   0.03076   0.00000  Uiso   1.00
C441   C     0.48951   0.91573   0.01118   0.00000  Uiso   1.00
Cl442  Cl    0.47310   0.96530   0.03245   0.00000  Uiso   1.00
H443   H     0.57984   0.73590   0.02628   0.00000  Uiso   1.00
H444   H     0.44336   0.92190   0.40207   0.00000  Uiso   1.00
H445   H     0.50543   0.81596   0.40387   0.00000  Uiso   1.00
H446   H     0.54829   0.79370   0.42659   0.00000  Uiso   1.00
H447   H     0.34999   0.86034   0.21507   0.00000  Uiso   1.00
H448   H     0.65148   0.80652   0.28512   0.00000  Uiso   1.00
H449   H     0.54118   0.66941   0.21567   0.00000  Uiso   1.00
H450   H     0.45787   0.99890   0.28461   0.00000  Uiso   1.00
H451   H     0.49808   0.85355   0.09619   0.00000  Uiso   1.00
H452   H     0.56307   0.74935   0.09839   0.00000  Uiso   1.00
H453   H     0.57499   0.75354   0.46348   0.00000  Uiso   1.00
H454   H     0.44777   0.94794   0.46787   0.00000  Uiso   1.00
I455   I     0.53867   0.93078   0.07419   0.00000  Uiso   1.00
O456   O     0.50000   0.83333   0.25000   0.00000  Uiso   1.00
O457   O     0.49027   0.79060   0.16625   0.00000  Uiso   1.00
O458   O     0.46020   0.87313   0.33749   0.00000  Uiso   1.00
O459   O     0.54421   0.84159   0.15877   0.00000  Uiso   1.00
O460   O     0.50532   0.82802   0.33749   0.00000  Uiso   1.00
O461   O     0.51182   0.74768   0.27821   0.00000  Uiso   1.00
O462   O     0.47914   0.92803   0.26767   0.00000  Uiso   1.00
O463   O     0.40785   0.79917   0.23607   0.00000  Uiso   1.00
O464   O     0.60119   0.85845   0.21806   0.00000  Uiso   1.00
O465   O     0.40323   0.85627   0.27820   0.00000  Uiso   1.00
O466   O     0.58773   0.81944   0.26768   0.00000  Uiso   1.00
O467   O     0.47133   0.73570   0.23607   0.00000  Uiso   1.00
O468   O     0.53771   0.92193   0.21806   0.00000  Uiso   1.00
Zn469  Zn    0.52577   0.80756   0.28278   0.00000  Uiso   1.00
Zn470  Zn    0.46792   0.79044   0.22258   0.00000  Uiso   1.00
Zn471  Zn    0.54500   0.86331   0.21188   0.00000  Uiso   1.00
Zn472  Zn    0.46131   0.87202   0.28277   0.00000  Uiso   1.00
C473   C     0.71916   0.82651   0.25879   0.00000  Uiso   1.00
C474   C     0.87569   0.80362   0.45766   0.00000  Uiso   1.00
C475   C     0.89206   0.78036   0.47870   0.00000  Uiso   1.00
C476   C     0.94774   0.84023   0.24124   0.00000  Uiso   1.00
C477   C     0.88504   0.78976   0.01921   0.00000  Uiso   1.00
C478   C     0.86466   0.82558   0.03845   0.00000  Uiso   1.00
C479   C     0.89686   0.76286   0.04093   0.00000  Uiso   1.00
C480   C     0.88691   0.77010   0.08187   0.00000  Uiso   1.00
C481   C     0.85223   0.83037   0.07994   0.00000  Uiso   1.00
C482   C     0.99367   0.84293   0.23772   0.00000  Uiso   1.00
C483   C     0.67380   0.82403   0.26223   0.00000  Uiso   1.00
C484   C     0.79166   0.90416   0.41705   0.00000  Uiso   1.00
C485   C     0.84760   0.98881   0.23798   0.00000  Uiso   1.00
C486   C     0.81845   0.67873   0.26218   0.00000  Uiso   1.00
C487   C     0.82270   0.72274   0.25888   0.00000  Uiso   1.00
C488   C     0.84356   0.94434   0.24132   0.00000  Uiso   1.00
C489   C     0.85468   0.81217   0.14398   0.00000  Uiso   1.00
C490   C     0.81257   0.85466   0.35622   0.00000  Uiso   1.00
C491   C     0.80930   0.86763   0.39826   0.00000  Uiso   1.00
C492   C     0.86426   0.80364   0.10132   0.00000  Uiso   1.00
C493   C     0.79476   0.91924   0.45484   0.00000  Uiso   1.00
C494   C     0.82819   0.84532   0.41845   0.00000  Uiso   1.00
C495   C     0.83324   0.86061   0.45614   0.00000  Uiso   1.00
C496   C     0.81625   0.89843   0.47453   0.00000  Uiso   1.00
C497   C     0.85394   0.83881   0.47616   0.00000  Uiso   1.00
C498   C     0.85373   0.85304   0.01583   0.00000  Uiso   1.00
C499   C     0.84361   0.89426   0.03076   0.00000  Uiso   1.00
C500   C     0.82284   0.91573   0.01118   0.00000  Uiso   1.00
Cl501  Cl    0.80643   0.96530   0.03245   0.00000  Uiso   1.00
H502   H     0.91317   0.73590   0.02628   0.00000  Uiso   1.00
H503   H     0.77669   0.92190   0.40207   0.00000  Uiso   1.00
H504   H     0.83876   0.81596   0.40387   0.00000  Uiso   1.00
H505   H     0.88162   0.79370   0.42659   0.00000  Uiso   1.00
H506   H     0.68332   0.86034   0.21507   0.00000  Uiso   1.00
H507   H     0.98482   0.80652   0.28512   0.00000  Uiso   1.00
H508   H     0.87451   0.66941   0.21567   0.00000  Uiso   1.00
H509   H     0.79121   0.99890   0.28461   0.00000  Uiso   1.00
H510   H     0.83141   0.85355   0.09619   0.00000  Uiso   1.00
H511   H     0.89640   0.74935   0.09839   0.00000  Uiso   1.00
H512   H     0.90832   0.75354   0.46348   0.00000  Uiso   1.00
H513   H     0.78110   0.94794   0.46787   0.00000  Uiso   1.00
I514   I     0.87200   0.93078   0.07419   0.00000  Uiso   1.00
O515   O     0.83333   0.83333   0.25000   0.00000  Uiso   1.00
O516   O     0.82360   0.79060   0.16625   0.00000  Uiso   1.00
O517   O     0.79354   0.87313   0.33749   0.00000  Uiso   1.00
O518   O     0.87755   0.84159   0.15877   0.00000  Uiso   1.00
O519   O     0.83865   0.82802   0.33749   0.00000  Uiso   1.00
O520   O     0.84515   0.74768   0.27821   0.00000  Uiso   1.00
O521   O     0.81247   0.92803   0.26767   0.00000  Uiso   1.00
O522   O     0.74119   0.79917   0.23607   0.00000  Uiso   1.00
O523   O     0.93452   0.85845   0.21806   0.00000  Uiso   1.00
O524   O     0.73656   0.85627   0.27820   0.00000  Uiso   1.00
O525   O     0.92106   0.81944   0.26768   0.00000  Uiso   1.00
O526   O     0.80467   0.73570   0.23607   0.00000  Uiso   1.00
O527   O     0.87104   0.92193   0.21806   0.00000  Uiso   1.00
Zn528  Zn    0.85910   0.80756   0.28278   0.00000  Uiso   1.00
Zn529  Zn    0.80125   0.79044   0.22258   0.00000  Uiso   1.00
Zn530  Zn    0.87833   0.86331   0.21188   0.00000  Uiso   1.00
Zn531  Zn    0.79465   0.87202   0.28277   0.00000  Uiso   1.00
C532   C     0.05250   0.15985   0.75879   0.00000  Uiso   1.00
C533   C     0.20902   0.13695   0.95766   0.00000  Uiso   1.00
C534   C     0.22539   0.11369   0.97870   0.00000  Uiso   1.00
C535   C     0.28107   0.17356   0.74124   0.00000  Uiso   1.00
C536   C     0.21838   0.12309   0.51921   0.00000  Uiso   1.00
C537   C     0.19799   0.15891   0.53845   0.00000  Uiso   1.00
C538   C     0.23020   0.09620   0.54093   0.00000  Uiso   1.00
C539   C     0.22024   0.10343   0.58187   0.00000  Uiso   1.00
C540   C     0.18556   0.16370   0.57994   0.00000  Uiso   1.00
C541   C     0.32701   0.17626   0.73772   0.00000  Uiso   1.00
C542   C     0.00713   0.15736   0.76223   0.00000  Uiso   1.00
C543   C     0.12499   0.23750   0.91705   0.00000  Uiso   1.00
C544   C     0.18093   0.32215   0.73798   0.00000  Uiso   1.00
C545   C     0.15179   0.01207   0.76218   0.00000  Uiso   1.00
C546   C     0.15604   0.05607   0.75888   0.00000  Uiso   1.00
C547   C     0.17689   0.27767   0.74132   0.00000  Uiso   1.00
C548   C     0.18802   0.14551   0.64398   0.00000  Uiso   1.00
C549   C     0.14590   0.18799   0.85622   0.00000  Uiso   1.00
C550   C     0.14264   0.20096   0.89826   0.00000  Uiso   1.00
C551   C     0.19760   0.13697   0.60132   0.00000  Uiso   1.00
C552   C     0.12809   0.25257   0.95484   0.00000  Uiso   1.00
C553   C     0.16153   0.17866   0.91845   0.00000  Uiso   1.00
C554   C     0.16657   0.19394   0.95614   0.00000  Uiso   1.00
C555   C     0.14958   0.23176   0.97453   0.00000  Uiso   1.00
C556   C     0.18727   0.17214   0.97616   0.00000  Uiso   1.00
C557   C     0.18706   0.18637   0.51583   0.00000  Uiso   1.00
C558   C     0.17694   0.22760   0.53076   0.00000  Uiso   1.00
C559   C     0.15617   0.24906   0.51118   0.00000  Uiso   1.00
Cl560  Cl    0.13976   0.29863   0.53245   0.00000  Uiso   1.00
H561   H     0.24651   0.06923   0.52628   0.00000  Uiso   1.00
H562   H     0.11002   0.25523   0.90207   0.00000  Uiso   1.00
H563   H     0.17210   0.14930   0.90387   0.00000  Uiso   1.00
H564   H     0.21495   0.12704   0.92659   0.00000  Uiso   1.00
H565   H     0.01666   0.19368   0.71507   0.00000  Uiso   1.00
H566   H     0.31815   0.13985   0.78512   0.00000  Uiso   1.00
H567   H     0.20785   0.00274   0.71567   0.00000  Uiso   1.00
H568   H     0.12454   0.33223   0.78461   0.00000  Uiso   1.00
H569   H     0.16474   0.18688   0.59619   0.00000  Uiso   1.00
H570   H     0.22974   0.08268   0.59839   0.00000  Uiso   1.00
H571   H     0.24166   0.08688   0.96348   0.00000  Uiso   1.00
H572   H     0.11443   0.28127   0.96787   0.00000  Uiso   1.00
I573   I     0.20534   0.26411   0.57419   0.00000  Uiso   1.00
O574   O     0.16667   0.16667   0.75000   0.00000  Uiso   1.00
O575   O     0.15693   0.12393   0.66625   0.00000  Uiso   1.00
O576   O     0.12687   0.20646   0.83749   0.00000  Uiso   1.00
O577   O     0.21088   0.17493   0.65877   0.00000  Uiso   1.00
O578   O     0.17198   0.16135   0.83749   0.00000  Uiso   1.00
O579   O     0.17849   0.08101   0.77821   0.00000  Uiso   1.00
O580   O     0.14581   0.26136   0.76767   0.00000  Uiso   1.00
O581   O     0.07452   0.13251   0.73607   0.00000  Uiso   1.00
O582   O     0.26785   0.19179   0.71806   0.00000  Uiso   1.00
O583   O     0.06990   0.18960   0.77820   0.00000  Uiso   1.00
O584   O     0.25440   0.15277   0.76768   0.00000  Uiso   1.00
O585   O     0.13800   0.06903   0.73607   0.00000  Uiso   1.00
O586   O     0.20437   0.25527   0.71806   0.00000  Uiso   1.00
Zn587  Zn    0.19244   0.14090   0.78278   0.00000  Uiso   1.00
Zn588  Zn    0.13459   0.12378   0.72258   0.00000  Uiso   1.00
Zn589  Zn    0.21166   0.19664   0.71188   0.00000  Uiso   1.00
Zn590  Zn    0.12798   0.20535   0.78277   0.00000  Uiso   1.00
C591   C     0.38583   0.15985   0.75879   0.00000  Uiso   1.00
C592   C     0.54235   0.13695   0.95766   0.00000  Uiso   1.00
C593   C     0.55872   0.11369   0.97870   0.00000  Uiso   1.00
C594   C     0.61441   0.17356   0.74124   0.00000  Uiso   1.00
C595   C     0.55171   0.12309   0.51921   0.00000  Uiso   1.00
C596   C     0.53133   0.15891   0.53845   0.00000  Uiso   1.00
C597   C     0.56353   0.09620   0.54093   0.00000  Uiso   1.00
C598   C     0.55357   0.10343   0.58187   0.00000  Uiso   1.00
C599   C     0.51889   0.16370   0.57994   0.00000  Uiso   1.00
C600   C     0.66034   0.17626   0.73772   0.00000  Uiso   1.00
C601   C     0.34046   0.15736   0.76223   0.00000  Uiso   1.00
C602   C     0.45833   0.23750   0.91705   0.00000  Uiso   1.00
C603   C     0.51426   0.32215   0.73798   0.00000  Uiso   1.00
C604   C     0.48512   0.01207   0.76218   0.00000  Uiso   1.00
C605   C     0.48937   0.05607   0.75888   0.00000  Uiso   1.00
C606   C     0.51022   0.27767   0.74132   0.00000  Uiso   1.00
C607   C     0.52135   0.14551   0.64398   0.00000  Uiso   1.00
C608   C     0.47924   0.18799   0.85622   0.00000  Uiso   1.00
C609   C     0.47597   0.20096   0.89826   0.00000  Uiso   1.00
C610   C     0.53093   0.13697   0.60132   0.00000  Uiso   1.00
C611   C     0.46142   0.25257   0.95484   0.00000  Uiso   1.00
C612   C     0.49486   0.17866   0.91845   0.00000  Uiso   1.00
C613   C     0.49991   0.19394   0.95614   0.00000  Uiso   1.00
C614   C     0.48292   0.23176   0.97453   0.00000  Uiso   1.00
C615   C     0.52061   0.17214   0.97616   0.00000  Uiso   1.00
C616   C     0.52040   0.18637   0.51583   0.00000  Uiso   1.00
C617   C     0.51028   0.22760   0.53076   0.00000  Uiso   1.00
C618   C     0.48951   0.24906   0.51118   0.00000  Uiso   1.00
Cl619  Cl    0.47310   0.29863   0.53245   0.00000  Uiso   1.00
H620   H     0.57984   0.06923   0.52628   0.00000  Uiso   1.00
H621   H     0.44336   0.25523   0.90207   0.00000  Uiso   1.00
H622   H     0.50543   0.14930   0.90387   0.00000  Uiso   1.00
H623   H     0.54829   0.12704   0.92659   0.00000  Uiso   1.00
H624   H     0.34999   0.19368   0.71507   0.00000  Uiso   1.00
H625   H     0.65148   0.13985   0.78512   0.00000  Uiso   1.00
H626   H     0.54118   0.00274   0.71567   0.00000  Uiso   1.00
H627   H     0.45787   0.33223   0.78461   0.00000  Uiso   1.00
H628   H     0.49808   0.18688   0.59619   0.00000  Uiso   1.00
H629   H     0.56307   0.08268   0.59839   0.00000  Uiso   1.00
H630   H     0.57499   0.08688   0.96348   0.00000  Uiso   1.00
H631   H     0.44777   0.28127   0.96787   0.00000  Uiso   1.00
I632   I     0.53867   0.26411   0.57419   0.00000  Uiso   1.00
O633   O     0.50000   0.16667   0.75000   0.00000  Uiso   1.00
O634   O     0.49027   0.12393   0.66625   0.00000  Uiso   1.00
O635   O     0.46020   0.20646   0.83749   0.00000  Uiso   1.00
O636   O     0.54421   0.17493   0.65877   0.00000  Uiso   1.00
O637   O     0.50532   0.16135   0.83749   0.00000  Uiso   1.00
O638   O     0.51182   0.08101   0.77821   0.00000  Uiso   1.00
O639   O     0.47914   0.26136   0.76767   0.00000  Uiso   1.00
O640   O     0.40785   0.13251   0.73607   0.00000  Uiso   1.00
O641   O     0.60119   0.19179   0.71806   0.00000  Uiso   1.00
O642   O     0.40323   0.18960   0.77820   0.00000  Uiso   1.00
O643   O     0.58773   0.15277   0.76768   0.00000  Uiso   1.00
O644   O     0.47133   0.06903   0.73607   0.00000  Uiso   1.00
O645   O     0.53771   0.25527   0.71806   0.00000  Uiso   1.00
Zn646  Zn    0.52577   0.14090   0.78278   0.00000  Uiso   1.00
Zn647  Zn    0.46792   0.12378   0.72258   0.00000  Uiso   1.00
Zn648  Zn    0.54500   0.19664   0.71188   0.00000  Uiso   1.00
Zn649  Zn    0.46131   0.20535   0.78277   0.00000  Uiso   1.00
C650   C     0.71916   0.15985   0.75879   0.00000  Uiso   1.00
C651   C     0.87569   0.13695   0.95766   0.00000  Uiso   1.00
C652   C     0.89206   0.11369   0.97870   0.00000  Uiso   1.00
C653   C     0.94774   0.17356   0.74124   0.00000  Uiso   1.00
C654   C     0.88504   0.12309   0.51921   0.00000  Uiso   1.00
C655   C     0.86466   0.15891   0.53845   0.00000  Uiso   1.00
C656   C     0.89686   0.09620   0.54093   0.00000  Uiso   1.00
C657   C     0.88691   0.10343   0.58187   0.00000  Uiso   1.00
C658   C     0.85223   0.16370   0.57994   0.00000  Uiso   1.00
C659   C     0.99367   0.17626   0.73772   0.00000  Uiso   1.00
C660   C     0.67380   0.15736   0.76223   0.00000  Uiso   1.00
C661   C     0.79166   0.23750   0.91705   0.00000  Uiso   1.00
C662   C     0.84760   0.32215   0.73798   0.00000  Uiso   1.00
C663   C     0.81845   0.01207   0.76218   0.00000  Uiso   1.00
C664   C     0.82270   0.05607   0.75888   0.00000  Uiso   1.00
C665   C     0.84356   0.27767   0.74132   0.00000  Uiso   1.00
C666   C     0.85468   0.14551   0.64398   0.00000  Uiso   1.00
C667   C     0.81257   0.18799   0.85622   0.00000  Uiso   1.00
C668   C     0.80930   0.20096   0.89826   0.00000  Uiso   1.00
C669   C     0.86426   0.13697   0.60132   0.00000  Uiso   1.00
C670   C     0.79476   0.25257   0.95484   0.00000  Uiso   1.00
C671   C     0.82819   0.17866   0.91845   0.00000  Uiso   1.00
C672   C     0.83324   0.19394   0.95614   0.00000  Uiso   1.00
C673   C     0.81625   0.23176   0.97453   0.00000  Uiso   1.00
C674   C     0.85394   0.17214   0.97616   0.00000  Uiso   1.00
C675   C     0.85373   0.18637   0.51583   0.00000  Uiso   1.00
C676   C     0.84361   0.22760   0.53076   0.00000  Uiso   1.00
C677   C     0.82284   0.24906   0.51118   0.00000  Uiso   1.00
Cl678  Cl    0.80643   0.29863   0.53245   0.00000  Uiso   1.00
H679   H     0.91317   0.06923   0.52628   0.00000  Uiso   1.00
H680   H     0.77669   0.25523   0.90207   0.00000  Uiso   1.00
H681   H     0.83876   0.14930   0.90387   0.00000  Uiso   1.00
H682   H     0.88162   0.12704   0.92659   0.00000  Uiso   1.00
H683   H     0.68332   0.19368   0.71507   0.00000  Uiso   1.00
H684   H     0.98482   0.13985   0.78512   0.00000  Uiso   1.00
H685   H     0.87451   0.00274   0.71567   0.00000  Uiso   1.00
H686   H     0.79121   0.33223   0.78461   0.00000  Uiso   1.00
H687   H     0.83141   0.18688   0.59619   0.00000  Uiso   1.00
H688   H     0.89640   0.08268   0.59839   0.00000  Uiso   1.00
H689   H     0.90832   0.08688   0.96348   0.00000  Uiso   1.00
H690   H     0.78110   0.28127   0.96787   0.00000  Uiso   1.00
I691   I     0.87200   0.26411   0.57419   0.00000  Uiso   1.00
O692   O     0.83333   0.16667   0.75000   0.00000  Uiso   1.00
O693   O     0.82360   0.12393   0.66625   0.00000  Uiso   1.00
O694   O     0.79354   0.20646   0.83749   0.00000  Uiso   1.00
O695   O     0.87755   0.17493   0.65877   0.00000  Uiso   1.00
O696   O     0.83865   0.16135   0.83749   0.00000  Uiso   1.00
O697   O     0.84515   0.08101   0.77821   0.00000  Uiso   1.00
O698   O     0.81247   0.26136   0.76767   0.00000  Uiso   1.00
O699   O     0.74119   0.13251   0.73607   0.00000  Uiso   1.00
O700   O     0.93452   0.19179   0.71806   0.00000  Uiso   1.00
O701   O     0.73656   0.18960   0.77820   0.00000  Uiso   1.00
O702   O     0.92106   0.15277   0.76768   0.00000  Uiso   1.00
O703   O     0.80467   0.06903   0.73607   0.00000  Uiso   1.00
O704   O     0.87104   0.25527   0.71806   0.00000  Uiso   1.00
Zn705  Zn    0.85910   0.14090   0.78278   0.00000  Uiso   1.00
Zn706  Zn    0.80125   0.12378   0.72258   0.00000  Uiso   1.00
Zn707  Zn    0.87833   0.19664   0.71188   0.00000  Uiso   1.00
Zn708  Zn    0.79465   0.20535   0.78277   0.00000  Uiso   1.00
C709   C     0.05250   0.49318   0.75879   0.00000  Uiso   1.00
C710   C     0.20902   0.47029   0.95766   0.00000  Uiso   1.00
C711   C     0.22539   0.44703   0.97870   0.00000  Uiso   1.00
C712   C     0.28107   0.50690   0.74124   0.00000  Uiso   1.00
C713   C     0.21838   0.45642   0.51921   0.00000  Uiso   1.00
C714   C     0.19799   0.49225   0.53845   0.00000  Uiso   1.00
C715   C     0.23020   0.42953   0.54093   0.00000  Uiso   1.00
C716   C     0.22024   0.43676   0.58187   0.00000  Uiso   1.00
C717   C     0.18556   0.49703   0.57994   0.00000  Uiso   1.00
C718   C     0.32701   0.50959   0.73772   0.00000  Uiso   1.00
C719   C     0.00713   0.49070   0.76223   0.00000  Uiso   1.00
C720   C     0.12499   0.57083   0.91705   0.00000  Uiso   1.00
C721   C     0.18093   0.65548   0.73798   0.00000  Uiso   1.00
C722   C     0.15179   0.34540   0.76218   0.00000  Uiso   1.00
C723   C     0.15604   0.38941   0.75888   0.00000  Uiso   1.00
C724   C     0.17689   0.61100   0.74132   0.00000  Uiso   1.00
C725   C     0.18802   0.47884   0.64398   0.00000  Uiso   1.00
C726   C     0.14590   0.52132   0.85622   0.00000  Uiso   1.00
C727   C     0.14264   0.53430   0.89826   0.00000  Uiso   1.00
C728   C     0.19760   0.47031   0.60132   0.00000  Uiso   1.00
C729   C     0.12809   0.58590   0.95484   0.00000  Uiso   1.00
C730   C     0.16153   0.51199   0.91845   0.00000  Uiso   1.00
C731   C     0.16657   0.52727   0.95614   0.00000  Uiso   1.00
C732   C     0.14958   0.56510   0.97453   0.00000  Uiso   1.00
C733   C     0.18727   0.50548   0.97616   0.00000  Uiso   1.00
C734   C     0.18706   0.51971   0.51583   0.00000  Uiso   1.00
C735   C     0.17694   0.56093   0.53076   0.00000  Uiso   1.00
C736   C     0.15617   0.58240   0.51118   0.00000  Uiso   1.00
Cl737  Cl    0.13976   0.63197   0.53245   0.00000  Uiso   1.00
H738   H     0.24651   0.40257   0.52628   0.00000  Uiso   1.00
H739   H     0.11002   0.58857   0.90207   0.00000  Uiso   1.00
H740   H     0.17210   0.48263   0.90387   0.00000  Uiso   1.00
H741   H     0.21495   0.46037   0.92659   0.00000  Uiso   1.00
H742   H     0.01666   0.52701   0.71507   0.00000  Uiso   1.00
H743   H     0.31815   0.47319   0.78512   0.00000  Uiso   1.00
H744   H     0.20785   0.33608   0.71567   0.00000  Uiso   1.00
H745   H     0.12454   0.66556   0.78461   0.00000  Uiso   1.00
H746   H     0.16474   0.52021   0.59619   0.00000  Uiso   1.00
H747   H     0.22974   0.41602   0.59839   0.00000  Uiso   1.00
H748   H     0.24166   0.42021   0.96348   0.00000  Uiso   1.00
H749   H     0.11443   0.61461   0.96787   0.00000  Uiso   1.00
I750   I     0.20534   0.59745   0.57419   0.00000  Uiso   1.00
O751   O     0.16667   0.50000   0.75000   0.00000  Uiso   1.00
O752   O     0.15693   0.45726   0.66625   0.00000  Uiso   1.00
O753   O     0.12687   0.53979   0.83749   0.00000  Uiso   1.00
O754   O     0.21088   0.50826   0.65877   0.00000  Uiso   1.00
O755   O     0.17198   0.49468   0.83749   0.00000  Uiso   1.00
O756   O     0.17849   0.41434   0.77821   0.00000  Uiso   1.00
O757   O     0.14581   0.59469   0.76767   0.00000  Uiso   1.00
O758   O     0.07452   0.46584   0.73607   0.00000  Uiso   1.00
O759   O     0.26785   0.52512   0.71806   0.00000  Uiso   1.00
O760   O     0.06990   0.52293   0.77820   0.00000  Uiso   1.00
O761   O     0.25440   0.48610   0.76768   0.00000  Uiso   1.00
O762   O     0.13800   0.40236   0.73607   0.00000  Uiso   1.00
O763   O     0.20437   0.58860   0.71806   0.00000  Uiso   1.00
Zn764  Zn    0.19244   0.47423   0.78278   0.00000  Uiso   1.00
Zn765  Zn    0.13459   0.45711   0.72258   0.00000  Uiso   1.00
Zn766  Zn    0.21166   0.52997   0.71188   0.00000  Uiso   1.00
Zn767  Zn    0.12798   0.53868   0.78277   0.00000  Uiso   1.00
C768   C     0.38583   0.49318   0.75879   0.00000  Uiso   1.00
C769   C     0.54235   0.47029   0.95766   0.00000  Uiso   1.00
C770   C     0.55872   0.44703   0.97870   0.00000  Uiso   1.00
C771   C     0.61441   0.50690   0.74124   0.00000  Uiso   1.00
C772   C     0.55171   0.45642   0.51921   0.00000  Uiso   1.00
C773   C     0.53133   0.49225   0.53845   0.00000  Uiso   1.00
C774   C     0.56353   0.42953   0.54093   0.00000  Uiso   1.00
C775   C     0.55357   0.43676   0.58187   0.00000  Uiso   1.00
C776   C     0.51889   0.49703   0.57994   0.00000  Uiso   1.00
C777   C     0.66034   0.50959   0.73772   0.00000  Uiso   1.00
C778   C     0.34046   0.49070   0.76223   0.00000  Uiso   1.00
C779   C     0.45833   0.57083   0.91705   0.00000  Uiso   1.00
C780   C     0.51426   0.65548   0.73798   0.00000  Uiso   1.00
C781   C     0.48512   0.34540   0.76218   0.00000  Uiso   1.00
C782   C     0.48937   0.38941   0.75888   0.00000  Uiso   1.00
C783   C     0.51022   0.61100   0.74132   0.00000  Uiso   1.00
C784   C     0.52135   0.47884   0.64398   0.00000  Uiso   1.00
C785   C     0.47924   0.52132   0.85622   0.00000  Uiso   1.00
C786   C     0.47597   0.53430   0.89826   0.00000  Uiso   1.00
C787   C     0.53093   0.47031   0.60132   0.00000  Uiso   1.00
C788   C     0.46142   0.58590   0.95484   0.00000  Uiso   1.00
C789   C     0.49486   0.51199   0.91845   0.00000  Uiso   1.00
C790   C     0.49991   0.52727   0.95614   0.00000  Uiso   1.00
C791   C     0.48292   0.56510   0.97453   0.00000  Uiso   1.00
C792   C     0.52061   0.50548   0.97616   0.00000  Uiso   1.00
C793   C     0.52040   0.51971   0.51583   0.00000  Uiso   1.00
C794   C     0.51028   0.56093   0.53076   0.00000  Uiso   1.00
C795   C     0.48951   0.58240   0.51118   0.00000  Uiso   1.00
Cl796  Cl    0.47310   0.63197   0.53245   0.00000  Uiso   1.00
H797   H     0.57984   0.40257   0.52628   0.00000  Uiso   1.00
H798   H     0.44336   0.58857   0.90207   0.00000  Uiso   1.00
H799   H     0.50543   0.48263   0.90387   0.00000  Uiso   1.00
H800   H     0.54829   0.46037   0.92659   0.00000  Uiso   1.00
H801   H     0.34999   0.52701   0.71507   0.00000  Uiso   1.00
H802   H     0.65148   0.47319   0.78512   0.00000  Uiso   1.00
H803   H     0.54118   0.33608   0.71567   0.00000  Uiso   1.00
H804   H     0.45787   0.66556   0.78461   0.00000  Uiso   1.00
H805   H     0.49808   0.52021   0.59619   0.00000  Uiso   1.00
H806   H     0.56307   0.41602   0.59839   0.00000  Uiso   1.00
H807   H     0.57499   0.42021   0.96348   0.00000  Uiso   1.00
H808   H     0.44777   0.61461   0.96787   0.00000  Uiso   1.00
I809   I     0.53867   0.59745   0.57419   0.00000  Uiso   1.00
O810   O     0.50000   0.50000   0.75000   0.00000  Uiso   1.00
O811   O     0.49027   0.45726   0.66625   0.00000  Uiso   1.00
O812   O     0.46020   0.53979   0.83749   0.00000  Uiso   1.00
O813   O     0.54421   0.50826   0.65877   0.00000  Uiso   1.00
O814   O     0.50532   0.49468   0.83749   0.00000  Uiso   1.00
O815   O     0.51182   0.41434   0.77821   0.00000  Uiso   1.00
O816   O     0.47914   0.59469   0.76767   0.00000  Uiso   1.00
O817   O     0.40785   0.46584   0.73607   0.00000  Uiso   1.00
O818   O     0.60119   0.52512   0.71806   0.00000  Uiso   1.00
O819   O     0.40323   0.52293   0.77820   0.00000  Uiso   1.00
O820   O     0.58773   0.48610   0.76768   0.00000  Uiso   1.00
O821   O     0.47133   0.40236   0.73607   0.00000  Uiso   1.00
O822   O     0.53771   0.58860   0.71806   0.00000  Uiso   1.00
Zn823  Zn    0.52577   0.47423   0.78278   0.00000  Uiso   1.00
Zn824  Zn    0.46792   0.45711   0.72258   0.00000  Uiso   1.00
Zn825  Zn    0.54500   0.52997   0.71188   0.00000  Uiso   1.00
Zn826  Zn    0.46131   0.53868   0.78277   0.00000  Uiso   1.00
C827   C     0.71916   0.49318   0.75879   0.00000  Uiso   1.00
C828   C     0.87569   0.47029   0.95766   0.00000  Uiso   1.00
C829   C     0.89206   0.44703   0.97870   0.00000  Uiso   1.00
C830   C     0.94774   0.50690   0.74124   0.00000  Uiso   1.00
C831   C     0.88504   0.45642   0.51921   0.00000  Uiso   1.00
C832   C     0.86466   0.49225   0.53845   0.00000  Uiso   1.00
C833   C     0.89686   0.42953   0.54093   0.00000  Uiso   1.00
C834   C     0.88691   0.43676   0.58187   0.00000  Uiso   1.00
C835   C     0.85223   0.49703   0.57994   0.00000  Uiso   1.00
C836   C     0.99367   0.50959   0.73772   0.00000  Uiso   1.00
C837   C     0.67380   0.49070   0.76223   0.00000  Uiso   1.00
C838   C     0.79166   0.57083   0.91705   0.00000  Uiso   1.00
C839   C     0.84760   0.65548   0.73798   0.00000  Uiso   1.00
C840   C     0.81845   0.34540   0.76218   0.00000  Uiso   1.00
C841   C     0.82270   0.38941   0.75888   0.00000  Uiso   1.00
C842   C     0.84356   0.61100   0.74132   0.00000  Uiso   1.00
C843   C     0.85468   0.47884   0.64398   0.00000  Uiso   1.00
C844   C     0.81257   0.52132   0.85622   0.00000  Uiso   1.00
C845   C     0.80930   0.53430   0.89826   0.00000  Uiso   1.00
C846   C     0.86426   0.47031   0.60132   0.00000  Uiso   1.00
C847   C     0.79476   0.58590   0.95484   0.00000  Uiso   1.00
C848   C     0.82819   0.51199   0.91845   0.00000  Uiso   1.00
C849   C     0.83324   0.52727   0.95614   0.00000  Uiso   1.00
C850   C     0.81625   0.56510   0.97453   0.00000  Uiso   1.00
C851   C     0.85394   0.50548   0.97616   0.00000  Uiso   1.00
C852   C     0.85373   0.51971   0.51583   0.00000  Uiso   1.00
C853   C     0.84361   0.56093   0.53076   0.00000  Uiso   1.00
C854   C     0.82284   0.58240   0.51118   0.00000  Uiso   1.00
Cl855  Cl    0.80643   0.63197   0.53245   0.00000  Uiso   1.00
H856   H     0.91317   0.40257   0.52628   0.00000  Uiso   1.00
H857   H     0.77669   0.58857   0.90207   0.00000  Uiso   1.00
H858   H     0.83876   0.48263   0.90387   0.00000  Uiso   1.00
H859   H     0.88162   0.46037   0.92659   0.00000  Uiso   1.00
H860   H     0.68332   0.52701   0.71507   0.00000  Uiso   1.00
H861   H     0.98482   0.47319   0.78512   0.00000  Uiso   1.00
H862   H     0.87451   0.33608   0.71567   0.00000  Uiso   1.00
H863   H     0.79121   0.66556   0.78461   0.00000  Uiso   1.00
H864   H     0.83141   0.52021   0.59619   0.00000  Uiso   1.00
H865   H     0.89640   0.41602   0.59839   0.00000  Uiso   1.00
H866   H     0.90832   0.42021   0.96348   0.00000  Uiso   1.00
H867   H     0.78110   0.61461   0.96787   0.00000  Uiso   1.00
I868   I     0.87200   0.59745   0.57419   0.00000  Uiso   1.00
O869   O     0.83333   0.50000   0.75000   0.00000  Uiso   1.00
O870   O     0.82360   0.45726   0.66625   0.00000  Uiso   1.00
O871   O     0.79354   0.53979   0.83749   0.00000  Uiso   1.00
O872   O     0.87755   0.50826   0.65877   0.00000  Uiso   1.00
O873   O     0.83865   0.49468   0.83749   0.00000  Uiso   1.00
O874   O     0.84515   0.41434   0.77821   0.00000  Uiso   1.00
O875   O     0.81247   0.59469   0.76767   0.00000  Uiso   1.00
O876   O     0.74119   0.46584   0.73607   0.00000  Uiso   1.00
O877   O     0.93452   0.52512   0.71806   0.00000  Uiso   1.00
O878   O     0.73656   0.52293   0.77820   0.00000  Uiso   1.00
O879   O     0.92106   0.48610   0.76768   0.00000  Uiso   1.00
O880   O     0.80467   0.40236   0.73607   0.00000  Uiso   1.00
O881   O     0.87104   0.58860   0.71806   0.00000  Uiso   1.00
Zn882  Zn    0.85910   0.47423   0.78278   0.00000  Uiso   1.00
Zn883  Zn    0.80125   0.45711   0.72258   0.00000  Uiso   1.00
Zn884  Zn    0.87833   0.52997   0.71188   0.00000  Uiso   1.00
Zn885  Zn    0.79465   0.53868   0.78277   0.00000  Uiso   1.00
C886   C     0.05250   0.82651   0.75879   0.00000  Uiso   1.00
C887   C     0.20902   0.80362   0.95766   0.00000  Uiso   1.00
C888   C     0.22539   0.78036   0.97870   0.00000  Uiso   1.00
C889   C     0.28107   0.84023   0.74124   0.00000  Uiso   1.00
C890   C     0.21838   0.78976   0.51921   0.00000  Uiso   1.00
C891   C     0.19799   0.82558   0.53845   0.00000  Uiso   1.00
C892   C     0.23020   0.76286   0.54093   0.00000  Uiso   1.00
C893   C     0.22024   0.77010   0.58187   0.00000  Uiso   1.00
C894   C     0.18556   0.83037   0.57994   0.00000  Uiso   1.00
C895   C     0.32701   0.84293   0.73772   0.00000  Uiso   1.00
C896   C     0.00713   0.82403   0.76223   0.00000  Uiso   1.00
C897   C     0.12499   0.90416   0.91705   0.00000  Uiso   1.00
C898   C     0.18093   0.98881   0.73798   0.00000  Uiso   1.00
C899   C     0.15179   0.67873   0.76218   0.00000  Uiso   1.00
C900   C     0.15604   0.72274   0.75888   0.00000  Uiso   1.00
C901   C     0.17689   0.94434   0.74132   0.00000  Uiso   1.00
C902   C     0.18802   0.81217   0.64398   0.00000  Uiso   1.00
C903   C     0.14590   0.85466   0.85622   0.00000  Uiso   1.00
C904   C     0.14264   0.86763   0.89826   0.00000  Uiso   1.00
C905   C     0.19760   0.80364   0.60132   0.00000  Uiso   1.00
C906   C     0.12809   0.91924   0.95484   0.00000  Uiso   1.00
C907   C     0.16153   0.84532   0.91845   0.00000  Uiso   1.00
C908   C     0.16657   0.86061   0.95614   0.00000  Uiso   1.00
C909   C     0.14958   0.89843   0.97453   0.00000  Uiso   1.00
C910   C     0.18727   0.83881   0.97616   0.00000  Uiso   1.00
C911   C     0.18706   0.85304   0.51583   0.00000  Uiso   1.00
C912   C     0.17694   0.89426   0.53076   0.00000  Uiso   1.00
C913   C     0.15617   0.91573   0.51118   0.00000  Uiso   1.00
Cl914  Cl    0.13976   0.96530   0.53245   0.00000  Uiso   1.00
H915   H     0.24651   0.73590   0.52628   0.00000  Uiso   1.00
H916   H     0.11002   0.92190   0.90207   0.00000  Uiso   1.00
H917   H     0.17210   0.81596   0.90387   0.00000  Uiso   1.00
H918   H     0.21495   0.79370   0.92659   0.00000  Uiso   1.00
H919   H     0.01666   0.86034   0.71507   0.00000  Uiso   1.00
H920   H     0.31815   0.80652   0.78512   0.00000  Uiso   1.00
H921   H     0.20785   0.66941   0.71567   0.00000  Uiso   1.00
H922   H     0.12454   0.99890   0.78461   0.00000  Uiso   1.00
H923   H     0.16474   0.85355   0.59619   0.00000  Uiso   1.00
H924   H     0.22974   0.74935   0.59839   0.00000  Uiso   1.00
H925   H     0.24166   0.75354   0.96348   0.00000  Uiso   1.00
H926   H     0.11443   0.94794   0.96787   0.00000  Uiso   1.00
I927   I     0.20534   0.93078   0.57419   0.00000  Uiso   1.00
O928   O     0.16667   0.83333   0.75000   0.00000  Uiso   1.00
O929   O     0.15693   0.79060   0.66625   0.00000  Uiso   1.00
O930   O     0.12687   0.87313   0.83749   0.00000  Uiso   1.00
O931   O     0.21088   0.84159   0.65877   0.00000  Uiso   1.00
O932   O     0.17198   0.82802   0.83749   0.00000  Uiso   1.00
O933   O     0.17849   0.74768   0.77821   0.00000  Uiso   1.00
O934   O     0.14581   0.92803   0.76767   0.00000  Uiso   1.00
O935   O     0.07452   0.79917   0.73607   0.00000  Uiso   1.00
O936   O     0.26785   0.85845   0.71806   0.00000  Uiso   1.00
O937   O     0.06990   0.85627   0.77820   0.00000  Uiso   1.00
O938   O     0.25440   0.81944   0.76768   0.00000  Uiso   1.00
O939   O     0.13800   0.73570   0.73607   0.00000  Uiso   1.00
O940   O     0.20437   0.92193   0.71806   0.00000  Uiso   1.00
Zn941  Zn    0.19244   0.80756   0.78278   0.00000  Uiso   1.00
Zn942  Zn    0.13459   0.79044   0.72258   0.00000  Uiso   1.00
Zn943  Zn    0.21166   0.86331   0.71188   0.00000  Uiso   1.00
Zn944  Zn    0.12798   0.87202   0.78277   0.00000  Uiso   1.00
C945   C     0.38583   0.82651   0.75879   0.00000  Uiso   1.00
C946   C     0.54235   0.80362   0.95766   0.00000  Uiso   1.00
C947   C     0.55872   0.78036   0.97870   0.00000  Uiso   1.00
C948   C     0.61441   0.84023   0.74124   0.00000  Uiso   1.00
C949   C     0.55171   0.78976   0.51921   0.00000  Uiso   1.00
C950   C     0.53133   0.82558   0.53845   0.00000  Uiso   1.00
C951   C     0.56353   0.76286   0.54093   0.00000  Uiso   1.00
C952   C     0.55357   0.77010   0.58187   0.00000  Uiso   1.00
C953   C     0.51889   0.83037   0.57994   0.00000  Uiso   1.00
C954   C     0.66034   0.84293   0.73772   0.00000  Uiso   1.00
C955   C     0.34046   0.82403   0.76223   0.00000  Uiso   1.00
C956   C     0.45833   0.90416   0.91705   0.00000  Uiso   1.00
C957   C     0.51426   0.98881   0.73798   0.00000  Uiso   1.00
C958   C     0.48512   0.67873   0.76218   0.00000  Uiso   1.00
C959   C     0.48937   0.72274   0.75888   0.00000  Uiso   1.00
C960   C     0.51022   0.94434   0.74132   0.00000  Uiso   1.00
C961   C     0.52135   0.81217   0.64398   0.00000  Uiso   1.00
C962   C     0.47924   0.85466   0.85622   0.00000  Uiso   1.00
C963   C     0.47597   0.86763   0.89826   0.00000  Uiso   1.00
C964   C     0.53093   0.80364   0.60132   0.00000  Uiso   1.00
C965   C     0.46142   0.91924   0.95484   0.00000  Uiso   1.00
C966   C     0.49486   0.84532   0.91845   0.00000  Uiso   1.00
C967   C     0.49991   0.86061   0.95614   0.00000  Uiso   1.00
C968   C     0.48292   0.89843   0.97453   0.00000  Uiso   1.00
C969   C     0.52061   0.83881   0.97616   0.00000  Uiso   1.00
C970   C     0.52040   0.85304   0.51583   0.00000  Uiso   1.00
C971   C     0.51028   0.89426   0.53076   0.00000  Uiso   1.00
C972   C     0.48951   0.91573   0.51118   0.00000  Uiso   1.00
Cl973  Cl    0.47310   0.96530   0.53245   0.00000  Uiso   1.00
H974   H     0.57984   0.73590   0.52628   0.00000  Uiso   1.00
H975   H     0.44336   0.92190   0.90207   0.00000  Uiso   1.00
H976   H     0.50543   0.81596   0.90387   0.00000  Uiso   1.00
H977   H     0.54829   0.79370   0.92659   0.00000  Uiso   1.00
H978   H     0.34999   0.86034   0.71507   0.00000  Uiso   1.00
H979   H     0.65148   0.80652   0.78512   0.00000  Uiso   1.00
H980   H     0.54118   0.66941   0.71567   0.00000  Uiso   1.00
H981   H     0.45787   0.99890   0.78461   0.00000  Uiso   1.00
H982   H     0.49808   0.85355   0.59619   0.00000  Uiso   1.00
H983   H     0.56307   0.74935   0.59839   0.00000  Uiso   1.00
H984   H     0.57499   0.75354   0.96348   0.00000  Uiso   1.00
H985   H     0.44777   0.94794   0.96787   0.00000  Uiso   1.00
I986   I     0.53867   0.93078   0.57419   0.00000  Uiso   1.00
O987   O     0.50000   0.83333   0.75000   0.00000  Uiso   1.00
O988   O     0.49027   0.79060   0.66625   0.00000  Uiso   1.00
O989   O     0.46020   0.87313   0.83749   0.00000  Uiso   1.00
O990   O     0.54421   0.84159   0.65877   0.00000  Uiso   1.00
O991   O     0.50532   0.82802   0.83749   0.00000  Uiso   1.00
O992   O     0.51182   0.74768   0.77821   0.00000  Uiso   1.00
O993   O     0.47914   0.92803   0.76767   0.00000  Uiso   1.00
O994   O     0.40785   0.79917   0.73607   0.00000  Uiso   1.00
O995   O     0.60119   0.85845   0.71806   0.00000  Uiso   1.00
O996   O     0.40323   0.85627   0.77820   0.00000  Uiso   1.00
O997   O     0.58773   0.81944   0.76768   0.00000  Uiso   1.00
O998   O     0.47133   0.73570   0.73607   0.00000  Uiso   1.00
O999   O     0.53771   0.92193   0.71806   0.00000  Uiso   1.00
Zn1000 Zn    0.52577   0.80756   0.78278   0.00000  Uiso   1.00
Zn1001 Zn    0.46792   0.79044   0.72258   0.00000  Uiso   1.00
Zn1002 Zn    0.54500   0.86331   0.71188   0.00000  Uiso   1.00
Zn1003 Zn    0.46131   0.87202   0.78277   0.00000  Uiso   1.00
C1004  C     0.71916   0.82651   0.75879   0.00000  Uiso   1.00
C1005  C     0.87569   0.80362   0.95766   0.00000  Uiso   1.00
C1006  C     0.89206   0.78036   0.97870   0.00000  Uiso   1.00
C1007  C     0.94774   0.84023   0.74124   0.00000  Uiso   1.00
C1008  C     0.88504   0.78976   0.51921   0.00000  Uiso   1.00
C1009  C     0.86466   0.82558   0.53845   0.00000  Uiso   1.00
C1010  C     0.89686   0.76286   0.54093   0.00000  Uiso   1.00
C1011  C     0.88691   0.77010   0.58187   0.00000  Uiso   1.00
C1012  C     0.85223   0.83037   0.57994   0.00000  Uiso   1.00
C1013  C     0.99367   0.84293   0.73772   0.00000  Uiso   1.00
C1014  C     0.67380   0.82403   0.76223   0.00000  Uiso   1.00
C1015  C     0.79166   0.90416   0.91705   0.00000  Uiso   1.00
C1016  C     0.84760   0.98881   0.73798   0.00000  Uiso   1.00
C1017  C     0.81845   0.67873   0.76218   0.00000  Uiso   1.00
C1018  C     0.82270   0.72274   0.75888   0.00000  Uiso   1.00
C1019  C     0.84356   0.94434   0.74132   0.00000  Uiso   1.00
C1020  C     0.85468   0.81217   0.64398   0.00000  Uiso   1.00
C1021  C     0.81257   0.85466   0.85622   0.00000  Uiso   1.00
C1022  C     0.80930   0.86763   0.89826   0.00000  Uiso   1.00
C1023  C     0.86426   0.80364   0.60132   0.00000  Uiso   1.00
C1024  C     0.79476   0.91924   0.95484   0.00000  Uiso   1.00
C1025  C     0.82819   0.84532   0.91845   0.00000  Uiso   1.00
C1026  C     0.83324   0.86061   0.95614   0.00000  Uiso   1.00
C1027  C     0.81625   0.89843   0.97453   0.00000  Uiso   1.00
C1028  C     0.85394   0.83881   0.97616   0.00000  Uiso   1.00
C1029  C     0.85373   0.85304   0.51583   0.00000  Uiso   1.00
C1030  C     0.84361   0.89426   0.53076   0.00000  Uiso   1.00
C1031  C     0.82284   0.91573   0.51118   0.00000  Uiso   1.00
Cl1032 Cl    0.80643   0.96530   0.53245   0.00000  Uiso   1.00
H1033  H     0.91317   0.73590   0.52628   0.00000  Uiso   1.00
H1034  H     0.77669   0.92190   0.90207   0.00000  Uiso   1.00
H1035  H     0.83876   0.81596   0.90387   0.00000  Uiso   1.00
H1036  H     0.88162   0.79370   0.92659   0.00000  Uiso   1.00
H1037  H     0.68332   0.86034   0.71507   0.00000  Uiso   1.00
H1038  H     0.98482   0.80652   0.78512   0.00000  Uiso   1.00
H1039  H     0.87451   0.66941   0.71567   0.00000  Uiso   1.00
H1040  H     0.79121   0.99890   0.78461   0.00000  Uiso   1.00
H1041  H     0.83141   0.85355   0.59619   0.00000  Uiso   1.00
H1042  H     0.89640   0.74935   0.59839   0.00000  Uiso   1.00
H1043  H     0.90832   0.75354   0.96348   0.00000  Uiso   1.00
H1044  H     0.78110   0.94794   0.96787   0.00000  Uiso   1.00
I1045  I     0.87200   0.93078   0.57419   0.00000  Uiso   1.00
O1046  O     0.83333   0.83333   0.75000   0.00000  Uiso   1.00
O1047  O     0.82360   0.79060   0.66625   0.00000  Uiso   1.00
O1048  O     0.79354   0.87313   0.83749   0.00000  Uiso   1.00
O1049  O     0.87755   0.84159   0.65877   0.00000  Uiso   1.00
O1050  O     0.83865   0.82802   0.83749   0.00000  Uiso   1.00
O1051  O     0.84515   0.74768   0.77821   0.00000  Uiso   1.00
O1052  O     0.81247   0.92803   0.76767   0.00000  Uiso   1.00
O1053  O     0.74119   0.79917   0.73607   0.00000  Uiso   1.00
O1054  O     0.93452   0.85845   0.71806   0.00000  Uiso   1.00
O1055  O     0.73656   0.85627   0.77820   0.00000  Uiso   1.00
O1056  O     0.92106   0.81944   0.76768   0.00000  Uiso   1.00
O1057  O     0.80467   0.73570   0.73607   0.00000  Uiso   1.00
O1058  O     0.87104   0.92193   0.71806   0.00000  Uiso   1.00
Zn1059 Zn    0.85910   0.80756   0.78278   0.00000  Uiso   1.00
Zn1060 Zn    0.80125   0.79044   0.72258   0.00000  Uiso   1.00
Zn1061 Zn    0.87833   0.86331   0.71188   0.00000  Uiso   1.00
Zn1062 Zn    0.79465   0.87202   0.78277   0.00000  Uiso   1.00
loop_
_geom_bond_atom_site_label_1
_geom_bond_atom_site_label_2
_geom_bond_distance
_geom_bond_site_symmetry_2
_ccdc_geom_bond_type
C1     O50     1.270   .     A
C1     O52     1.270   .     A
C1     C11     1.437   .     S
C2     C3      1.387   .     A
C2     C25     1.417   .     A
C2     H33     1.077   .     S
C3     H40     1.084   .     S
C3     C536    1.390   .     S
C4     O53     1.276   .     A
C4     O51     1.278   .     A
C4     C10     1.454   .     S
C5     C7      1.404   .     A
C5     C6      1.419   .     A
C5     C534    1.390   1_554 S
C6     C9      1.406   .     A
C6     C26     1.426   .     A
C7     C8      1.392   .     A
C7     H30     1.084   .     S
C8     C20     1.396   .     A
C8     H39     1.083   .     S
C9     C20     1.395   .     A
C9     H38     1.080   .     S
C10    C70     1.334   .     S
C10    H93     1.088   .     S
C11    C128    1.334   1_455 S
C11    H153    1.086   1_455 S
C12    C19     1.397   .     A
C12    H31     1.083   .     S
C12    C21     1.393   .     A
C13    C16     1.452   .     S
C13    C191    1.332   .     S
C13    H213    1.088   .     S
C14    C15     1.436   .     S
C14    C367    1.332   1_545 S
C14    H391    1.086   1_545 S
C15    O54     1.275   .     A
C15    O48     1.275   .     A
C16    O55     1.271   .     A
C16    O49     1.271   .     A
C17    C20     1.454   .     S
C17    O44     1.275   .     A
C17    O46     1.274   .     A
C18    O47     1.284   .     A
C18    O45     1.284   .     A
C18    C19     1.474   .     S
C19    C22     1.398   .     A
C21    H41     1.081   .     S
C21    C24     1.412   .     A
C22    H32     1.076   .     S
C22    C23     1.411   .     A
C23    C24     1.421   .     A
C23    C25     1.423   .     A
C24    C559    1.409   .     S
C25    C557    1.422   .     S
C26    C27     1.422   .     A
C26    C556    1.422   1_554 S
C27    I42     2.155   .     S
C27    C28     1.406   .     A
C28    Cl29    1.773   .     S
C28    C555    1.409   1_554 S
H34    C128    1.088   1_455 S
H35    C70     1.086   .     S
H36    C367    1.088   1_545 S
H37    C191    1.086   .     S
O43    Zn59    1.935   .     S
O43    Zn56    1.952   .     S
O43    Zn57    1.942   .     S
O43    Zn58    1.932   .     S
O44    Zn57    1.925   .     S
O45    Zn59    1.932   .     S
O46    Zn58    1.930   .     S
O47    Zn56    1.924   .     S
O48    Zn56    1.929   .     S
O49    Zn59    1.930   .     S
O50    Zn57    1.928   .     S
O51    Zn58    1.935   .     S
O52    Zn59    1.932   .     S
O53    Zn56    1.925   .     S
O54    Zn57    1.935   .     S
O55    Zn58    1.932   .     S
C60    O109    1.270   .     A
C60    O111    1.270   .     A
C60    C70     1.437   .     S
C61    C62     1.387   .     A
C61    C84     1.417   .     A
C61    H92     1.077   .     S
C62    H99     1.084   .     S
C62    C595    1.390   .     S
C63    O112    1.276   .     A
C63    O110    1.278   .     A
C63    C69     1.454   .     S
C64    C66     1.404   .     A
C64    C65     1.419   .     A
C64    C593    1.390   1_554 S
C65    C68     1.406   .     A
C65    C85     1.426   .     A
C66    C67     1.392   .     A
C66    H89     1.084   .     S
C67    C79     1.396   .     A
C67    H98     1.083   .     S
C68    C79     1.395   .     A
C68    H97     1.080   .     S
C69    C129    1.334   .     S
C69    H152    1.088   .     S
C71    C78     1.397   .     A
C71    H90     1.083   .     S
C71    C80     1.393   .     A
C72    C75     1.452   .     S
C72    C250    1.332   .     S
C72    H272    1.088   .     S
C73    C74     1.436   .     S
C73    C426    1.332   1_545 S
C73    H450    1.086   1_545 S
C74    O113    1.275   .     A
C74    O107    1.275   .     A
C75    O114    1.271   .     A
C75    O108    1.271   .     A
C76    C79     1.454   .     S
C76    O103    1.275   .     A
C76    O105    1.274   .     A
C77    O106    1.284   .     A
C77    O104    1.284   .     A
C77    C78     1.474   .     S
C78    C81     1.398   .     A
C80    H100    1.081   .     S
C80    C83     1.412   .     A
C81    H91     1.076   .     S
C81    C82     1.411   .     A
C82    C83     1.421   .     A
C82    C84     1.423   .     A
C83    C618    1.409   .     S
C84    C616    1.422   .     S
C85    C86     1.422   .     A
C85    C615    1.422   1_554 S
C86    I101    2.155   .     S
C86    C87     1.406   .     A
C87    Cl88    1.773   .     S
C87    C614    1.409   1_554 S
H94    C129    1.086   .     S
H95    C426    1.088   1_545 S
H96    C250    1.086   .     S
O102   Zn118   1.935   .     S
O102   Zn115   1.952   .     S
O102   Zn116   1.942   .     S
O102   Zn117   1.932   .     S
O103   Zn116   1.925   .     S
O104   Zn118   1.932   .     S
O105   Zn117   1.930   .     S
O106   Zn115   1.924   .     S
O107   Zn115   1.929   .     S
O108   Zn118   1.930   .     S
O109   Zn116   1.928   .     S
O110   Zn117   1.935   .     S
O111   Zn118   1.932   .     S
O112   Zn115   1.925   .     S
O113   Zn116   1.935   .     S
O114   Zn117   1.932   .     S
C119   O168    1.270   .     A
C119   O170    1.270   .     A
C119   C129    1.437   .     S
C120   C121    1.387   .     A
C120   C143    1.417   .     A
C120   H151    1.077   .     S
C121   H158    1.084   .     S
C121   C654    1.390   .     S
C122   O171    1.276   .     A
C122   O169    1.278   .     A
C122   C128    1.454   .     S
C123   C125    1.404   .     A
C123   C124    1.419   .     A
C123   C652    1.390   1_554 S
C124   C127    1.406   .     A
C124   C144    1.426   .     A
C125   C126    1.392   .     A
C125   H148    1.084   .     S
C126   C138    1.396   .     A
C126   H157    1.083   .     S
C127   C138    1.395   .     A
C127   H156    1.080   .     S
C128   C11     1.334   1_655 S
C128   H34     1.088   1_655 S
C130   C137    1.397   .     A
C130   H149    1.083   .     S
C130   C139    1.393   .     A
C131   C134    1.452   .     S
C131   C309    1.332   .     S
C131   H331    1.088   .     S
C132   C133    1.436   .     S
C132   C485    1.332   1_545 S
C132   H509    1.086   1_545 S
C133   O172    1.275   .     A
C133   O166    1.275   .     A
C134   O173    1.271   .     A
C134   O167    1.271   .     A
C135   C138    1.454   .     S
C135   O162    1.275   .     A
C135   O164    1.274   .     A
C136   O165    1.284   .     A
C136   O163    1.284   .     A
C136   C137    1.474   .     S
C137   C140    1.398   .     A
C139   H159    1.081   .     S
C139   C142    1.412   .     A
C140   H150    1.076   .     S
C140   C141    1.411   .     A
C141   C142    1.421   .     A
C141   C143    1.423   .     A
C142   C677    1.409   .     S
C143   C675    1.422   .     S
C144   C145    1.422   .     A
C144   C674    1.422   1_554 S
C145   I160    2.155   .     S
C145   C146    1.406   .     A
C146   Cl147   1.773   .     S
C146   C673    1.409   1_554 S
H153   C11     1.086   1_655 S
H154   C485    1.088   1_545 S
H155   C309    1.086   .     S
O161   Zn177   1.935   .     S
O161   Zn174   1.952   .     S
O161   Zn175   1.942   .     S
O161   Zn176   1.932   .     S
O162   Zn175   1.925   .     S
O163   Zn177   1.932   .     S
O164   Zn176   1.930   .     S
O165   Zn174   1.924   .     S
O166   Zn174   1.929   .     S
O167   Zn177   1.930   .     S
O168   Zn175   1.928   .     S
O169   Zn176   1.935   .     S
O170   Zn177   1.932   .     S
O171   Zn174   1.925   .     S
O172   Zn175   1.935   .     S
O173   Zn176   1.932   .     S
C178   O227    1.270   .     A
C178   O229    1.270   .     A
C178   C188    1.437   .     S
C179   C180    1.387   .     A
C179   C202    1.417   .     A
C179   H210    1.077   .     S
C180   H217    1.084   .     S
C180   C713    1.390   .     S
C181   O230    1.276   .     A
C181   O228    1.278   .     A
C181   C187    1.454   .     S
C182   C184    1.404   .     A
C182   C183    1.419   .     A
C182   C711    1.390   1_554 S
C183   C186    1.406   .     A
C183   C203    1.426   .     A
C184   C185    1.392   .     A
C184   H207    1.084   .     S
C185   C197    1.396   .     A
C185   H216    1.083   .     S
C186   C197    1.395   .     A
C186   H215    1.080   .     S
C187   C247    1.334   .     S
C187   H270    1.088   .     S
C188   C305    1.334   1_455 S
C188   H330    1.086   1_455 S
C189   C196    1.397   .     A
C189   H208    1.083   .     S
C189   C198    1.393   .     A
C190   C193    1.452   .     S
C190   C368    1.332   .     S
C190   H390    1.088   .     S
C191   C192    1.436   .     S
C192   O231    1.275   .     A
C192   O225    1.275   .     A
C193   O232    1.271   .     A
C193   O226    1.271   .     A
C194   C197    1.454   .     S
C194   O221    1.275   .     A
C194   O223    1.274   .     A
C195   O224    1.284   .     A
C195   O222    1.284   .     A
C195   C196    1.474   .     S
C196   C199    1.398   .     A
C198   H218    1.081   .     S
C198   C201    1.412   .     A
C199   H209    1.076   .     S
C199   C200    1.411   .     A
C200   C201    1.421   .     A
C200   C202    1.423   .     A
C201   C736    1.409   .     S
C202   C734    1.422   .     S
C203   C204    1.422   .     A
C203   C733    1.422   1_554 S
C204   I219    2.155   .     S
C204   C205    1.406   .     A
C205   Cl206   1.773   .     S
C205   C732    1.409   1_554 S
H211   C305    1.088   1_455 S
H212   C247    1.086   .     S
H214   C368    1.086   .     S
O220   Zn236   1.935   .     S
O220   Zn233   1.952   .     S
O220   Zn234   1.942   .     S
O220   Zn235   1.932   .     S
O221   Zn234   1.925   .     S
O222   Zn236   1.932   .     S
O223   Zn235   1.930   .     S
O224   Zn233   1.924   .     S
O225   Zn233   1.929   .     S
O226   Zn236   1.930   .     S
O227   Zn234   1.928   .     S
O228   Zn235   1.935   .     S
O229   Zn236   1.932   .     S
O230   Zn233   1.925   .     S
O231   Zn234   1.935   .     S
O232   Zn235   1.932   .     S
C237   O286    1.270   .     A
C237   O288    1.270   .     A
C237   C247    1.437   .     S
C238   C239    1.387   .     A
C238   C261    1.417   .     A
C238   H269    1.077   .     S
C239   H276    1.084   .     S
C239   C772    1.390   .     S
C240   O289    1.276   .     A
C240   O287    1.278   .     A
C240   C246    1.454   .     S
C241   C243    1.404   .     A
C241   C242    1.419   .     A
C241   C770    1.390   1_554 S
C242   C245    1.406   .     A
C242   C262    1.426   .     A
C243   C244    1.392   .     A
C243   H266    1.084   .     S
C244   C256    1.396   .     A
C244   H275    1.083   .     S
C245   C256    1.395   .     A
C245   H274    1.080   .     S
C246   C306    1.334   .     S
C246   H329    1.088   .     S
C248   C255    1.397   .     A
C248   H267    1.083   .     S
C248   C257    1.393   .     A
C249   C252    1.452   .     S
C249   C427    1.332   .     S
C249   H449    1.088   .     S
C250   C251    1.436   .     S
C251   O290    1.275   .     A
C251   O284    1.275   .     A
C252   O291    1.271   .     A
C252   O285    1.271   .     A
C253   C256    1.454   .     S
C253   O280    1.275   .     A
C253   O282    1.274   .     A
C254   O283    1.284   .     A
C254   O281    1.284   .     A
C254   C255    1.474   .     S
C255   C258    1.398   .     A
C257   H277    1.081   .     S
C257   C260    1.412   .     A
C258   H268    1.076   .     S
C258   C259    1.411   .     A
C259   C260    1.421   .     A
C259   C261    1.423   .     A
C260   C795    1.409   .     S
C261   C793    1.422   .     S
C262   C263    1.422   .     A
C262   C792    1.422   1_554 S
C263   I278    2.155   .     S
C263   C264    1.406   .     A
C264   Cl265   1.773   .     S
C264   C791    1.409   1_554 S
H271   C306    1.086   .     S
H273   C427    1.086   .     S
O279   Zn295   1.935   .     S
O279   Zn292   1.952   .     S
O279   Zn293   1.942   .     S
O279   Zn294   1.932   .     S
O280   Zn293   1.925   .     S
O281   Zn295   1.932   .     S
O282   Zn294   1.930   .     S
O283   Zn292   1.924   .     S
O284   Zn292   1.929   .     S
O285   Zn295   1.930   .     S
O286   Zn293   1.928   .     S
O287   Zn294   1.935   .     S
O288   Zn295   1.932   .     S
O289   Zn292   1.925   .     S
O290   Zn293   1.935   .     S
O291   Zn294   1.932   .     S
C296   O345    1.270   .     A
C296   O347    1.270   .     A
C296   C306    1.437   .     S
C297   C298    1.387   .     A
C297   C320    1.417   .     A
C297   H328    1.077   .     S
C298   H335    1.084   .     S
C298   C831    1.390   .     S
C299   O348    1.276   .     A
C299   O346    1.278   .     A
C299   C305    1.454   .     S
C300   C302    1.404   .     A
C300   C301    1.419   .     A
C300   C829    1.390   1_554 S
C301   C304    1.406   .     A
C301   C321    1.426   .     A
C302   C303    1.392   .     A
C302   H325    1.084   .     S
C303   C315    1.396   .     A
C303   H334    1.083   .     S
C304   C315    1.395   .     A
C304   H333    1.080   .     S
C305   C188    1.334   1_655 S
C305   H211    1.088   1_655 S
C307   C314    1.397   .     A
C307   H326    1.083   .     S
C307   C316    1.393   .     A
C308   C311    1.452   .     S
C308   C486    1.332   .     S
C308   H508    1.088   .     S
C309   C310    1.436   .     S
C310   O349    1.275   .     A
C310   O343    1.275   .     A
C311   O350    1.271   .     A
C311   O344    1.271   .     A
C312   C315    1.454   .     S
C312   O339    1.275   .     A
C312   O341    1.274   .     A
C313   O342    1.284   .     A
C313   O340    1.284   .     A
C313   C314    1.474   .     S
C314   C317    1.398   .     A
C316   H336    1.081   .     S
C316   C319    1.412   .     A
C317   H327    1.076   .     S
C317   C318    1.411   .     A
C318   C319    1.421   .     A
C318   C320    1.423   .     A
C319   C854    1.409   .     S
C320   C852    1.422   .     S
C321   C322    1.422   .     A
C321   C851    1.422   1_554 S
C322   I337    2.155   .     S
C322   C323    1.406   .     A
C323   Cl324   1.773   .     S
C323   C850    1.409   1_554 S
H330   C188    1.086   1_655 S
H332   C486    1.086   .     S
O338   Zn354   1.935   .     S
O338   Zn351   1.952   .     S
O338   Zn352   1.942   .     S
O338   Zn353   1.932   .     S
O339   Zn352   1.925   .     S
O340   Zn354   1.932   .     S
O341   Zn353   1.930   .     S
O342   Zn351   1.924   .     S
O343   Zn351   1.929   .     S
O344   Zn354   1.930   .     S
O345   Zn352   1.928   .     S
O346   Zn353   1.935   .     S
O347   Zn354   1.932   .     S
O348   Zn351   1.925   .     S
O349   Zn352   1.935   .     S
O350   Zn353   1.932   .     S
C355   O404    1.270   .     A
C355   O406    1.270   .     A
C355   C365    1.437   .     S
C356   C357    1.387   .     A
C356   C379    1.417   .     A
C356   H387    1.077   .     S
C357   H394    1.084   .     S
C357   C890    1.390   .     S
C358   O407    1.276   .     A
C358   O405    1.278   .     A
C358   C364    1.454   .     S
C359   C361    1.404   .     A
C359   C360    1.419   .     A
C359   C888    1.390   1_554 S
C360   C363    1.406   .     A
C360   C380    1.426   .     A
C361   C362    1.392   .     A
C361   H384    1.084   .     S
C362   C374    1.396   .     A
C362   H393    1.083   .     S
C363   C374    1.395   .     A
C363   H392    1.080   .     S
C364   C424    1.334   .     S
C364   H447    1.088   .     S
C365   C482    1.334   1_455 S
C365   H507    1.086   1_455 S
C366   C373    1.397   .     A
C366   H385    1.083   .     S
C366   C375    1.393   .     A
C367   C370    1.452   .     S
C367   C14     1.332   1_565 S
C367   H36     1.088   1_565 S
C368   C369    1.436   .     S
C369   O408    1.275   .     A
C369   O402    1.275   .     A
C370   O409    1.271   .     A
C370   O403    1.271   .     A
C371   C374    1.454   .     S
C371   O398    1.275   .     A
C371   O400    1.274   .     A
C372   O401    1.284   .     A
C372   O399    1.284   .     A
C372   C373    1.474   .     S
C373   C376    1.398   .     A
C375   H395    1.081   .     S
C375   C378    1.412   .     A
C376   H386    1.076   .     S
C376   C377    1.411   .     A
C377   C378    1.421   .     A
C377   C379    1.423   .     A
C378   C913    1.409   .     S
C379   C911    1.422   .     S
C380   C381    1.422   .     A
C380   C910    1.422   1_554 S
C381   I396    2.155   .     S
C381   C382    1.406   .     A
C382   Cl383   1.773   .     S
C382   C909    1.409   1_554 S
H388   C482    1.088   1_455 S
H389   C424    1.086   .     S
H391   C14     1.086   1_565 S
O397   Zn413   1.935   .     S
O397   Zn410   1.952   .     S
O397   Zn411   1.942   .     S
O397   Zn412   1.932   .     S
O398   Zn411   1.925   .     S
O399   Zn413   1.932   .     S
O400   Zn412   1.930   .     S
O401   Zn410   1.924   .     S
O402   Zn410   1.929   .     S
O403   Zn413   1.930   .     S
O404   Zn411   1.928   .     S
O405   Zn412   1.935   .     S
O406   Zn413   1.932   .     S
O407   Zn410   1.925   .     S
O408   Zn411   1.935   .     S
O409   Zn412   1.932   .     S
C414   O463    1.270   .     A
C414   O465    1.270   .     A
C414   C424    1.437   .     S
C415   C416    1.387   .     A
C415   C438    1.417   .     A
C415   H446    1.077   .     S
C416   H453    1.084   .     S
C416   C949    1.390   .     S
C417   O466    1.276   .     A
C417   O464    1.278   .     A
C417   C423    1.454   .     S
C418   C420    1.404   .     A
C418   C419    1.419   .     A
C418   C947    1.390   1_554 S
C419   C422    1.406   .     A
C419   C439    1.426   .     A
C420   C421    1.392   .     A
C420   H443    1.084   .     S
C421   C433    1.396   .     A
C421   H452    1.083   .     S
C422   C433    1.395   .     A
C422   H451    1.080   .     S
C423   C483    1.334   .     S
C423   H506    1.088   .     S
C425   C432    1.397   .     A
C425   H444    1.083   .     S
C425   C434    1.393   .     A
C426   C429    1.452   .     S
C426   C73     1.332   1_565 S
C426   H95     1.088   1_565 S
C427   C428    1.436   .     S
C428   O467    1.275   .     A
C428   O461    1.275   .     A
C429   O468    1.271   .     A
C429   O462    1.271   .     A
C430   C433    1.454   .     S
C430   O457    1.275   .     A
C430   O459    1.274   .     A
C431   O460    1.284   .     A
C431   O458    1.284   .     A
C431   C432    1.474   .     S
C432   C435    1.398   .     A
C434   H454    1.081   .     S
C434   C437    1.412   .     A
C435   H445    1.076   .     S
C435   C436    1.411   .     A
C436   C437    1.421   .     A
C436   C438    1.423   .     A
C437   C972    1.409   .     S
C438   C970    1.422   .     S
C439   C440    1.422   .     A
C439   C969    1.422   1_554 S
C440   I455    2.155   .     S
C440   C441    1.406   .     A
C441   Cl442   1.773   .     S
C441   C968    1.409   1_554 S
H448   C483    1.086   .     S
H450   C73     1.086   1_565 S
O456   Zn472   1.935   .     S
O456   Zn469   1.952   .     S
O456   Zn470   1.942   .     S
O456   Zn471   1.932   .     S
O457   Zn470   1.925   .     S
O458   Zn472   1.932   .     S
O459   Zn471   1.930   .     S
O460   Zn469   1.924   .     S
O461   Zn469   1.929   .     S
O462   Zn472   1.930   .     S
O463   Zn470   1.928   .     S
O464   Zn471   1.935   .     S
O465   Zn472   1.932   .     S
O466   Zn469   1.925   .     S
O467   Zn470   1.935   .     S
O468   Zn471   1.932   .     S
C473   O522    1.270   .     A
C473   O524    1.270   .     A
C473   C483    1.437   .     S
C474   C475    1.387   .     A
C474   C497    1.417   .     A
C474   H505    1.077   .     S
C475   H512    1.084   .     S
C475   C1008   1.390   .     S
C476   O525    1.276   .     A
C476   O523    1.278   .     A
C476   C482    1.454   .     S
C477   C479    1.404   .     A
C477   C478    1.419   .     A
C477   C1006   1.390   1_554 S
C478   C481    1.406   .     A
C478   C498    1.426   .     A
C479   C480    1.392   .     A
C479   H502    1.084   .     S
C480   C492    1.396   .     A
C480   H511    1.083   .     S
C481   C492    1.395   .     A
C481   H510    1.080   .     S
C482   C365    1.334   1_655 S
C482   H388    1.088   1_655 S
C484   C491    1.397   .     A
C484   H503    1.083   .     S
C484   C493    1.393   .     A
C485   C488    1.452   .     S
C485   C132    1.332   1_565 S
C485   H154    1.088   1_565 S
C486   C487    1.436   .     S
C487   O526    1.275   .     A
C487   O520    1.275   .     A
C488   O527    1.271   .     A
C488   O521    1.271   .     A
C489   C492    1.454   .     S
C489   O516    1.275   .     A
C489   O518    1.274   .     A
C490   O519    1.284   .     A
C490   O517    1.284   .     A
C490   C491    1.474   .     S
C491   C494    1.398   .     A
C493   H513    1.081   .     S
C493   C496    1.412   .     A
C494   H504    1.076   .     S
C494   C495    1.411   .     A
C495   C496    1.421   .     A
C495   C497    1.423   .     A
C496   C1031   1.409   .     S
C497   C1029   1.422   .     S
C498   C499    1.422   .     A
C498   C1028   1.422   1_554 S
C499   I514    2.155   .     S
C499   C500    1.406   .     A
C500   Cl501   1.773   .     S
C500   C1027   1.409   1_554 S
H507   C365    1.086   1_655 S
H509   C132    1.086   1_565 S
O515   Zn531   1.935   .     S
O515   Zn528   1.952   .     S
O515   Zn529   1.942   .     S
O515   Zn530   1.932   .     S
O516   Zn529   1.925   .     S
O517   Zn531   1.932   .     S
O518   Zn530   1.930   .     S
O519   Zn528   1.924   .     S
O520   Zn528   1.929   .     S
O521   Zn531   1.930   .     S
O522   Zn529   1.928   .     S
O523   Zn530   1.935   .     S
O524   Zn531   1.932   .     S
O525   Zn528   1.925   .     S
O526   Zn529   1.935   .     S
O527   Zn530   1.932   .     S
C532   O581    1.270   .     A
C532   O583    1.270   .     A
C532   C542    1.437   .     S
C533   C534    1.387   .     A
C533   C556    1.417   .     A
C533   H564    1.077   .     S
C534   H571    1.084   .     S
C534   C5      1.390   1_556 S
C535   O584    1.276   .     A
C535   O582    1.278   .     A
C535   C541    1.454   .     S
C536   C538    1.404   .     A
C536   C537    1.419   .     A
C537   C540    1.406   .     A
C537   C557    1.426   .     A
C538   C539    1.392   .     A
C538   H561    1.084   .     S
C539   C551    1.396   .     A
C539   H570    1.083   .     S
C540   C551    1.395   .     A
C540   H569    1.080   .     S
C541   C601    1.334   .     S
C541   H624    1.088   .     S
C542   C659    1.334   1_455 S
C542   H684    1.086   1_455 S
C543   C550    1.397   .     A
C543   H562    1.083   .     S
C543   C552    1.393   .     A
C544   C547    1.452   .     S
C544   C722    1.332   .     S
C544   H744    1.088   .     S
C545   C546    1.436   .     S
C545   C898    1.332   1_545 S
C545   H922    1.086   1_545 S
C546   O585    1.275   .     A
C546   O579    1.275   .     A
C547   O586    1.271   .     A
C547   O580    1.271   .     A
C548   C551    1.454   .     S
C548   O575    1.275   .     A
C548   O577    1.274   .     A
C549   O578    1.284   .     A
C549   O576    1.284   .     A
C549   C550    1.474   .     S
C550   C553    1.398   .     A
C552   H572    1.081   .     S
C552   C555    1.412   .     A
C553   H563    1.076   .     S
C553   C554    1.411   .     A
C554   C555    1.421   .     A
C554   C556    1.423   .     A
C555   C28     1.409   1_556 S
C556   C26     1.422   1_556 S
C557   C558    1.422   .     A
C558   I573    2.155   .     S
C558   C559    1.406   .     A
C559   Cl560   1.773   .     S
H565   C659    1.088   1_455 S
H566   C601    1.086   .     S
H567   C898    1.088   1_545 S
H568   C722    1.086   .     S
O574   Zn590   1.935   .     S
O574   Zn587   1.952   .     S
O574   Zn588   1.942   .     S
O574   Zn589   1.932   .     S
O575   Zn588   1.925   .     S
O576   Zn590   1.932   .     S
O577   Zn589   1.930   .     S
O578   Zn587   1.924   .     S
O579   Zn587   1.929   .     S
O580   Zn590   1.930   .     S
O581   Zn588   1.928   .     S
O582   Zn589   1.935   .     S
O583   Zn590   1.932   .     S
O584   Zn587   1.925   .     S
O585   Zn588   1.935   .     S
O586   Zn589   1.932   .     S
C591   O640    1.270   .     A
C591   O642    1.270   .     A
C591   C601    1.437   .     S
C592   C593    1.387   .     A
C592   C615    1.417   .     A
C592   H623    1.077   .     S
C593   H630    1.084   .     S
C593   C64     1.390   1_556 S
C594   O643    1.276   .     A
C594   O641    1.278   .     A
C594   C600    1.454   .     S
C595   C597    1.404   .     A
C595   C596    1.419   .     A
C596   C599    1.406   .     A
C596   C616    1.426   .     A
C597   C598    1.392   .     A
C597   H620    1.084   .     S
C598   C610    1.396   .     A
C598   H629    1.083   .     S
C599   C610    1.395   .     A
C599   H628    1.080   .     S
C600   C660    1.334   .     S
C600   H683    1.088   .     S
C602   C609    1.397   .     A
C602   H621    1.083   .     S
C602   C611    1.393   .     A
C603   C606    1.452   .     S
C603   C781    1.332   .     S
C603   H803    1.088   .     S
C604   C605    1.436   .     S
C604   C957    1.332   1_545 S
C604   H981    1.086   1_545 S
C605   O644    1.275   .     A
C605   O638    1.275   .     A
C606   O645    1.271   .     A
C606   O639    1.271   .     A
C607   C610    1.454   .     S
C607   O634    1.275   .     A
C607   O636    1.274   .     A
C608   O637    1.284   .     A
C608   O635    1.284   .     A
C608   C609    1.474   .     S
C609   C612    1.398   .     A
C611   H631    1.081   .     S
C611   C614    1.412   .     A
C612   H622    1.076   .     S
C612   C613    1.411   .     A
C613   C614    1.421   .     A
C613   C615    1.423   .     A
C614   C87     1.409   1_556 S
C615   C85     1.422   1_556 S
C616   C617    1.422   .     A
C617   I632    2.155   .     S
C617   C618    1.406   .     A
C618   Cl619   1.773   .     S
H625   C660    1.086   .     S
H626   C957    1.088   1_545 S
H627   C781    1.086   .     S
O633   Zn649   1.935   .     S
O633   Zn646   1.952   .     S
O633   Zn647   1.942   .     S
O633   Zn648   1.932   .     S
O634   Zn647   1.925   .     S
O635   Zn649   1.932   .     S
O636   Zn648   1.930   .     S
O637   Zn646   1.924   .     S
O638   Zn646   1.929   .     S
O639   Zn649   1.930   .     S
O640   Zn647   1.928   .     S
O641   Zn648   1.935   .     S
O642   Zn649   1.932   .     S
O643   Zn646   1.925   .     S
O644   Zn647   1.935   .     S
O645   Zn648   1.932   .     S
C650   O699    1.270   .     A
C650   O701    1.270   .     A
C650   C660    1.437   .     S
C651   C652    1.387   .     A
C651   C674    1.417   .     A
C651   H682    1.077   .     S
C652   H689    1.084   .     S
C652   C123    1.390   1_556 S
C653   O702    1.276   .     A
C653   O700    1.278   .     A
C653   C659    1.454   .     S
C654   C656    1.404   .     A
C654   C655    1.419   .     A
C655   C658    1.406   .     A
C655   C675    1.426   .     A
C656   C657    1.392   .     A
C656   H679    1.084   .     S
C657   C669    1.396   .     A
C657   H688    1.083   .     S
C658   C669    1.395   .     A
C658   H687    1.080   .     S
C659   C542    1.334   1_655 S
C659   H565    1.088   1_655 S
C661   C668    1.397   .     A
C661   H680    1.083   .     S
C661   C670    1.393   .     A
C662   C665    1.452   .     S
C662   C840    1.332   .     S
C662   H862    1.088   .     S
C663   C664    1.436   .     S
C663   C1016   1.332   1_545 S
C663   H1040   1.086   1_545 S
C664   O703    1.275   .     A
C664   O697    1.275   .     A
C665   O704    1.271   .     A
C665   O698    1.271   .     A
C666   C669    1.454   .     S
C666   O693    1.275   .     A
C666   O695    1.274   .     A
C667   O696    1.284   .     A
C667   O694    1.284   .     A
C667   C668    1.474   .     S
C668   C671    1.398   .     A
C670   H690    1.081   .     S
C670   C673    1.412   .     A
C671   H681    1.076   .     S
C671   C672    1.411   .     A
C672   C673    1.421   .     A
C672   C674    1.423   .     A
C673   C146    1.409   1_556 S
C674   C144    1.422   1_556 S
C675   C676    1.422   .     A
C676   I691    2.155   .     S
C676   C677    1.406   .     A
C677   Cl678   1.773   .     S
H684   C542    1.086   1_655 S
H685   C1016   1.088   1_545 S
H686   C840    1.086   .     S
O692   Zn708   1.935   .     S
O692   Zn705   1.952   .     S
O692   Zn706   1.942   .     S
O692   Zn707   1.932   .     S
O693   Zn706   1.925   .     S
O694   Zn708   1.932   .     S
O695   Zn707   1.930   .     S
O696   Zn705   1.924   .     S
O697   Zn705   1.929   .     S
O698   Zn708   1.930   .     S
O699   Zn706   1.928   .     S
O700   Zn707   1.935   .     S
O701   Zn708   1.932   .     S
O702   Zn705   1.925   .     S
O703   Zn706   1.935   .     S
O704   Zn707   1.932   .     S
C709   O758    1.270   .     A
C709   O760    1.270   .     A
C709   C719    1.437   .     S
C710   C711    1.387   .     A
C710   C733    1.417   .     A
C710   H741    1.077   .     S
C711   H748    1.084   .     S
C711   C182    1.390   1_556 S
C712   O761    1.276   .     A
C712   O759    1.278   .     A
C712   C718    1.454   .     S
C713   C715    1.404   .     A
C713   C714    1.419   .     A
C714   C717    1.406   .     A
C714   C734    1.426   .     A
C715   C716    1.392   .     A
C715   H738    1.084   .     S
C716   C728    1.396   .     A
C716   H747    1.083   .     S
C717   C728    1.395   .     A
C717   H746    1.080   .     S
C718   C778    1.334   .     S
C718   H801    1.088   .     S
C719   C836    1.334   1_455 S
C719   H861    1.086   1_455 S
C720   C727    1.397   .     A
C720   H739    1.083   .     S
C720   C729    1.393   .     A
C721   C724    1.452   .     S
C721   C899    1.332   .     S
C721   H921    1.088   .     S
C722   C723    1.436   .     S
C723   O762    1.275   .     A
C723   O756    1.275   .     A
C724   O763    1.271   .     A
C724   O757    1.271   .     A
C725   C728    1.454   .     S
C725   O752    1.275   .     A
C725   O754    1.274   .     A
C726   O755    1.284   .     A
C726   O753    1.284   .     A
C726   C727    1.474   .     S
C727   C730    1.398   .     A
C729   H749    1.081   .     S
C729   C732    1.412   .     A
C730   H740    1.076   .     S
C730   C731    1.411   .     A
C731   C732    1.421   .     A
C731   C733    1.423   .     A
C732   C205    1.409   1_556 S
C733   C203    1.422   1_556 S
C734   C735    1.422   .     A
C735   I750    2.155   .     S
C735   C736    1.406   .     A
C736   Cl737   1.773   .     S
H742   C836    1.088   1_455 S
H743   C778    1.086   .     S
H745   C899    1.086   .     S
O751   Zn767   1.935   .     S
O751   Zn764   1.952   .     S
O751   Zn765   1.942   .     S
O751   Zn766   1.932   .     S
O752   Zn765   1.925   .     S
O753   Zn767   1.932   .     S
O754   Zn766   1.930   .     S
O755   Zn764   1.924   .     S
O756   Zn764   1.929   .     S
O757   Zn767   1.930   .     S
O758   Zn765   1.928   .     S
O759   Zn766   1.935   .     S
O760   Zn767   1.932   .     S
O761   Zn764   1.925   .     S
O762   Zn765   1.935   .     S
O763   Zn766   1.932   .     S
C768   O817    1.270   .     A
C768   O819    1.270   .     A
C768   C778    1.437   .     S
C769   C770    1.387   .     A
C769   C792    1.417   .     A
C769   H800    1.077   .     S
C770   H807    1.084   .     S
C770   C241    1.390   1_556 S
C771   O820    1.276   .     A
C771   O818    1.278   .     A
C771   C777    1.454   .     S
C772   C774    1.404   .     A
C772   C773    1.419   .     A
C773   C776    1.406   .     A
C773   C793    1.426   .     A
C774   C775    1.392   .     A
C774   H797    1.084   .     S
C775   C787    1.396   .     A
C775   H806    1.083   .     S
C776   C787    1.395   .     A
C776   H805    1.080   .     S
C777   C837    1.334   .     S
C777   H860    1.088   .     S
C779   C786    1.397   .     A
C779   H798    1.083   .     S
C779   C788    1.393   .     A
C780   C783    1.452   .     S
C780   C958    1.332   .     S
C780   H980    1.088   .     S
C781   C782    1.436   .     S
C782   O821    1.275   .     A
C782   O815    1.275   .     A
C783   O822    1.271   .     A
C783   O816    1.271   .     A
C784   C787    1.454   .     S
C784   O811    1.275   .     A
C784   O813    1.274   .     A
C785   O814    1.284   .     A
C785   O812    1.284   .     A
C785   C786    1.474   .     S
C786   C789    1.398   .     A
C788   H808    1.081   .     S
C788   C791    1.412   .     A
C789   H799    1.076   .     S
C789   C790    1.411   .     A
C790   C791    1.421   .     A
C790   C792    1.423   .     A
C791   C264    1.409   1_556 S
C792   C262    1.422   1_556 S
C793   C794    1.422   .     A
C794   I809    2.155   .     S
C794   C795    1.406   .     A
C795   Cl796   1.773   .     S
H802   C837    1.086   .     S
H804   C958    1.086   .     S
O810   Zn826   1.935   .     S
O810   Zn823   1.952   .     S
O810   Zn824   1.942   .     S
O810   Zn825   1.932   .     S
O811   Zn824   1.925   .     S
O812   Zn826   1.932   .     S
O813   Zn825   1.930   .     S
O814   Zn823   1.924   .     S
O815   Zn823   1.929   .     S
O816   Zn826   1.930   .     S
O817   Zn824   1.928   .     S
O818   Zn825   1.935   .     S
O819   Zn826   1.932   .     S
O820   Zn823   1.925   .     S
O821   Zn824   1.935   .     S
O822   Zn825   1.932   .     S
C827   O876    1.270   .     A
C827   O878    1.270   .     A
C827   C837    1.437   .     S
C828   C829    1.387   .     A
C828   C851    1.417   .     A
C828   H859    1.077   .     S
C829   H866    1.084   .     S
C829   C300    1.390   1_556 S
C830   O879    1.276   .     A
C830   O877    1.278   .     A
C830   C836    1.454   .     S
C831   C833    1.404   .     A
C831   C832    1.419   .     A
C832   C835    1.406   .     A
C832   C852    1.426   .     A
C833   C834    1.392   .     A
C833   H856    1.084   .     S
C834   C846    1.396   .     A
C834   H865    1.083   .     S
C835   C846    1.395   .     A
C835   H864    1.080   .     S
C836   C719    1.334   1_655 S
C836   H742    1.088   1_655 S
C838   C845    1.397   .     A
C838   H857    1.083   .     S
C838   C847    1.393   .     A
C839   C842    1.452   .     S
C839   C1017   1.332   .     S
C839   H1039   1.088   .     S
C840   C841    1.436   .     S
C841   O880    1.275   .     A
C841   O874    1.275   .     A
C842   O881    1.271   .     A
C842   O875    1.271   .     A
C843   C846    1.454   .     S
C843   O870    1.275   .     A
C843   O872    1.274   .     A
C844   O873    1.284   .     A
C844   O871    1.284   .     A
C844   C845    1.474   .     S
C845   C848    1.398   .     A
C847   H867    1.081   .     S
C847   C850    1.412   .     A
C848   H858    1.076   .     S
C848   C849    1.411   .     A
C849   C850    1.421   .     A
C849   C851    1.423   .     A
C850   C323    1.409   1_556 S
C851   C321    1.422   1_556 S
C852   C853    1.422   .     A
C853   I868    2.155   .     S
C853   C854    1.406   .     A
C854   Cl855   1.773   .     S
H861   C719    1.086   1_655 S
H863   C1017   1.086   .     S
O869   Zn885   1.935   .     S
O869   Zn882   1.952   .     S
O869   Zn883   1.942   .     S
O869   Zn884   1.932   .     S
O870   Zn883   1.925   .     S
O871   Zn885   1.932   .     S
O872   Zn884   1.930   .     S
O873   Zn882   1.924   .     S
O874   Zn882   1.929   .     S
O875   Zn885   1.930   .     S
O876   Zn883   1.928   .     S
O877   Zn884   1.935   .     S
O878   Zn885   1.932   .     S
O879   Zn882   1.925   .     S
O880   Zn883   1.935   .     S
O881   Zn884   1.932   .     S
C886   O935    1.270   .     A
C886   O937    1.270   .     A
C886   C896    1.437   .     S
C887   C888    1.387   .     A
C887   C910    1.417   .     A
C887   H918    1.077   .     S
C888   H925    1.084   .     S
C888   C359    1.390   1_556 S
C889   O938    1.276   .     A
C889   O936    1.278   .     A
C889   C895    1.454   .     S
C890   C892    1.404   .     A
C890   C891    1.419   .     A
C891   C894    1.406   .     A
C891   C911    1.426   .     A
C892   C893    1.392   .     A
C892   H915    1.084   .     S
C893   C905    1.396   .     A
C893   H924    1.083   .     S
C894   C905    1.395   .     A
C894   H923    1.080   .     S
C895   C955    1.334   .     S
C895   H978    1.088   .     S
C896   C1013   1.334   1_455 S
C896   H1038   1.086   1_455 S
C897   C904    1.397   .     A
C897   H916    1.083   .     S
C897   C906    1.393   .     A
C898   C901    1.452   .     S
C898   C545    1.332   1_565 S
C898   H567    1.088   1_565 S
C899   C900    1.436   .     S
C900   O939    1.275   .     A
C900   O933    1.275   .     A
C901   O940    1.271   .     A
C901   O934    1.271   .     A
C902   C905    1.454   .     S
C902   O929    1.275   .     A
C902   O931    1.274   .     A
C903   O932    1.284   .     A
C903   O930    1.284   .     A
C903   C904    1.474   .     S
C904   C907    1.398   .     A
C906   H926    1.081   .     S
C906   C909    1.412   .     A
C907   H917    1.076   .     S
C907   C908    1.411   .     A
C908   C909    1.421   .     A
C908   C910    1.423   .     A
C909   C382    1.409   1_556 S
C910   C380    1.422   1_556 S
C911   C912    1.422   .     A
C912   I927    2.155   .     S
C912   C913    1.406   .     A
C913   Cl914   1.773   .     S
H919   C1013   1.088   1_455 S
H920   C955    1.086   .     S
H922   C545    1.086   1_565 S
O928   Zn944   1.935   .     S
O928   Zn941   1.952   .     S
O928   Zn942   1.942   .     S
O928   Zn943   1.932   .     S
O929   Zn942   1.925   .     S
O930   Zn944   1.932   .     S
O931   Zn943   1.930   .     S
O932   Zn941   1.924   .     S
O933   Zn941   1.929   .     S
O934   Zn944   1.930   .     S
O935   Zn942   1.928   .     S
O936   Zn943   1.935   .     S
O937   Zn944   1.932   .     S
O938   Zn941   1.925   .     S
O939   Zn942   1.935   .     S
O940   Zn943   1.932   .     S
C945   O994    1.270   .     A
C945   O996    1.270   .     A
C945   C955    1.437   .     S
C946   C947    1.387   .     A
C946   C969    1.417   .     A
C946   H977    1.077   .     S
C947   H984    1.084   .     S
C947   C418    1.390   1_556 S
C948   O997    1.276   .     A
C948   O995    1.278   .     A
C948   C954    1.454   .     S
C949   C951    1.404   .     A
C949   C950    1.419   .     A
C950   C953    1.406   .     A
C950   C970    1.426   .     A
C951   C952    1.392   .     A
C951   H974    1.084   .     S
C952   C964    1.396   .     A
C952   H983    1.083   .     S
C953   C964    1.395   .     A
C953   H982    1.080   .     S
C954   C1014   1.334   .     S
C954   H1037   1.088   .     S
C956   C963    1.397   .     A
C956   H975    1.083   .     S
C956   C965    1.393   .     A
C957   C960    1.452   .     S
C957   C604    1.332   1_565 S
C957   H626    1.088   1_565 S
C958   C959    1.436   .     S
C959   O998    1.275   .     A
C959   O992    1.275   .     A
C960   O999    1.271   .     A
C960   O993    1.271   .     A
C961   C964    1.454   .     S
C961   O988    1.275   .     A
C961   O990    1.274   .     A
C962   O991    1.284   .     A
C962   O989    1.284   .     A
C962   C963    1.474   .     S
C963   C966    1.398   .     A
C965   H985    1.081   .     S
C965   C968    1.412   .     A
C966   H976    1.076   .     S
C966   C967    1.411   .     A
C967   C968    1.421   .     A
C967   C969    1.423   .     A
C968   C441    1.409   1_556 S
C969   C439    1.422   1_556 S
C970   C971    1.422   .     A
C971   I986    2.155   .     S
C971   C972    1.406   .     A
C972   Cl973   1.773   .     S
H979   C1014   1.086   .     S
H981   C604    1.086   1_565 S
O987   Zn1003  1.935   .     S
O987   Zn1000  1.952   .     S
O987   Zn1001  1.942   .     S
O987   Zn1002  1.932   .     S
O988   Zn1001  1.925   .     S
O989   Zn1003  1.932   .     S
O990   Zn1002  1.930   .     S
O991   Zn1000  1.924   .     S
O992   Zn1000  1.929   .     S
O993   Zn1003  1.930   .     S
O994   Zn1001  1.928   .     S
O995   Zn1002  1.935   .     S
O996   Zn1003  1.932   .     S
O997   Zn1000  1.925   .     S
O998   Zn1001  1.935   .     S
O999   Zn1002  1.932   .     S
C1004  O1053   1.270   .     A
C1004  O1055   1.270   .     A
C1004  C1014   1.437   .     S
C1005  C1006   1.387   .     A
C1005  C1028   1.417   .     A
C1005  H1036   1.077   .     S
C1006  H1043   1.084   .     S
C1006  C477    1.390   1_556 S
C1007  O1056   1.276   .     A
C1007  O1054   1.278   .     A
C1007  C1013   1.454   .     S
C1008  C1010   1.404   .     A
C1008  C1009   1.419   .     A
C1009  C1012   1.406   .     A
C1009  C1029   1.426   .     A
C1010  C1011   1.392   .     A
C1010  H1033   1.084   .     S
C1011  C1023   1.396   .     A
C1011  H1042   1.083   .     S
C1012  C1023   1.395   .     A
C1012  H1041   1.080   .     S
C1013  C896    1.334   1_655 S
C1013  H919    1.088   1_655 S
C1015  C1022   1.397   .     A
C1015  H1034   1.083   .     S
C1015  C1024   1.393   .     A
C1016  C1019   1.452   .     S
C1016  C663    1.332   1_565 S
C1016  H685    1.088   1_565 S
C1017  C1018   1.436   .     S
C1018  O1057   1.275   .     A
C1018  O1051   1.275   .     A
C1019  O1058   1.271   .     A
C1019  O1052   1.271   .     A
C1020  C1023   1.454   .     S
C1020  O1047   1.275   .     A
C1020  O1049   1.274   .     A
C1021  O1050   1.284   .     A
C1021  O1048   1.284   .     A
C1021  C1022   1.474   .     S
C1022  C1025   1.398   .     A
C1024  H1044   1.081   .     S
C1024  C1027   1.412   .     A
C1025  H1035   1.076   .     S
C1025  C1026   1.411   .     A
C1026  C1027   1.421   .     A
C1026  C1028   1.423   .     A
C1027  C500    1.409   1_556 S
C1028  C498    1.422   1_556 S
C1029  C1030   1.422   .     A
C1030  I1045   2.155   .     S
C1030  C1031   1.406   .     A
C1031  Cl1032  1.773   .     S
H1038  C896    1.086   1_655 S
H1040  C663    1.086   1_565 S
O1046  Zn1062  1.935   .     S
O1046  Zn1059  1.952   .     S
O1046  Zn1060  1.942   .     S
O1046  Zn1061  1.932   .     S
O1047  Zn1060  1.925   .     S
O1048  Zn1062  1.932   .     S
O1049  Zn1061  1.930   .     S
O1050  Zn1059  1.924   .     S
O1051  Zn1059  1.929   .     S
O1052  Zn1062  1.930   .     S
O1053  Zn1060  1.928   .     S
O1054  Zn1061  1.935   .     S
O1055  Zn1062  1.932   .     S
O1056  Zn1059  1.925   .     S
O1057  Zn1060  1.935   .     S
O1058  Zn1061  1.932   .     S
