data_str_m2_o2_o10_pcu_sym.209
_audit_creation_date              2020-01-03
_audit_creation_method            'Materials Studio'
_symmetry_space_group_name_H-M    'P1'
_symmetry_Int_Tables_number       1
_symmetry_cell_setting            triclinic
loop_
_symmetry_equiv_pos_as_xyz
  x,y,z
_cell_length_a                    26.1630
_cell_length_b                    30.2223
_cell_length_c                    27.9521
_cell_angle_alpha                 89.7383
_cell_angle_beta                  97.9218
_cell_angle_gamma                 91.6368
loop_
_atom_site_label
_atom_site_type_symbol
_atom_site_fract_x
_atom_site_fract_y
_atom_site_fract_z
_atom_site_U_iso_or_equiv
_atom_site_adp_type
_atom_site_occupancy
C1     C     0.16795   0.16496   0.25037   0.00000  Uiso   1.00
C2     C     0.16636   0.33472   0.24982   0.00000  Uiso   1.00
C3     C     0.20243   0.27605   0.05865   0.00000  Uiso   1.00
C4     C     0.13551   0.21996   0.44197   0.00000  Uiso   1.00
C5     C     0.20117   0.27642   0.10883   0.00000  Uiso   1.00
C6     C     0.13519   0.22094   0.39157   0.00000  Uiso   1.00
C7     C     0.13195   0.22386   0.10008   0.00000  Uiso   1.00
C8     C     0.19837   0.27884   0.39946   0.00000  Uiso   1.00
C9     C     0.13100   0.22403   0.04962   0.00000  Uiso   1.00
C10    C     0.19816   0.27974   0.44976   0.00000  Uiso   1.00
C11    C     0.16684   0.24992   0.02737   0.00000  Uiso   1.00
C12    C     0.16682   0.24988   0.47265   0.00000  Uiso   1.00
C13    C     0.06799   0.24993   0.23761   0.00000  Uiso   1.00
C14    C     0.26535   0.25010   0.26240   0.00000  Uiso   1.00
C15    C     0.01266   0.24982   0.23084   0.00000  Uiso   1.00
C16    C     0.32069   0.25025   0.26918   0.00000  Uiso   1.00
C17    C     0.19187   0.04641   0.29048   0.00000  Uiso   1.00
C18    C     0.12307   0.45149   0.22902   0.00000  Uiso   1.00
C19    C     0.19281   0.09267   0.29202   0.00000  Uiso   1.00
C20    C     0.12147   0.40518   0.22910   0.00000  Uiso   1.00
C21    C     0.16976   0.11641   0.25105   0.00000  Uiso   1.00
C22    C     0.16581   0.38264   0.24924   0.00000  Uiso   1.00
C23    C     0.14815   0.09320   0.20942   0.00000  Uiso   1.00
C24    C     0.21070   0.40607   0.26845   0.00000  Uiso   1.00
C25    C     0.14779   0.04727   0.20843   0.00000  Uiso   1.00
C26    C     0.21201   0.45199   0.26789   0.00000  Uiso   1.00
C27    C     0.16929   0.02361   0.24903   0.00000  Uiso   1.00
C28    C     0.16818   0.47501   0.24839   0.00000  Uiso   1.00
Cu29   Cu    0.16667   0.25000   0.29821   0.00000  Uiso   1.00
Cu30   Cu    0.16667   0.25001   0.20178   0.00000  Uiso   1.00
H31    H     0.32602   0.24929   0.19406   0.00000  Uiso   1.00
H32    H     0.00735   0.25073   0.30595   0.00000  Uiso   1.00
H33    H     0.20829   0.02796   0.32196   0.00000  Uiso   1.00
H34    H     0.08895   0.46926   0.21460   0.00000  Uiso   1.00
H35    H     0.13096   0.11057   0.17754   0.00000  Uiso   1.00
H36    H     0.24499   0.38873   0.28325   0.00000  Uiso   1.00
H37    H     0.13096   0.03023   0.17577   0.00000  Uiso   1.00
H38    H     0.24742   0.46955   0.28230   0.00000  Uiso   1.00
H39    H     0.23168   0.29654   0.04514   0.00000  Uiso   1.00
H40    H     0.11106   0.19529   0.45615   0.00000  Uiso   1.00
H41    H     0.10153   0.20383   0.02867   0.00000  Uiso   1.00
H42    H     0.22286   0.30423   0.47004   0.00000  Uiso   1.00
N43    N     0.16667   0.25001   0.12934   0.00000  Uiso   1.00
N44    N     0.16667   0.24999   0.37065   0.00000  Uiso   1.00
O45    O     0.16667   0.18573   0.29071   0.00000  Uiso   1.00
O46    O     0.16666   0.31428   0.20928   0.00000  Uiso   1.00
O47    O     0.16667   0.18573   0.20928   0.00000  Uiso   1.00
O48    O     0.16666   0.31427   0.29072   0.00000  Uiso   1.00
O49    O     0.09161   0.25000   0.28132   0.00000  Uiso   1.00
O50    O     0.24172   0.25001   0.21868   0.00000  Uiso   1.00
O51    O     0.09161   0.25000   0.19988   0.00000  Uiso   1.00
O52    O     0.24172   0.25000   0.30011   0.00000  Uiso   1.00
C53    C     0.21986   0.11532   0.33690   0.00000  Uiso   1.00
H54    H     0.19129   0.13145   0.35646   0.00000  Uiso   1.00
H55    H     0.24091   0.09149   0.36224   0.00000  Uiso   1.00
H56    H     0.24862   0.14029   0.32708   0.00000  Uiso   1.00
C57    C     0.07247   0.38041   0.20880   0.00000  Uiso   1.00
H58    H     0.05903   0.35894   0.23719   0.00000  Uiso   1.00
H59    H     0.04107   0.40329   0.19569   0.00000  Uiso   1.00
H60    H     0.07961   0.35954   0.17796   0.00000  Uiso   1.00
C61    C     0.23664   0.30600   0.13793   0.00000  Uiso   1.00
N62    N     0.26524   0.32999   0.16096   0.00000  Uiso   1.00
C63    C     0.10076   0.19052   0.36258   0.00000  Uiso   1.00
N64    N     0.07291   0.16594   0.33958   0.00000  Uiso   1.00
C65    C     0.09488   0.19570   0.11997   0.00000  Uiso   1.00
N66    N     0.06475   0.17301   0.13547   0.00000  Uiso   1.00
C67    C     0.23343   0.30876   0.37923   0.00000  Uiso   1.00
N68    N     0.26194   0.33288   0.36343   0.00000  Uiso   1.00
C69    C     0.50128   0.16496   0.25037   0.00000  Uiso   1.00
C70    C     0.49970   0.33472   0.24982   0.00000  Uiso   1.00
C71    C     0.53576   0.27605   0.05865   0.00000  Uiso   1.00
C72    C     0.46884   0.21996   0.44197   0.00000  Uiso   1.00
C73    C     0.53451   0.27642   0.10883   0.00000  Uiso   1.00
C74    C     0.46853   0.22094   0.39157   0.00000  Uiso   1.00
C75    C     0.46528   0.22386   0.10008   0.00000  Uiso   1.00
C76    C     0.53170   0.27884   0.39946   0.00000  Uiso   1.00
C77    C     0.46434   0.22403   0.04962   0.00000  Uiso   1.00
C78    C     0.53149   0.27974   0.44976   0.00000  Uiso   1.00
C79    C     0.50017   0.24992   0.02737   0.00000  Uiso   1.00
C80    C     0.50015   0.24988   0.47265   0.00000  Uiso   1.00
C81    C     0.40132   0.24993   0.23761   0.00000  Uiso   1.00
C82    C     0.59869   0.25010   0.26240   0.00000  Uiso   1.00
C83    C     0.34600   0.24982   0.23084   0.00000  Uiso   1.00
C84    C     0.65402   0.25025   0.26918   0.00000  Uiso   1.00
C85    C     0.52520   0.04641   0.29048   0.00000  Uiso   1.00
C86    C     0.45641   0.45149   0.22902   0.00000  Uiso   1.00
C87    C     0.52614   0.09267   0.29202   0.00000  Uiso   1.00
C88    C     0.45481   0.40518   0.22910   0.00000  Uiso   1.00
C89    C     0.50309   0.11641   0.25105   0.00000  Uiso   1.00
C90    C     0.49914   0.38264   0.24924   0.00000  Uiso   1.00
C91    C     0.48148   0.09320   0.20942   0.00000  Uiso   1.00
C92    C     0.54403   0.40607   0.26845   0.00000  Uiso   1.00
C93    C     0.48113   0.04727   0.20843   0.00000  Uiso   1.00
C94    C     0.54534   0.45199   0.26789   0.00000  Uiso   1.00
C95    C     0.50262   0.02361   0.24903   0.00000  Uiso   1.00
C96    C     0.50152   0.47501   0.24839   0.00000  Uiso   1.00
Cu97   Cu    0.50000   0.25000   0.29821   0.00000  Uiso   1.00
Cu98   Cu    0.50000   0.25001   0.20178   0.00000  Uiso   1.00
H99    H     0.65936   0.24929   0.19406   0.00000  Uiso   1.00
H100   H     0.34068   0.25073   0.30595   0.00000  Uiso   1.00
H101   H     0.54162   0.02796   0.32196   0.00000  Uiso   1.00
H102   H     0.42228   0.46926   0.21460   0.00000  Uiso   1.00
H103   H     0.46430   0.11057   0.17754   0.00000  Uiso   1.00
H104   H     0.57833   0.38873   0.28325   0.00000  Uiso   1.00
H105   H     0.46429   0.03023   0.17577   0.00000  Uiso   1.00
H106   H     0.58075   0.46955   0.28230   0.00000  Uiso   1.00
H107   H     0.56501   0.29654   0.04514   0.00000  Uiso   1.00
H108   H     0.44439   0.19529   0.45615   0.00000  Uiso   1.00
H109   H     0.43486   0.20383   0.02867   0.00000  Uiso   1.00
H110   H     0.55619   0.30423   0.47004   0.00000  Uiso   1.00
N111   N     0.50000   0.25001   0.12934   0.00000  Uiso   1.00
N112   N     0.50000   0.24999   0.37065   0.00000  Uiso   1.00
O113   O     0.50000   0.18573   0.29071   0.00000  Uiso   1.00
O114   O     0.50000   0.31428   0.20928   0.00000  Uiso   1.00
O115   O     0.50000   0.18573   0.20928   0.00000  Uiso   1.00
O116   O     0.50000   0.31427   0.29072   0.00000  Uiso   1.00
O117   O     0.42495   0.25000   0.28132   0.00000  Uiso   1.00
O118   O     0.57505   0.25001   0.21868   0.00000  Uiso   1.00
O119   O     0.42495   0.25000   0.19988   0.00000  Uiso   1.00
O120   O     0.57505   0.25000   0.30011   0.00000  Uiso   1.00
C121   C     0.55319   0.11532   0.33690   0.00000  Uiso   1.00
H122   H     0.52463   0.13145   0.35646   0.00000  Uiso   1.00
H123   H     0.57424   0.09149   0.36224   0.00000  Uiso   1.00
H124   H     0.58195   0.14029   0.32708   0.00000  Uiso   1.00
C125   C     0.40580   0.38041   0.20880   0.00000  Uiso   1.00
H126   H     0.39236   0.35894   0.23719   0.00000  Uiso   1.00
H127   H     0.37441   0.40329   0.19569   0.00000  Uiso   1.00
H128   H     0.41295   0.35954   0.17796   0.00000  Uiso   1.00
C129   C     0.56998   0.30600   0.13793   0.00000  Uiso   1.00
N130   N     0.59857   0.32999   0.16096   0.00000  Uiso   1.00
C131   C     0.43410   0.19052   0.36258   0.00000  Uiso   1.00
N132   N     0.40625   0.16594   0.33958   0.00000  Uiso   1.00
C133   C     0.42821   0.19570   0.11997   0.00000  Uiso   1.00
N134   N     0.39808   0.17301   0.13547   0.00000  Uiso   1.00
C135   C     0.56676   0.30876   0.37923   0.00000  Uiso   1.00
N136   N     0.59527   0.33288   0.36343   0.00000  Uiso   1.00
C137   C     0.83461   0.16496   0.25037   0.00000  Uiso   1.00
C138   C     0.83303   0.33472   0.24982   0.00000  Uiso   1.00
C139   C     0.86910   0.27605   0.05865   0.00000  Uiso   1.00
C140   C     0.80218   0.21996   0.44197   0.00000  Uiso   1.00
C141   C     0.86784   0.27642   0.10883   0.00000  Uiso   1.00
C142   C     0.80186   0.22094   0.39157   0.00000  Uiso   1.00
C143   C     0.79861   0.22386   0.10008   0.00000  Uiso   1.00
C144   C     0.86503   0.27884   0.39946   0.00000  Uiso   1.00
C145   C     0.79767   0.22403   0.04962   0.00000  Uiso   1.00
C146   C     0.86482   0.27974   0.44976   0.00000  Uiso   1.00
C147   C     0.83350   0.24992   0.02737   0.00000  Uiso   1.00
C148   C     0.83349   0.24988   0.47265   0.00000  Uiso   1.00
C149   C     0.73465   0.24993   0.23761   0.00000  Uiso   1.00
C150   C     0.93202   0.25010   0.26240   0.00000  Uiso   1.00
C151   C     0.67933   0.24982   0.23084   0.00000  Uiso   1.00
C152   C     0.98736   0.25025   0.26918   0.00000  Uiso   1.00
C153   C     0.85854   0.04641   0.29048   0.00000  Uiso   1.00
C154   C     0.78974   0.45149   0.22902   0.00000  Uiso   1.00
C155   C     0.85948   0.09267   0.29202   0.00000  Uiso   1.00
C156   C     0.78814   0.40518   0.22910   0.00000  Uiso   1.00
C157   C     0.83642   0.11641   0.25105   0.00000  Uiso   1.00
C158   C     0.83247   0.38264   0.24924   0.00000  Uiso   1.00
C159   C     0.81482   0.09320   0.20942   0.00000  Uiso   1.00
C160   C     0.87736   0.40607   0.26845   0.00000  Uiso   1.00
C161   C     0.81446   0.04727   0.20843   0.00000  Uiso   1.00
C162   C     0.87867   0.45199   0.26789   0.00000  Uiso   1.00
C163   C     0.83596   0.02361   0.24903   0.00000  Uiso   1.00
C164   C     0.83485   0.47501   0.24839   0.00000  Uiso   1.00
Cu165  Cu    0.83333   0.25000   0.29821   0.00000  Uiso   1.00
Cu166  Cu    0.83333   0.25001   0.20178   0.00000  Uiso   1.00
H167   H     0.99269   0.24929   0.19406   0.00000  Uiso   1.00
H168   H     0.67401   0.25073   0.30595   0.00000  Uiso   1.00
H169   H     0.87495   0.02796   0.32196   0.00000  Uiso   1.00
H170   H     0.75562   0.46926   0.21460   0.00000  Uiso   1.00
H171   H     0.79763   0.11057   0.17754   0.00000  Uiso   1.00
H172   H     0.91166   0.38873   0.28325   0.00000  Uiso   1.00
H173   H     0.79763   0.03023   0.17577   0.00000  Uiso   1.00
H174   H     0.91408   0.46955   0.28230   0.00000  Uiso   1.00
H175   H     0.89835   0.29654   0.04514   0.00000  Uiso   1.00
H176   H     0.77773   0.19529   0.45615   0.00000  Uiso   1.00
H177   H     0.76820   0.20383   0.02867   0.00000  Uiso   1.00
H178   H     0.88952   0.30423   0.47004   0.00000  Uiso   1.00
N179   N     0.83333   0.25001   0.12934   0.00000  Uiso   1.00
N180   N     0.83333   0.24999   0.37065   0.00000  Uiso   1.00
O181   O     0.83334   0.18573   0.29071   0.00000  Uiso   1.00
O182   O     0.83333   0.31428   0.20928   0.00000  Uiso   1.00
O183   O     0.83334   0.18573   0.20928   0.00000  Uiso   1.00
O184   O     0.83333   0.31427   0.29072   0.00000  Uiso   1.00
O185   O     0.75828   0.25000   0.28132   0.00000  Uiso   1.00
O186   O     0.90839   0.25001   0.21868   0.00000  Uiso   1.00
O187   O     0.75828   0.25000   0.19988   0.00000  Uiso   1.00
O188   O     0.90839   0.25000   0.30011   0.00000  Uiso   1.00
C189   C     0.88653   0.11532   0.33690   0.00000  Uiso   1.00
H190   H     0.85796   0.13145   0.35646   0.00000  Uiso   1.00
H191   H     0.90757   0.09149   0.36224   0.00000  Uiso   1.00
H192   H     0.91529   0.14029   0.32708   0.00000  Uiso   1.00
C193   C     0.73913   0.38041   0.20880   0.00000  Uiso   1.00
H194   H     0.72570   0.35894   0.23719   0.00000  Uiso   1.00
H195   H     0.70774   0.40329   0.19569   0.00000  Uiso   1.00
H196   H     0.74628   0.35954   0.17796   0.00000  Uiso   1.00
C197   C     0.90331   0.30600   0.13793   0.00000  Uiso   1.00
N198   N     0.93190   0.32999   0.16096   0.00000  Uiso   1.00
C199   C     0.76743   0.19052   0.36258   0.00000  Uiso   1.00
N200   N     0.73958   0.16594   0.33958   0.00000  Uiso   1.00
C201   C     0.76154   0.19570   0.11997   0.00000  Uiso   1.00
N202   N     0.73142   0.17301   0.13547   0.00000  Uiso   1.00
C203   C     0.90009   0.30876   0.37923   0.00000  Uiso   1.00
N204   N     0.92861   0.33288   0.36343   0.00000  Uiso   1.00
C205   C     0.16795   0.66496   0.25037   0.00000  Uiso   1.00
C206   C     0.16636   0.83472   0.24982   0.00000  Uiso   1.00
C207   C     0.20243   0.77605   0.05865   0.00000  Uiso   1.00
C208   C     0.13551   0.71996   0.44197   0.00000  Uiso   1.00
C209   C     0.20117   0.77642   0.10883   0.00000  Uiso   1.00
C210   C     0.13519   0.72094   0.39157   0.00000  Uiso   1.00
C211   C     0.13195   0.72386   0.10008   0.00000  Uiso   1.00
C212   C     0.19837   0.77884   0.39946   0.00000  Uiso   1.00
C213   C     0.13100   0.72403   0.04962   0.00000  Uiso   1.00
C214   C     0.19816   0.77974   0.44976   0.00000  Uiso   1.00
C215   C     0.16684   0.74992   0.02737   0.00000  Uiso   1.00
C216   C     0.16682   0.74988   0.47265   0.00000  Uiso   1.00
C217   C     0.06799   0.74993   0.23761   0.00000  Uiso   1.00
C218   C     0.26535   0.75010   0.26240   0.00000  Uiso   1.00
C219   C     0.01266   0.74982   0.23084   0.00000  Uiso   1.00
C220   C     0.32069   0.75025   0.26918   0.00000  Uiso   1.00
C221   C     0.19187   0.54641   0.29048   0.00000  Uiso   1.00
C222   C     0.12307   0.95149   0.22902   0.00000  Uiso   1.00
C223   C     0.19281   0.59267   0.29202   0.00000  Uiso   1.00
C224   C     0.12147   0.90518   0.22910   0.00000  Uiso   1.00
C225   C     0.16976   0.61641   0.25105   0.00000  Uiso   1.00
C226   C     0.16581   0.88264   0.24924   0.00000  Uiso   1.00
C227   C     0.14815   0.59320   0.20942   0.00000  Uiso   1.00
C228   C     0.21070   0.90607   0.26845   0.00000  Uiso   1.00
C229   C     0.14779   0.54727   0.20843   0.00000  Uiso   1.00
C230   C     0.21201   0.95199   0.26789   0.00000  Uiso   1.00
C231   C     0.16929   0.52361   0.24903   0.00000  Uiso   1.00
C232   C     0.16818   0.97501   0.24839   0.00000  Uiso   1.00
Cu233  Cu    0.16667   0.75000   0.29821   0.00000  Uiso   1.00
Cu234  Cu    0.16667   0.75001   0.20178   0.00000  Uiso   1.00
H235   H     0.32602   0.74929   0.19406   0.00000  Uiso   1.00
H236   H     0.00735   0.75073   0.30595   0.00000  Uiso   1.00
H237   H     0.20829   0.52796   0.32196   0.00000  Uiso   1.00
H238   H     0.08895   0.96926   0.21460   0.00000  Uiso   1.00
H239   H     0.13096   0.61057   0.17754   0.00000  Uiso   1.00
H240   H     0.24499   0.88873   0.28325   0.00000  Uiso   1.00
H241   H     0.13096   0.53023   0.17577   0.00000  Uiso   1.00
H242   H     0.24742   0.96955   0.28230   0.00000  Uiso   1.00
H243   H     0.23168   0.79654   0.04514   0.00000  Uiso   1.00
H244   H     0.11106   0.69529   0.45615   0.00000  Uiso   1.00
H245   H     0.10153   0.70383   0.02867   0.00000  Uiso   1.00
H246   H     0.22286   0.80423   0.47004   0.00000  Uiso   1.00
N247   N     0.16667   0.75001   0.12934   0.00000  Uiso   1.00
N248   N     0.16667   0.74999   0.37065   0.00000  Uiso   1.00
O249   O     0.16667   0.68573   0.29071   0.00000  Uiso   1.00
O250   O     0.16666   0.81428   0.20928   0.00000  Uiso   1.00
O251   O     0.16667   0.68573   0.20928   0.00000  Uiso   1.00
O252   O     0.16666   0.81427   0.29072   0.00000  Uiso   1.00
O253   O     0.09161   0.75000   0.28132   0.00000  Uiso   1.00
O254   O     0.24172   0.75001   0.21868   0.00000  Uiso   1.00
O255   O     0.09161   0.75000   0.19988   0.00000  Uiso   1.00
O256   O     0.24172   0.75000   0.30011   0.00000  Uiso   1.00
C257   C     0.21986   0.61532   0.33690   0.00000  Uiso   1.00
H258   H     0.19129   0.63145   0.35646   0.00000  Uiso   1.00
H259   H     0.24091   0.59149   0.36224   0.00000  Uiso   1.00
H260   H     0.24862   0.64029   0.32708   0.00000  Uiso   1.00
C261   C     0.07247   0.88041   0.20880   0.00000  Uiso   1.00
H262   H     0.05903   0.85894   0.23719   0.00000  Uiso   1.00
H263   H     0.04107   0.90329   0.19569   0.00000  Uiso   1.00
H264   H     0.07961   0.85954   0.17796   0.00000  Uiso   1.00
C265   C     0.23664   0.80600   0.13793   0.00000  Uiso   1.00
N266   N     0.26524   0.82999   0.16096   0.00000  Uiso   1.00
C267   C     0.10076   0.69052   0.36258   0.00000  Uiso   1.00
N268   N     0.07291   0.66594   0.33958   0.00000  Uiso   1.00
C269   C     0.09488   0.69570   0.11997   0.00000  Uiso   1.00
N270   N     0.06475   0.67301   0.13547   0.00000  Uiso   1.00
C271   C     0.23343   0.80876   0.37923   0.00000  Uiso   1.00
N272   N     0.26194   0.83288   0.36343   0.00000  Uiso   1.00
C273   C     0.50128   0.66496   0.25037   0.00000  Uiso   1.00
C274   C     0.49970   0.83472   0.24982   0.00000  Uiso   1.00
C275   C     0.53576   0.77605   0.05865   0.00000  Uiso   1.00
C276   C     0.46884   0.71996   0.44197   0.00000  Uiso   1.00
C277   C     0.53451   0.77642   0.10883   0.00000  Uiso   1.00
C278   C     0.46853   0.72094   0.39157   0.00000  Uiso   1.00
C279   C     0.46528   0.72386   0.10008   0.00000  Uiso   1.00
C280   C     0.53170   0.77884   0.39946   0.00000  Uiso   1.00
C281   C     0.46434   0.72403   0.04962   0.00000  Uiso   1.00
C282   C     0.53149   0.77974   0.44976   0.00000  Uiso   1.00
C283   C     0.50017   0.74992   0.02737   0.00000  Uiso   1.00
C284   C     0.50015   0.74988   0.47265   0.00000  Uiso   1.00
C285   C     0.40132   0.74993   0.23761   0.00000  Uiso   1.00
C286   C     0.59869   0.75010   0.26240   0.00000  Uiso   1.00
C287   C     0.34600   0.74982   0.23084   0.00000  Uiso   1.00
C288   C     0.65402   0.75025   0.26918   0.00000  Uiso   1.00
C289   C     0.52520   0.54641   0.29048   0.00000  Uiso   1.00
C290   C     0.45641   0.95149   0.22902   0.00000  Uiso   1.00
C291   C     0.52614   0.59267   0.29202   0.00000  Uiso   1.00
C292   C     0.45481   0.90518   0.22910   0.00000  Uiso   1.00
C293   C     0.50309   0.61641   0.25105   0.00000  Uiso   1.00
C294   C     0.49914   0.88264   0.24924   0.00000  Uiso   1.00
C295   C     0.48148   0.59320   0.20942   0.00000  Uiso   1.00
C296   C     0.54403   0.90607   0.26845   0.00000  Uiso   1.00
C297   C     0.48113   0.54727   0.20843   0.00000  Uiso   1.00
C298   C     0.54534   0.95199   0.26789   0.00000  Uiso   1.00
C299   C     0.50262   0.52361   0.24903   0.00000  Uiso   1.00
C300   C     0.50152   0.97501   0.24839   0.00000  Uiso   1.00
Cu301  Cu    0.50000   0.75000   0.29821   0.00000  Uiso   1.00
Cu302  Cu    0.50000   0.75001   0.20178   0.00000  Uiso   1.00
H303   H     0.65936   0.74929   0.19406   0.00000  Uiso   1.00
H304   H     0.34068   0.75073   0.30595   0.00000  Uiso   1.00
H305   H     0.54162   0.52796   0.32196   0.00000  Uiso   1.00
H306   H     0.42228   0.96926   0.21460   0.00000  Uiso   1.00
H307   H     0.46430   0.61057   0.17754   0.00000  Uiso   1.00
H308   H     0.57833   0.88873   0.28325   0.00000  Uiso   1.00
H309   H     0.46429   0.53023   0.17577   0.00000  Uiso   1.00
H310   H     0.58075   0.96955   0.28230   0.00000  Uiso   1.00
H311   H     0.56501   0.79654   0.04514   0.00000  Uiso   1.00
H312   H     0.44439   0.69529   0.45615   0.00000  Uiso   1.00
H313   H     0.43486   0.70383   0.02867   0.00000  Uiso   1.00
H314   H     0.55619   0.80423   0.47004   0.00000  Uiso   1.00
N315   N     0.50000   0.75001   0.12934   0.00000  Uiso   1.00
N316   N     0.50000   0.74999   0.37065   0.00000  Uiso   1.00
O317   O     0.50000   0.68573   0.29071   0.00000  Uiso   1.00
O318   O     0.50000   0.81428   0.20928   0.00000  Uiso   1.00
O319   O     0.50000   0.68573   0.20928   0.00000  Uiso   1.00
O320   O     0.50000   0.81427   0.29072   0.00000  Uiso   1.00
O321   O     0.42495   0.75000   0.28132   0.00000  Uiso   1.00
O322   O     0.57505   0.75001   0.21868   0.00000  Uiso   1.00
O323   O     0.42495   0.75000   0.19988   0.00000  Uiso   1.00
O324   O     0.57505   0.75000   0.30011   0.00000  Uiso   1.00
C325   C     0.55319   0.61532   0.33690   0.00000  Uiso   1.00
H326   H     0.52463   0.63145   0.35646   0.00000  Uiso   1.00
H327   H     0.57424   0.59149   0.36224   0.00000  Uiso   1.00
H328   H     0.58195   0.64029   0.32708   0.00000  Uiso   1.00
C329   C     0.40580   0.88041   0.20880   0.00000  Uiso   1.00
H330   H     0.39236   0.85894   0.23719   0.00000  Uiso   1.00
H331   H     0.37441   0.90329   0.19569   0.00000  Uiso   1.00
H332   H     0.41295   0.85954   0.17796   0.00000  Uiso   1.00
C333   C     0.56998   0.80600   0.13793   0.00000  Uiso   1.00
N334   N     0.59857   0.82999   0.16096   0.00000  Uiso   1.00
C335   C     0.43410   0.69052   0.36258   0.00000  Uiso   1.00
N336   N     0.40625   0.66594   0.33958   0.00000  Uiso   1.00
C337   C     0.42821   0.69570   0.11997   0.00000  Uiso   1.00
N338   N     0.39808   0.67301   0.13547   0.00000  Uiso   1.00
C339   C     0.56676   0.80876   0.37923   0.00000  Uiso   1.00
N340   N     0.59527   0.83288   0.36343   0.00000  Uiso   1.00
C341   C     0.83461   0.66496   0.25037   0.00000  Uiso   1.00
C342   C     0.83303   0.83472   0.24982   0.00000  Uiso   1.00
C343   C     0.86910   0.77605   0.05865   0.00000  Uiso   1.00
C344   C     0.80218   0.71996   0.44197   0.00000  Uiso   1.00
C345   C     0.86784   0.77642   0.10883   0.00000  Uiso   1.00
C346   C     0.80186   0.72094   0.39157   0.00000  Uiso   1.00
C347   C     0.79861   0.72386   0.10008   0.00000  Uiso   1.00
C348   C     0.86503   0.77884   0.39946   0.00000  Uiso   1.00
C349   C     0.79767   0.72403   0.04962   0.00000  Uiso   1.00
C350   C     0.86482   0.77974   0.44976   0.00000  Uiso   1.00
C351   C     0.83350   0.74992   0.02737   0.00000  Uiso   1.00
C352   C     0.83349   0.74988   0.47265   0.00000  Uiso   1.00
C353   C     0.73465   0.74993   0.23761   0.00000  Uiso   1.00
C354   C     0.93202   0.75010   0.26240   0.00000  Uiso   1.00
C355   C     0.67933   0.74982   0.23084   0.00000  Uiso   1.00
C356   C     0.98736   0.75025   0.26918   0.00000  Uiso   1.00
C357   C     0.85854   0.54641   0.29048   0.00000  Uiso   1.00
C358   C     0.78974   0.95149   0.22902   0.00000  Uiso   1.00
C359   C     0.85948   0.59267   0.29202   0.00000  Uiso   1.00
C360   C     0.78814   0.90518   0.22910   0.00000  Uiso   1.00
C361   C     0.83642   0.61641   0.25105   0.00000  Uiso   1.00
C362   C     0.83247   0.88264   0.24924   0.00000  Uiso   1.00
C363   C     0.81482   0.59320   0.20942   0.00000  Uiso   1.00
C364   C     0.87736   0.90607   0.26845   0.00000  Uiso   1.00
C365   C     0.81446   0.54727   0.20843   0.00000  Uiso   1.00
C366   C     0.87867   0.95199   0.26789   0.00000  Uiso   1.00
C367   C     0.83596   0.52361   0.24903   0.00000  Uiso   1.00
C368   C     0.83485   0.97501   0.24839   0.00000  Uiso   1.00
Cu369  Cu    0.83333   0.75000   0.29821   0.00000  Uiso   1.00
Cu370  Cu    0.83333   0.75001   0.20178   0.00000  Uiso   1.00
H371   H     0.99269   0.74929   0.19406   0.00000  Uiso   1.00
H372   H     0.67401   0.75073   0.30595   0.00000  Uiso   1.00
H373   H     0.87495   0.52796   0.32196   0.00000  Uiso   1.00
H374   H     0.75562   0.96926   0.21460   0.00000  Uiso   1.00
H375   H     0.79763   0.61057   0.17754   0.00000  Uiso   1.00
H376   H     0.91166   0.88873   0.28325   0.00000  Uiso   1.00
H377   H     0.79763   0.53023   0.17577   0.00000  Uiso   1.00
H378   H     0.91408   0.96955   0.28230   0.00000  Uiso   1.00
H379   H     0.89835   0.79654   0.04514   0.00000  Uiso   1.00
H380   H     0.77773   0.69529   0.45615   0.00000  Uiso   1.00
H381   H     0.76820   0.70383   0.02867   0.00000  Uiso   1.00
H382   H     0.88952   0.80423   0.47004   0.00000  Uiso   1.00
N383   N     0.83333   0.75001   0.12934   0.00000  Uiso   1.00
N384   N     0.83333   0.74999   0.37065   0.00000  Uiso   1.00
O385   O     0.83334   0.68573   0.29071   0.00000  Uiso   1.00
O386   O     0.83333   0.81428   0.20928   0.00000  Uiso   1.00
O387   O     0.83334   0.68573   0.20928   0.00000  Uiso   1.00
O388   O     0.83333   0.81427   0.29072   0.00000  Uiso   1.00
O389   O     0.75828   0.75000   0.28132   0.00000  Uiso   1.00
O390   O     0.90839   0.75001   0.21868   0.00000  Uiso   1.00
O391   O     0.75828   0.75000   0.19988   0.00000  Uiso   1.00
O392   O     0.90839   0.75000   0.30011   0.00000  Uiso   1.00
C393   C     0.88653   0.61532   0.33690   0.00000  Uiso   1.00
H394   H     0.85796   0.63145   0.35646   0.00000  Uiso   1.00
H395   H     0.90757   0.59149   0.36224   0.00000  Uiso   1.00
H396   H     0.91529   0.64029   0.32708   0.00000  Uiso   1.00
C397   C     0.73913   0.88041   0.20880   0.00000  Uiso   1.00
H398   H     0.72570   0.85894   0.23719   0.00000  Uiso   1.00
H399   H     0.70774   0.90329   0.19569   0.00000  Uiso   1.00
H400   H     0.74628   0.85954   0.17796   0.00000  Uiso   1.00
C401   C     0.90331   0.80600   0.13793   0.00000  Uiso   1.00
N402   N     0.93190   0.82999   0.16096   0.00000  Uiso   1.00
C403   C     0.76743   0.69052   0.36258   0.00000  Uiso   1.00
N404   N     0.73958   0.66594   0.33958   0.00000  Uiso   1.00
C405   C     0.76154   0.69570   0.11997   0.00000  Uiso   1.00
N406   N     0.73142   0.67301   0.13547   0.00000  Uiso   1.00
C407   C     0.90009   0.80876   0.37923   0.00000  Uiso   1.00
N408   N     0.92861   0.83288   0.36343   0.00000  Uiso   1.00
C409   C     0.16795   0.16496   0.75037   0.00000  Uiso   1.00
C410   C     0.16636   0.33472   0.74982   0.00000  Uiso   1.00
C411   C     0.20243   0.27605   0.55865   0.00000  Uiso   1.00
C412   C     0.13551   0.21996   0.94197   0.00000  Uiso   1.00
C413   C     0.20117   0.27642   0.60883   0.00000  Uiso   1.00
C414   C     0.13519   0.22094   0.89157   0.00000  Uiso   1.00
C415   C     0.13195   0.22386   0.60008   0.00000  Uiso   1.00
C416   C     0.19837   0.27884   0.89946   0.00000  Uiso   1.00
C417   C     0.13100   0.22403   0.54962   0.00000  Uiso   1.00
C418   C     0.19816   0.27974   0.94976   0.00000  Uiso   1.00
C419   C     0.16684   0.24992   0.52737   0.00000  Uiso   1.00
C420   C     0.16682   0.24988   0.97265   0.00000  Uiso   1.00
C421   C     0.06799   0.24993   0.73761   0.00000  Uiso   1.00
C422   C     0.26535   0.25010   0.76240   0.00000  Uiso   1.00
C423   C     0.01266   0.24982   0.73084   0.00000  Uiso   1.00
C424   C     0.32069   0.25025   0.76918   0.00000  Uiso   1.00
C425   C     0.19187   0.04641   0.79048   0.00000  Uiso   1.00
C426   C     0.12307   0.45149   0.72902   0.00000  Uiso   1.00
C427   C     0.19281   0.09267   0.79202   0.00000  Uiso   1.00
C428   C     0.12147   0.40518   0.72910   0.00000  Uiso   1.00
C429   C     0.16976   0.11641   0.75105   0.00000  Uiso   1.00
C430   C     0.16581   0.38264   0.74924   0.00000  Uiso   1.00
C431   C     0.14815   0.09320   0.70942   0.00000  Uiso   1.00
C432   C     0.21070   0.40607   0.76845   0.00000  Uiso   1.00
C433   C     0.14779   0.04727   0.70843   0.00000  Uiso   1.00
C434   C     0.21201   0.45199   0.76789   0.00000  Uiso   1.00
C435   C     0.16929   0.02361   0.74903   0.00000  Uiso   1.00
C436   C     0.16818   0.47501   0.74839   0.00000  Uiso   1.00
Cu437  Cu    0.16667   0.25000   0.79821   0.00000  Uiso   1.00
Cu438  Cu    0.16667   0.25001   0.70178   0.00000  Uiso   1.00
H439   H     0.32602   0.24929   0.69406   0.00000  Uiso   1.00
H440   H     0.00735   0.25073   0.80595   0.00000  Uiso   1.00
H441   H     0.20829   0.02796   0.82196   0.00000  Uiso   1.00
H442   H     0.08895   0.46926   0.71460   0.00000  Uiso   1.00
H443   H     0.13096   0.11057   0.67754   0.00000  Uiso   1.00
H444   H     0.24499   0.38873   0.78325   0.00000  Uiso   1.00
H445   H     0.13096   0.03023   0.67577   0.00000  Uiso   1.00
H446   H     0.24742   0.46955   0.78230   0.00000  Uiso   1.00
H447   H     0.23168   0.29654   0.54514   0.00000  Uiso   1.00
H448   H     0.11106   0.19529   0.95615   0.00000  Uiso   1.00
H449   H     0.10153   0.20383   0.52867   0.00000  Uiso   1.00
H450   H     0.22286   0.30423   0.97004   0.00000  Uiso   1.00
N451   N     0.16667   0.25001   0.62934   0.00000  Uiso   1.00
N452   N     0.16667   0.24999   0.87065   0.00000  Uiso   1.00
O453   O     0.16667   0.18573   0.79071   0.00000  Uiso   1.00
O454   O     0.16666   0.31428   0.70928   0.00000  Uiso   1.00
O455   O     0.16667   0.18573   0.70928   0.00000  Uiso   1.00
O456   O     0.16666   0.31427   0.79072   0.00000  Uiso   1.00
O457   O     0.09161   0.25000   0.78132   0.00000  Uiso   1.00
O458   O     0.24172   0.25001   0.71868   0.00000  Uiso   1.00
O459   O     0.09161   0.25000   0.69988   0.00000  Uiso   1.00
O460   O     0.24172   0.25000   0.80011   0.00000  Uiso   1.00
C461   C     0.21986   0.11532   0.83690   0.00000  Uiso   1.00
H462   H     0.19129   0.13145   0.85646   0.00000  Uiso   1.00
H463   H     0.24091   0.09149   0.86224   0.00000  Uiso   1.00
H464   H     0.24862   0.14029   0.82708   0.00000  Uiso   1.00
C465   C     0.07247   0.38041   0.70880   0.00000  Uiso   1.00
H466   H     0.05903   0.35894   0.73719   0.00000  Uiso   1.00
H467   H     0.04107   0.40329   0.69569   0.00000  Uiso   1.00
H468   H     0.07961   0.35954   0.67796   0.00000  Uiso   1.00
C469   C     0.23664   0.30600   0.63793   0.00000  Uiso   1.00
N470   N     0.26524   0.32999   0.66096   0.00000  Uiso   1.00
C471   C     0.10076   0.19052   0.86258   0.00000  Uiso   1.00
N472   N     0.07291   0.16594   0.83958   0.00000  Uiso   1.00
C473   C     0.09488   0.19570   0.61997   0.00000  Uiso   1.00
N474   N     0.06475   0.17301   0.63547   0.00000  Uiso   1.00
C475   C     0.23343   0.30876   0.87923   0.00000  Uiso   1.00
N476   N     0.26194   0.33288   0.86343   0.00000  Uiso   1.00
C477   C     0.50128   0.16496   0.75037   0.00000  Uiso   1.00
C478   C     0.49970   0.33472   0.74982   0.00000  Uiso   1.00
C479   C     0.53576   0.27605   0.55865   0.00000  Uiso   1.00
C480   C     0.46884   0.21996   0.94197   0.00000  Uiso   1.00
C481   C     0.53451   0.27642   0.60883   0.00000  Uiso   1.00
C482   C     0.46853   0.22094   0.89157   0.00000  Uiso   1.00
C483   C     0.46528   0.22386   0.60008   0.00000  Uiso   1.00
C484   C     0.53170   0.27884   0.89946   0.00000  Uiso   1.00
C485   C     0.46434   0.22403   0.54962   0.00000  Uiso   1.00
C486   C     0.53149   0.27974   0.94976   0.00000  Uiso   1.00
C487   C     0.50017   0.24992   0.52737   0.00000  Uiso   1.00
C488   C     0.50015   0.24988   0.97265   0.00000  Uiso   1.00
C489   C     0.40132   0.24993   0.73761   0.00000  Uiso   1.00
C490   C     0.59869   0.25010   0.76240   0.00000  Uiso   1.00
C491   C     0.34600   0.24982   0.73084   0.00000  Uiso   1.00
C492   C     0.65402   0.25025   0.76918   0.00000  Uiso   1.00
C493   C     0.52520   0.04641   0.79048   0.00000  Uiso   1.00
C494   C     0.45641   0.45149   0.72902   0.00000  Uiso   1.00
C495   C     0.52614   0.09267   0.79202   0.00000  Uiso   1.00
C496   C     0.45481   0.40518   0.72910   0.00000  Uiso   1.00
C497   C     0.50309   0.11641   0.75105   0.00000  Uiso   1.00
C498   C     0.49914   0.38264   0.74924   0.00000  Uiso   1.00
C499   C     0.48148   0.09320   0.70942   0.00000  Uiso   1.00
C500   C     0.54403   0.40607   0.76845   0.00000  Uiso   1.00
C501   C     0.48113   0.04727   0.70843   0.00000  Uiso   1.00
C502   C     0.54534   0.45199   0.76789   0.00000  Uiso   1.00
C503   C     0.50262   0.02361   0.74903   0.00000  Uiso   1.00
C504   C     0.50152   0.47501   0.74839   0.00000  Uiso   1.00
Cu505  Cu    0.50000   0.25000   0.79821   0.00000  Uiso   1.00
Cu506  Cu    0.50000   0.25001   0.70178   0.00000  Uiso   1.00
H507   H     0.65936   0.24929   0.69406   0.00000  Uiso   1.00
H508   H     0.34068   0.25073   0.80595   0.00000  Uiso   1.00
H509   H     0.54162   0.02796   0.82196   0.00000  Uiso   1.00
H510   H     0.42228   0.46926   0.71460   0.00000  Uiso   1.00
H511   H     0.46430   0.11057   0.67754   0.00000  Uiso   1.00
H512   H     0.57833   0.38873   0.78325   0.00000  Uiso   1.00
H513   H     0.46429   0.03023   0.67577   0.00000  Uiso   1.00
H514   H     0.58075   0.46955   0.78230   0.00000  Uiso   1.00
H515   H     0.56501   0.29654   0.54514   0.00000  Uiso   1.00
H516   H     0.44439   0.19529   0.95615   0.00000  Uiso   1.00
H517   H     0.43486   0.20383   0.52867   0.00000  Uiso   1.00
H518   H     0.55619   0.30423   0.97004   0.00000  Uiso   1.00
N519   N     0.50000   0.25001   0.62934   0.00000  Uiso   1.00
N520   N     0.50000   0.24999   0.87065   0.00000  Uiso   1.00
O521   O     0.50000   0.18573   0.79071   0.00000  Uiso   1.00
O522   O     0.50000   0.31428   0.70928   0.00000  Uiso   1.00
O523   O     0.50000   0.18573   0.70928   0.00000  Uiso   1.00
O524   O     0.50000   0.31427   0.79072   0.00000  Uiso   1.00
O525   O     0.42495   0.25000   0.78132   0.00000  Uiso   1.00
O526   O     0.57505   0.25001   0.71868   0.00000  Uiso   1.00
O527   O     0.42495   0.25000   0.69988   0.00000  Uiso   1.00
O528   O     0.57505   0.25000   0.80011   0.00000  Uiso   1.00
C529   C     0.55319   0.11532   0.83690   0.00000  Uiso   1.00
H530   H     0.52463   0.13145   0.85646   0.00000  Uiso   1.00
H531   H     0.57424   0.09149   0.86224   0.00000  Uiso   1.00
H532   H     0.58195   0.14029   0.82708   0.00000  Uiso   1.00
C533   C     0.40580   0.38041   0.70880   0.00000  Uiso   1.00
H534   H     0.39236   0.35894   0.73719   0.00000  Uiso   1.00
H535   H     0.37441   0.40329   0.69569   0.00000  Uiso   1.00
H536   H     0.41295   0.35954   0.67796   0.00000  Uiso   1.00
C537   C     0.56998   0.30600   0.63793   0.00000  Uiso   1.00
N538   N     0.59857   0.32999   0.66096   0.00000  Uiso   1.00
C539   C     0.43410   0.19052   0.86258   0.00000  Uiso   1.00
N540   N     0.40625   0.16594   0.83958   0.00000  Uiso   1.00
C541   C     0.42821   0.19570   0.61997   0.00000  Uiso   1.00
N542   N     0.39808   0.17301   0.63547   0.00000  Uiso   1.00
C543   C     0.56676   0.30876   0.87923   0.00000  Uiso   1.00
N544   N     0.59527   0.33288   0.86343   0.00000  Uiso   1.00
C545   C     0.83461   0.16496   0.75037   0.00000  Uiso   1.00
C546   C     0.83303   0.33472   0.74982   0.00000  Uiso   1.00
C547   C     0.86910   0.27605   0.55865   0.00000  Uiso   1.00
C548   C     0.80218   0.21996   0.94197   0.00000  Uiso   1.00
C549   C     0.86784   0.27642   0.60883   0.00000  Uiso   1.00
C550   C     0.80186   0.22094   0.89157   0.00000  Uiso   1.00
C551   C     0.79861   0.22386   0.60008   0.00000  Uiso   1.00
C552   C     0.86503   0.27884   0.89946   0.00000  Uiso   1.00
C553   C     0.79767   0.22403   0.54962   0.00000  Uiso   1.00
C554   C     0.86482   0.27974   0.94976   0.00000  Uiso   1.00
C555   C     0.83350   0.24992   0.52737   0.00000  Uiso   1.00
C556   C     0.83349   0.24988   0.97265   0.00000  Uiso   1.00
C557   C     0.73465   0.24993   0.73761   0.00000  Uiso   1.00
C558   C     0.93202   0.25010   0.76240   0.00000  Uiso   1.00
C559   C     0.67933   0.24982   0.73084   0.00000  Uiso   1.00
C560   C     0.98736   0.25025   0.76918   0.00000  Uiso   1.00
C561   C     0.85854   0.04641   0.79048   0.00000  Uiso   1.00
C562   C     0.78974   0.45149   0.72902   0.00000  Uiso   1.00
C563   C     0.85948   0.09267   0.79202   0.00000  Uiso   1.00
C564   C     0.78814   0.40518   0.72910   0.00000  Uiso   1.00
C565   C     0.83642   0.11641   0.75105   0.00000  Uiso   1.00
C566   C     0.83247   0.38264   0.74924   0.00000  Uiso   1.00
C567   C     0.81482   0.09320   0.70942   0.00000  Uiso   1.00
C568   C     0.87736   0.40607   0.76845   0.00000  Uiso   1.00
C569   C     0.81446   0.04727   0.70843   0.00000  Uiso   1.00
C570   C     0.87867   0.45199   0.76789   0.00000  Uiso   1.00
C571   C     0.83596   0.02361   0.74903   0.00000  Uiso   1.00
C572   C     0.83485   0.47501   0.74839   0.00000  Uiso   1.00
Cu573  Cu    0.83333   0.25000   0.79821   0.00000  Uiso   1.00
Cu574  Cu    0.83333   0.25001   0.70178   0.00000  Uiso   1.00
H575   H     0.99269   0.24929   0.69406   0.00000  Uiso   1.00
H576   H     0.67401   0.25073   0.80595   0.00000  Uiso   1.00
H577   H     0.87495   0.02796   0.82196   0.00000  Uiso   1.00
H578   H     0.75562   0.46926   0.71460   0.00000  Uiso   1.00
H579   H     0.79763   0.11057   0.67754   0.00000  Uiso   1.00
H580   H     0.91166   0.38873   0.78325   0.00000  Uiso   1.00
H581   H     0.79763   0.03023   0.67577   0.00000  Uiso   1.00
H582   H     0.91408   0.46955   0.78230   0.00000  Uiso   1.00
H583   H     0.89835   0.29654   0.54514   0.00000  Uiso   1.00
H584   H     0.77773   0.19529   0.95615   0.00000  Uiso   1.00
H585   H     0.76820   0.20383   0.52867   0.00000  Uiso   1.00
H586   H     0.88952   0.30423   0.97004   0.00000  Uiso   1.00
N587   N     0.83333   0.25001   0.62934   0.00000  Uiso   1.00
N588   N     0.83333   0.24999   0.87065   0.00000  Uiso   1.00
O589   O     0.83334   0.18573   0.79071   0.00000  Uiso   1.00
O590   O     0.83333   0.31428   0.70928   0.00000  Uiso   1.00
O591   O     0.83334   0.18573   0.70928   0.00000  Uiso   1.00
O592   O     0.83333   0.31427   0.79072   0.00000  Uiso   1.00
O593   O     0.75828   0.25000   0.78132   0.00000  Uiso   1.00
O594   O     0.90839   0.25001   0.71868   0.00000  Uiso   1.00
O595   O     0.75828   0.25000   0.69988   0.00000  Uiso   1.00
O596   O     0.90839   0.25000   0.80011   0.00000  Uiso   1.00
C597   C     0.88653   0.11532   0.83690   0.00000  Uiso   1.00
H598   H     0.85796   0.13145   0.85646   0.00000  Uiso   1.00
H599   H     0.90757   0.09149   0.86224   0.00000  Uiso   1.00
H600   H     0.91529   0.14029   0.82708   0.00000  Uiso   1.00
C601   C     0.73913   0.38041   0.70880   0.00000  Uiso   1.00
H602   H     0.72570   0.35894   0.73719   0.00000  Uiso   1.00
H603   H     0.70774   0.40329   0.69569   0.00000  Uiso   1.00
H604   H     0.74628   0.35954   0.67796   0.00000  Uiso   1.00
C605   C     0.90331   0.30600   0.63793   0.00000  Uiso   1.00
N606   N     0.93190   0.32999   0.66096   0.00000  Uiso   1.00
C607   C     0.76743   0.19052   0.86258   0.00000  Uiso   1.00
N608   N     0.73958   0.16594   0.83958   0.00000  Uiso   1.00
C609   C     0.76154   0.19570   0.61997   0.00000  Uiso   1.00
N610   N     0.73142   0.17301   0.63547   0.00000  Uiso   1.00
C611   C     0.90009   0.30876   0.87923   0.00000  Uiso   1.00
N612   N     0.92861   0.33288   0.86343   0.00000  Uiso   1.00
C613   C     0.16795   0.66496   0.75037   0.00000  Uiso   1.00
C614   C     0.16636   0.83472   0.74982   0.00000  Uiso   1.00
C615   C     0.20243   0.77605   0.55865   0.00000  Uiso   1.00
C616   C     0.13551   0.71996   0.94197   0.00000  Uiso   1.00
C617   C     0.20117   0.77642   0.60883   0.00000  Uiso   1.00
C618   C     0.13519   0.72094   0.89157   0.00000  Uiso   1.00
C619   C     0.13195   0.72386   0.60008   0.00000  Uiso   1.00
C620   C     0.19837   0.77884   0.89946   0.00000  Uiso   1.00
C621   C     0.13100   0.72403   0.54962   0.00000  Uiso   1.00
C622   C     0.19816   0.77974   0.94976   0.00000  Uiso   1.00
C623   C     0.16684   0.74992   0.52737   0.00000  Uiso   1.00
C624   C     0.16682   0.74988   0.97265   0.00000  Uiso   1.00
C625   C     0.06799   0.74993   0.73761   0.00000  Uiso   1.00
C626   C     0.26535   0.75010   0.76240   0.00000  Uiso   1.00
C627   C     0.01266   0.74982   0.73084   0.00000  Uiso   1.00
C628   C     0.32069   0.75025   0.76918   0.00000  Uiso   1.00
C629   C     0.19187   0.54641   0.79048   0.00000  Uiso   1.00
C630   C     0.12307   0.95149   0.72902   0.00000  Uiso   1.00
C631   C     0.19281   0.59267   0.79202   0.00000  Uiso   1.00
C632   C     0.12147   0.90518   0.72910   0.00000  Uiso   1.00
C633   C     0.16976   0.61641   0.75105   0.00000  Uiso   1.00
C634   C     0.16581   0.88264   0.74924   0.00000  Uiso   1.00
C635   C     0.14815   0.59320   0.70942   0.00000  Uiso   1.00
C636   C     0.21070   0.90607   0.76845   0.00000  Uiso   1.00
C637   C     0.14779   0.54727   0.70843   0.00000  Uiso   1.00
C638   C     0.21201   0.95199   0.76789   0.00000  Uiso   1.00
C639   C     0.16929   0.52361   0.74903   0.00000  Uiso   1.00
C640   C     0.16818   0.97501   0.74839   0.00000  Uiso   1.00
Cu641  Cu    0.16667   0.75000   0.79821   0.00000  Uiso   1.00
Cu642  Cu    0.16667   0.75001   0.70178   0.00000  Uiso   1.00
H643   H     0.32602   0.74929   0.69406   0.00000  Uiso   1.00
H644   H     0.00735   0.75073   0.80595   0.00000  Uiso   1.00
H645   H     0.20829   0.52796   0.82196   0.00000  Uiso   1.00
H646   H     0.08895   0.96926   0.71460   0.00000  Uiso   1.00
H647   H     0.13096   0.61057   0.67754   0.00000  Uiso   1.00
H648   H     0.24499   0.88873   0.78325   0.00000  Uiso   1.00
H649   H     0.13096   0.53023   0.67577   0.00000  Uiso   1.00
H650   H     0.24742   0.96955   0.78230   0.00000  Uiso   1.00
H651   H     0.23168   0.79654   0.54514   0.00000  Uiso   1.00
H652   H     0.11106   0.69529   0.95615   0.00000  Uiso   1.00
H653   H     0.10153   0.70383   0.52867   0.00000  Uiso   1.00
H654   H     0.22286   0.80423   0.97004   0.00000  Uiso   1.00
N655   N     0.16667   0.75001   0.62934   0.00000  Uiso   1.00
N656   N     0.16667   0.74999   0.87065   0.00000  Uiso   1.00
O657   O     0.16667   0.68573   0.79071   0.00000  Uiso   1.00
O658   O     0.16666   0.81428   0.70928   0.00000  Uiso   1.00
O659   O     0.16667   0.68573   0.70928   0.00000  Uiso   1.00
O660   O     0.16666   0.81427   0.79072   0.00000  Uiso   1.00
O661   O     0.09161   0.75000   0.78132   0.00000  Uiso   1.00
O662   O     0.24172   0.75001   0.71868   0.00000  Uiso   1.00
O663   O     0.09161   0.75000   0.69988   0.00000  Uiso   1.00
O664   O     0.24172   0.75000   0.80011   0.00000  Uiso   1.00
C665   C     0.21986   0.61532   0.83690   0.00000  Uiso   1.00
H666   H     0.19129   0.63145   0.85646   0.00000  Uiso   1.00
H667   H     0.24091   0.59149   0.86224   0.00000  Uiso   1.00
H668   H     0.24862   0.64029   0.82708   0.00000  Uiso   1.00
C669   C     0.07247   0.88041   0.70880   0.00000  Uiso   1.00
H670   H     0.05903   0.85894   0.73719   0.00000  Uiso   1.00
H671   H     0.04107   0.90329   0.69569   0.00000  Uiso   1.00
H672   H     0.07961   0.85954   0.67796   0.00000  Uiso   1.00
C673   C     0.23664   0.80600   0.63793   0.00000  Uiso   1.00
N674   N     0.26524   0.82999   0.66096   0.00000  Uiso   1.00
C675   C     0.10076   0.69052   0.86258   0.00000  Uiso   1.00
N676   N     0.07291   0.66594   0.83958   0.00000  Uiso   1.00
C677   C     0.09488   0.69570   0.61997   0.00000  Uiso   1.00
N678   N     0.06475   0.67301   0.63547   0.00000  Uiso   1.00
C679   C     0.23343   0.80876   0.87923   0.00000  Uiso   1.00
N680   N     0.26194   0.83288   0.86343   0.00000  Uiso   1.00
C681   C     0.50128   0.66496   0.75037   0.00000  Uiso   1.00
C682   C     0.49970   0.83472   0.74982   0.00000  Uiso   1.00
C683   C     0.53576   0.77605   0.55865   0.00000  Uiso   1.00
C684   C     0.46884   0.71996   0.94197   0.00000  Uiso   1.00
C685   C     0.53451   0.77642   0.60883   0.00000  Uiso   1.00
C686   C     0.46853   0.72094   0.89157   0.00000  Uiso   1.00
C687   C     0.46528   0.72386   0.60008   0.00000  Uiso   1.00
C688   C     0.53170   0.77884   0.89946   0.00000  Uiso   1.00
C689   C     0.46434   0.72403   0.54962   0.00000  Uiso   1.00
C690   C     0.53149   0.77974   0.94976   0.00000  Uiso   1.00
C691   C     0.50017   0.74992   0.52737   0.00000  Uiso   1.00
C692   C     0.50015   0.74988   0.97265   0.00000  Uiso   1.00
C693   C     0.40132   0.74993   0.73761   0.00000  Uiso   1.00
C694   C     0.59869   0.75010   0.76240   0.00000  Uiso   1.00
C695   C     0.34600   0.74982   0.73084   0.00000  Uiso   1.00
C696   C     0.65402   0.75025   0.76918   0.00000  Uiso   1.00
C697   C     0.52520   0.54641   0.79048   0.00000  Uiso   1.00
C698   C     0.45641   0.95149   0.72902   0.00000  Uiso   1.00
C699   C     0.52614   0.59267   0.79202   0.00000  Uiso   1.00
C700   C     0.45481   0.90518   0.72910   0.00000  Uiso   1.00
C701   C     0.50309   0.61641   0.75105   0.00000  Uiso   1.00
C702   C     0.49914   0.88264   0.74924   0.00000  Uiso   1.00
C703   C     0.48148   0.59320   0.70942   0.00000  Uiso   1.00
C704   C     0.54403   0.90607   0.76845   0.00000  Uiso   1.00
C705   C     0.48113   0.54727   0.70843   0.00000  Uiso   1.00
C706   C     0.54534   0.95199   0.76789   0.00000  Uiso   1.00
C707   C     0.50262   0.52361   0.74903   0.00000  Uiso   1.00
C708   C     0.50152   0.97501   0.74839   0.00000  Uiso   1.00
Cu709  Cu    0.50000   0.75000   0.79821   0.00000  Uiso   1.00
Cu710  Cu    0.50000   0.75001   0.70178   0.00000  Uiso   1.00
H711   H     0.65936   0.74929   0.69406   0.00000  Uiso   1.00
H712   H     0.34068   0.75073   0.80595   0.00000  Uiso   1.00
H713   H     0.54162   0.52796   0.82196   0.00000  Uiso   1.00
H714   H     0.42228   0.96926   0.71460   0.00000  Uiso   1.00
H715   H     0.46430   0.61057   0.67754   0.00000  Uiso   1.00
H716   H     0.57833   0.88873   0.78325   0.00000  Uiso   1.00
H717   H     0.46429   0.53023   0.67577   0.00000  Uiso   1.00
H718   H     0.58075   0.96955   0.78230   0.00000  Uiso   1.00
H719   H     0.56501   0.79654   0.54514   0.00000  Uiso   1.00
H720   H     0.44439   0.69529   0.95615   0.00000  Uiso   1.00
H721   H     0.43486   0.70383   0.52867   0.00000  Uiso   1.00
H722   H     0.55619   0.80423   0.97004   0.00000  Uiso   1.00
N723   N     0.50000   0.75001   0.62934   0.00000  Uiso   1.00
N724   N     0.50000   0.74999   0.87065   0.00000  Uiso   1.00
O725   O     0.50000   0.68573   0.79071   0.00000  Uiso   1.00
O726   O     0.50000   0.81428   0.70928   0.00000  Uiso   1.00
O727   O     0.50000   0.68573   0.70928   0.00000  Uiso   1.00
O728   O     0.50000   0.81427   0.79072   0.00000  Uiso   1.00
O729   O     0.42495   0.75000   0.78132   0.00000  Uiso   1.00
O730   O     0.57505   0.75001   0.71868   0.00000  Uiso   1.00
O731   O     0.42495   0.75000   0.69988   0.00000  Uiso   1.00
O732   O     0.57505   0.75000   0.80011   0.00000  Uiso   1.00
C733   C     0.55319   0.61532   0.83690   0.00000  Uiso   1.00
H734   H     0.52463   0.63145   0.85646   0.00000  Uiso   1.00
H735   H     0.57424   0.59149   0.86224   0.00000  Uiso   1.00
H736   H     0.58195   0.64029   0.82708   0.00000  Uiso   1.00
C737   C     0.40580   0.88041   0.70880   0.00000  Uiso   1.00
H738   H     0.39236   0.85894   0.73719   0.00000  Uiso   1.00
H739   H     0.37441   0.90329   0.69569   0.00000  Uiso   1.00
H740   H     0.41295   0.85954   0.67796   0.00000  Uiso   1.00
C741   C     0.56998   0.80600   0.63793   0.00000  Uiso   1.00
N742   N     0.59857   0.82999   0.66096   0.00000  Uiso   1.00
C743   C     0.43410   0.69052   0.86258   0.00000  Uiso   1.00
N744   N     0.40625   0.66594   0.83958   0.00000  Uiso   1.00
C745   C     0.42821   0.69570   0.61997   0.00000  Uiso   1.00
N746   N     0.39808   0.67301   0.63547   0.00000  Uiso   1.00
C747   C     0.56676   0.80876   0.87923   0.00000  Uiso   1.00
N748   N     0.59527   0.83288   0.86343   0.00000  Uiso   1.00
C749   C     0.83461   0.66496   0.75037   0.00000  Uiso   1.00
C750   C     0.83303   0.83472   0.74982   0.00000  Uiso   1.00
C751   C     0.86910   0.77605   0.55865   0.00000  Uiso   1.00
C752   C     0.80218   0.71996   0.94197   0.00000  Uiso   1.00
C753   C     0.86784   0.77642   0.60883   0.00000  Uiso   1.00
C754   C     0.80186   0.72094   0.89157   0.00000  Uiso   1.00
C755   C     0.79861   0.72386   0.60008   0.00000  Uiso   1.00
C756   C     0.86503   0.77884   0.89946   0.00000  Uiso   1.00
C757   C     0.79767   0.72403   0.54962   0.00000  Uiso   1.00
C758   C     0.86482   0.77974   0.94976   0.00000  Uiso   1.00
C759   C     0.83350   0.74992   0.52737   0.00000  Uiso   1.00
C760   C     0.83349   0.74988   0.97265   0.00000  Uiso   1.00
C761   C     0.73465   0.74993   0.73761   0.00000  Uiso   1.00
C762   C     0.93202   0.75010   0.76240   0.00000  Uiso   1.00
C763   C     0.67933   0.74982   0.73084   0.00000  Uiso   1.00
C764   C     0.98736   0.75025   0.76918   0.00000  Uiso   1.00
C765   C     0.85854   0.54641   0.79048   0.00000  Uiso   1.00
C766   C     0.78974   0.95149   0.72902   0.00000  Uiso   1.00
C767   C     0.85948   0.59267   0.79202   0.00000  Uiso   1.00
C768   C     0.78814   0.90518   0.72910   0.00000  Uiso   1.00
C769   C     0.83642   0.61641   0.75105   0.00000  Uiso   1.00
C770   C     0.83247   0.88264   0.74924   0.00000  Uiso   1.00
C771   C     0.81482   0.59320   0.70942   0.00000  Uiso   1.00
C772   C     0.87736   0.90607   0.76845   0.00000  Uiso   1.00
C773   C     0.81446   0.54727   0.70843   0.00000  Uiso   1.00
C774   C     0.87867   0.95199   0.76789   0.00000  Uiso   1.00
C775   C     0.83596   0.52361   0.74903   0.00000  Uiso   1.00
C776   C     0.83485   0.97501   0.74839   0.00000  Uiso   1.00
Cu777  Cu    0.83333   0.75000   0.79821   0.00000  Uiso   1.00
Cu778  Cu    0.83333   0.75001   0.70178   0.00000  Uiso   1.00
H779   H     0.99269   0.74929   0.69406   0.00000  Uiso   1.00
H780   H     0.67401   0.75073   0.80595   0.00000  Uiso   1.00
H781   H     0.87495   0.52796   0.82196   0.00000  Uiso   1.00
H782   H     0.75562   0.96926   0.71460   0.00000  Uiso   1.00
H783   H     0.79763   0.61057   0.67754   0.00000  Uiso   1.00
H784   H     0.91166   0.88873   0.78325   0.00000  Uiso   1.00
H785   H     0.79763   0.53023   0.67577   0.00000  Uiso   1.00
H786   H     0.91408   0.96955   0.78230   0.00000  Uiso   1.00
H787   H     0.89835   0.79654   0.54514   0.00000  Uiso   1.00
H788   H     0.77773   0.69529   0.95615   0.00000  Uiso   1.00
H789   H     0.76820   0.70383   0.52867   0.00000  Uiso   1.00
H790   H     0.88952   0.80423   0.97004   0.00000  Uiso   1.00
N791   N     0.83333   0.75001   0.62934   0.00000  Uiso   1.00
N792   N     0.83333   0.74999   0.87065   0.00000  Uiso   1.00
O793   O     0.83334   0.68573   0.79071   0.00000  Uiso   1.00
O794   O     0.83333   0.81428   0.70928   0.00000  Uiso   1.00
O795   O     0.83334   0.68573   0.70928   0.00000  Uiso   1.00
O796   O     0.83333   0.81427   0.79072   0.00000  Uiso   1.00
O797   O     0.75828   0.75000   0.78132   0.00000  Uiso   1.00
O798   O     0.90839   0.75001   0.71868   0.00000  Uiso   1.00
O799   O     0.75828   0.75000   0.69988   0.00000  Uiso   1.00
O800   O     0.90839   0.75000   0.80011   0.00000  Uiso   1.00
C801   C     0.88653   0.61532   0.83690   0.00000  Uiso   1.00
H802   H     0.85796   0.63145   0.85646   0.00000  Uiso   1.00
H803   H     0.90757   0.59149   0.86224   0.00000  Uiso   1.00
H804   H     0.91529   0.64029   0.82708   0.00000  Uiso   1.00
C805   C     0.73913   0.88041   0.70880   0.00000  Uiso   1.00
H806   H     0.72570   0.85894   0.73719   0.00000  Uiso   1.00
H807   H     0.70774   0.90329   0.69569   0.00000  Uiso   1.00
H808   H     0.74628   0.85954   0.67796   0.00000  Uiso   1.00
C809   C     0.90331   0.80600   0.63793   0.00000  Uiso   1.00
N810   N     0.93190   0.82999   0.66096   0.00000  Uiso   1.00
C811   C     0.76743   0.69052   0.86258   0.00000  Uiso   1.00
N812   N     0.73958   0.66594   0.83958   0.00000  Uiso   1.00
C813   C     0.76154   0.69570   0.61997   0.00000  Uiso   1.00
N814   N     0.73142   0.67301   0.63547   0.00000  Uiso   1.00
C815   C     0.90009   0.80876   0.87923   0.00000  Uiso   1.00
N816   N     0.92861   0.83288   0.86343   0.00000  Uiso   1.00
loop_
_geom_bond_atom_site_label_1
_geom_bond_atom_site_label_2
_geom_bond_distance
_geom_bond_site_symmetry_2
_ccdc_geom_bond_type
C1     C21     1.469   .     S
C1     O45     1.298   .     A
C1     O47     1.303   .     A
C2     C22     1.449   .     S
C2     O46     1.294   .     A
C2     O48     1.296   .     A
C3     C11     1.412   .     A
C3     C5      1.408   .     A
C3     H39     1.078   .     S
C4     C6      1.408   .     A
C4     C12     1.413   .     A
C4     H40     1.078   .     S
C5     C61     1.440   .     S
C5     N43     1.370   .     A
C6     C63     1.439   .     S
C6     N44     1.370   .     A
C7     N43     1.371   .     A
C7     C65     1.439   .     S
C7     C9      1.407   .     A
C8     N44     1.370   .     A
C8     C67     1.439   .     S
C8     C10     1.407   .     A
C9     H41     1.078   .     S
C9     C11     1.411   .     A
C10    H42     1.078   .     S
C10    C12     1.412   .     A
C11    C420    1.530   1_554 S
C12    C419    1.530   .     S
C13    C15     1.434   .     S
C13    O49     1.291   .     A
C13    O51     1.294   .     A
C14    O52     1.294   .     A
C14    C16     1.434   .     S
C14    O50     1.291   .     A
C15    C152    1.335   1_455 S
C15    H167    1.087   1_455 S
C16    C83     1.335   .     S
C16    H100    1.087   .     S
C17    H33     1.084   .     S
C17    C19     1.399   .     A
C17    C27     1.400   .     A
C18    H34     1.084   .     S
C18    C20     1.399   .     A
C18    C28     1.404   .     A
C19    C53     1.510   .     S
C19    C21     1.420   .     A
C20    C57     1.508   .     S
C20    C22     1.410   .     A
C21    C23     1.403   .     A
C22    C24     1.397   .     A
C23    C25     1.388   .     A
C23    H35     1.082   .     S
C24    H36     1.083   .     S
C24    C26     1.387   .     A
C25    H37     1.083   .     S
C25    C27     1.398   .     A
C26    C28     1.402   .     A
C26    H38     1.083   .     S
C27    C232    1.468   1_545 S
C28    C231    1.468   .     S
Cu29   Cu30    2.695   .     S
Cu29   N44     2.025   .     S
Cu29   O52     1.957   .     S
Cu29   O48     1.953   .     S
Cu29   O45     1.955   .     S
Cu29   O49     1.955   .     S
Cu30   O51     1.957   .     S
Cu30   O50     1.955   .     S
Cu30   N43     2.025   .     S
Cu30   O47     1.953   .     S
Cu30   O46     1.955   .     S
H31    C83     1.087   .     S
H32    C152    1.087   1_455 S
C53    H54     1.109   .     S
C53    H55     1.111   .     S
C53    H56     1.111   .     S
C57    H58     1.111   .     S
C57    H59     1.111   .     S
C57    H60     1.110   .     S
C61    N62     1.158   .     T
C63    N64     1.158   .     T
C65    N66     1.158   .     T
C67    N68     1.157   .     T
C69    C89     1.469   .     S
C69    O113    1.298   .     A
C69    O115    1.303   .     A
C70    C90     1.449   .     S
C70    O114    1.294   .     A
C70    O116    1.296   .     A
C71    C79     1.412   .     A
C71    C73     1.408   .     A
C71    H107    1.078   .     S
C72    C74     1.408   .     A
C72    C80     1.413   .     A
C72    H108    1.078   .     S
C73    C129    1.440   .     S
C73    N111    1.370   .     A
C74    C131    1.439   .     S
C74    N112    1.370   .     A
C75    N111    1.371   .     A
C75    C133    1.439   .     S
C75    C77     1.407   .     A
C76    N112    1.370   .     A
C76    C135    1.439   .     S
C76    C78     1.407   .     A
C77    H109    1.078   .     S
C77    C79     1.411   .     A
C78    H110    1.078   .     S
C78    C80     1.412   .     A
C79    C488    1.530   1_554 S
C80    C487    1.530   .     S
C81    C83     1.434   .     S
C81    O117    1.291   .     A
C81    O119    1.294   .     A
C82    O120    1.294   .     A
C82    C84     1.434   .     S
C82    O118    1.291   .     A
C84    C151    1.335   .     S
C84    H168    1.087   .     S
C85    H101    1.084   .     S
C85    C87     1.399   .     A
C85    C95     1.400   .     A
C86    H102    1.084   .     S
C86    C88     1.399   .     A
C86    C96     1.404   .     A
C87    C121    1.510   .     S
C87    C89     1.420   .     A
C88    C125    1.508   .     S
C88    C90     1.410   .     A
C89    C91     1.403   .     A
C90    C92     1.397   .     A
C91    C93     1.388   .     A
C91    H103    1.082   .     S
C92    H104    1.083   .     S
C92    C94     1.387   .     A
C93    H105    1.083   .     S
C93    C95     1.398   .     A
C94    C96     1.402   .     A
C94    H106    1.083   .     S
C95    C300    1.468   1_545 S
C96    C299    1.468   .     S
Cu97   Cu98    2.695   .     S
Cu97   N112    2.025   .     S
Cu97   O120    1.957   .     S
Cu97   O116    1.953   .     S
Cu97   O113    1.955   .     S
Cu97   O117    1.955   .     S
Cu98   O119    1.957   .     S
Cu98   O118    1.955   .     S
Cu98   N111    2.025   .     S
Cu98   O115    1.953   .     S
Cu98   O114    1.955   .     S
H99    C151    1.087   .     S
C121   H122    1.109   .     S
C121   H123    1.111   .     S
C121   H124    1.111   .     S
C125   H126    1.111   .     S
C125   H127    1.111   .     S
C125   H128    1.110   .     S
C129   N130    1.158   .     T
C131   N132    1.158   .     T
C133   N134    1.158   .     T
C135   N136    1.157   .     T
C137   C157    1.469   .     S
C137   O181    1.298   .     A
C137   O183    1.303   .     A
C138   C158    1.449   .     S
C138   O182    1.294   .     A
C138   O184    1.296   .     A
C139   C147    1.412   .     A
C139   C141    1.408   .     A
C139   H175    1.078   .     S
C140   C142    1.408   .     A
C140   C148    1.413   .     A
C140   H176    1.078   .     S
C141   C197    1.440   .     S
C141   N179    1.370   .     A
C142   C199    1.439   .     S
C142   N180    1.370   .     A
C143   N179    1.371   .     A
C143   C201    1.439   .     S
C143   C145    1.407   .     A
C144   N180    1.370   .     A
C144   C203    1.439   .     S
C144   C146    1.407   .     A
C145   H177    1.078   .     S
C145   C147    1.411   .     A
C146   H178    1.078   .     S
C146   C148    1.412   .     A
C147   C556    1.530   1_554 S
C148   C555    1.530   .     S
C149   C151    1.434   .     S
C149   O185    1.291   .     A
C149   O187    1.294   .     A
C150   O188    1.294   .     A
C150   C152    1.434   .     S
C150   O186    1.291   .     A
C152   C15     1.335   1_655 S
C152   H32     1.087   1_655 S
C153   H169    1.084   .     S
C153   C155    1.399   .     A
C153   C163    1.400   .     A
C154   H170    1.084   .     S
C154   C156    1.399   .     A
C154   C164    1.404   .     A
C155   C189    1.510   .     S
C155   C157    1.420   .     A
C156   C193    1.508   .     S
C156   C158    1.410   .     A
C157   C159    1.403   .     A
C158   C160    1.397   .     A
C159   C161    1.388   .     A
C159   H171    1.082   .     S
C160   H172    1.083   .     S
C160   C162    1.387   .     A
C161   H173    1.083   .     S
C161   C163    1.398   .     A
C162   C164    1.402   .     A
C162   H174    1.083   .     S
C163   C368    1.468   1_545 S
C164   C367    1.468   .     S
Cu165  Cu166   2.695   .     S
Cu165  N180    2.025   .     S
Cu165  O188    1.957   .     S
Cu165  O184    1.953   .     S
Cu165  O181    1.955   .     S
Cu165  O185    1.955   .     S
Cu166  O187    1.957   .     S
Cu166  O186    1.955   .     S
Cu166  N179    2.025   .     S
Cu166  O183    1.953   .     S
Cu166  O182    1.955   .     S
H167   C15     1.087   1_655 S
C189   H190    1.109   .     S
C189   H191    1.111   .     S
C189   H192    1.111   .     S
C193   H194    1.111   .     S
C193   H195    1.111   .     S
C193   H196    1.110   .     S
C197   N198    1.158   .     T
C199   N200    1.158   .     T
C201   N202    1.158   .     T
C203   N204    1.157   .     T
C205   C225    1.469   .     S
C205   O249    1.298   .     A
C205   O251    1.303   .     A
C206   C226    1.449   .     S
C206   O250    1.294   .     A
C206   O252    1.296   .     A
C207   C215    1.412   .     A
C207   C209    1.408   .     A
C207   H243    1.078   .     S
C208   C210    1.408   .     A
C208   C216    1.413   .     A
C208   H244    1.078   .     S
C209   C265    1.440   .     S
C209   N247    1.370   .     A
C210   C267    1.439   .     S
C210   N248    1.370   .     A
C211   N247    1.371   .     A
C211   C269    1.439   .     S
C211   C213    1.407   .     A
C212   N248    1.370   .     A
C212   C271    1.439   .     S
C212   C214    1.407   .     A
C213   H245    1.078   .     S
C213   C215    1.411   .     A
C214   H246    1.078   .     S
C214   C216    1.412   .     A
C215   C624    1.530   1_554 S
C216   C623    1.530   .     S
C217   C219    1.434   .     S
C217   O253    1.291   .     A
C217   O255    1.294   .     A
C218   O256    1.294   .     A
C218   C220    1.434   .     S
C218   O254    1.291   .     A
C219   C356    1.335   1_455 S
C219   H371    1.087   1_455 S
C220   C287    1.335   .     S
C220   H304    1.087   .     S
C221   H237    1.084   .     S
C221   C223    1.399   .     A
C221   C231    1.400   .     A
C222   H238    1.084   .     S
C222   C224    1.399   .     A
C222   C232    1.404   .     A
C223   C257    1.510   .     S
C223   C225    1.420   .     A
C224   C261    1.508   .     S
C224   C226    1.410   .     A
C225   C227    1.403   .     A
C226   C228    1.397   .     A
C227   C229    1.388   .     A
C227   H239    1.082   .     S
C228   H240    1.083   .     S
C228   C230    1.387   .     A
C229   H241    1.083   .     S
C229   C231    1.398   .     A
C230   C232    1.402   .     A
C230   H242    1.083   .     S
C232   C27     1.468   1_565 S
Cu233  Cu234   2.695   .     S
Cu233  N248    2.025   .     S
Cu233  O256    1.957   .     S
Cu233  O252    1.953   .     S
Cu233  O249    1.955   .     S
Cu233  O253    1.955   .     S
Cu234  O255    1.957   .     S
Cu234  O254    1.955   .     S
Cu234  N247    2.025   .     S
Cu234  O251    1.953   .     S
Cu234  O250    1.955   .     S
H235   C287    1.087   .     S
H236   C356    1.087   1_455 S
C257   H258    1.109   .     S
C257   H259    1.111   .     S
C257   H260    1.111   .     S
C261   H262    1.111   .     S
C261   H263    1.111   .     S
C261   H264    1.110   .     S
C265   N266    1.158   .     T
C267   N268    1.158   .     T
C269   N270    1.158   .     T
C271   N272    1.157   .     T
C273   C293    1.469   .     S
C273   O317    1.298   .     A
C273   O319    1.303   .     A
C274   C294    1.449   .     S
C274   O318    1.294   .     A
C274   O320    1.296   .     A
C275   C283    1.412   .     A
C275   C277    1.408   .     A
C275   H311    1.078   .     S
C276   C278    1.408   .     A
C276   C284    1.413   .     A
C276   H312    1.078   .     S
C277   C333    1.440   .     S
C277   N315    1.370   .     A
C278   C335    1.439   .     S
C278   N316    1.370   .     A
C279   N315    1.371   .     A
C279   C337    1.439   .     S
C279   C281    1.407   .     A
C280   N316    1.370   .     A
C280   C339    1.439   .     S
C280   C282    1.407   .     A
C281   H313    1.078   .     S
C281   C283    1.411   .     A
C282   H314    1.078   .     S
C282   C284    1.412   .     A
C283   C692    1.530   1_554 S
C284   C691    1.530   .     S
C285   C287    1.434   .     S
C285   O321    1.291   .     A
C285   O323    1.294   .     A
C286   O324    1.294   .     A
C286   C288    1.434   .     S
C286   O322    1.291   .     A
C288   C355    1.335   .     S
C288   H372    1.087   .     S
C289   H305    1.084   .     S
C289   C291    1.399   .     A
C289   C299    1.400   .     A
C290   H306    1.084   .     S
C290   C292    1.399   .     A
C290   C300    1.404   .     A
C291   C325    1.510   .     S
C291   C293    1.420   .     A
C292   C329    1.508   .     S
C292   C294    1.410   .     A
C293   C295    1.403   .     A
C294   C296    1.397   .     A
C295   C297    1.388   .     A
C295   H307    1.082   .     S
C296   H308    1.083   .     S
C296   C298    1.387   .     A
C297   H309    1.083   .     S
C297   C299    1.398   .     A
C298   C300    1.402   .     A
C298   H310    1.083   .     S
C300   C95     1.468   1_565 S
Cu301  Cu302   2.695   .     S
Cu301  N316    2.025   .     S
Cu301  O324    1.957   .     S
Cu301  O320    1.953   .     S
Cu301  O317    1.955   .     S
Cu301  O321    1.955   .     S
Cu302  O323    1.957   .     S
Cu302  O322    1.955   .     S
Cu302  N315    2.025   .     S
Cu302  O319    1.953   .     S
Cu302  O318    1.955   .     S
H303   C355    1.087   .     S
C325   H326    1.109   .     S
C325   H327    1.111   .     S
C325   H328    1.111   .     S
C329   H330    1.111   .     S
C329   H331    1.111   .     S
C329   H332    1.110   .     S
C333   N334    1.158   .     T
C335   N336    1.158   .     T
C337   N338    1.158   .     T
C339   N340    1.157   .     T
C341   C361    1.469   .     S
C341   O385    1.298   .     A
C341   O387    1.303   .     A
C342   C362    1.449   .     S
C342   O386    1.294   .     A
C342   O388    1.296   .     A
C343   C351    1.412   .     A
C343   C345    1.408   .     A
C343   H379    1.078   .     S
C344   C346    1.408   .     A
C344   C352    1.413   .     A
C344   H380    1.078   .     S
C345   C401    1.440   .     S
C345   N383    1.370   .     A
C346   C403    1.439   .     S
C346   N384    1.370   .     A
C347   N383    1.371   .     A
C347   C405    1.439   .     S
C347   C349    1.407   .     A
C348   N384    1.370   .     A
C348   C407    1.439   .     S
C348   C350    1.407   .     A
C349   H381    1.078   .     S
C349   C351    1.411   .     A
C350   H382    1.078   .     S
C350   C352    1.412   .     A
C351   C760    1.530   1_554 S
C352   C759    1.530   .     S
C353   C355    1.434   .     S
C353   O389    1.291   .     A
C353   O391    1.294   .     A
C354   O392    1.294   .     A
C354   C356    1.434   .     S
C354   O390    1.291   .     A
C356   C219    1.335   1_655 S
C356   H236    1.087   1_655 S
C357   H373    1.084   .     S
C357   C359    1.399   .     A
C357   C367    1.400   .     A
C358   H374    1.084   .     S
C358   C360    1.399   .     A
C358   C368    1.404   .     A
C359   C393    1.510   .     S
C359   C361    1.420   .     A
C360   C397    1.508   .     S
C360   C362    1.410   .     A
C361   C363    1.403   .     A
C362   C364    1.397   .     A
C363   C365    1.388   .     A
C363   H375    1.082   .     S
C364   H376    1.083   .     S
C364   C366    1.387   .     A
C365   H377    1.083   .     S
C365   C367    1.398   .     A
C366   C368    1.402   .     A
C366   H378    1.083   .     S
C368   C163    1.468   1_565 S
Cu369  Cu370   2.695   .     S
Cu369  N384    2.025   .     S
Cu369  O392    1.957   .     S
Cu369  O388    1.953   .     S
Cu369  O385    1.955   .     S
Cu369  O389    1.955   .     S
Cu370  O391    1.957   .     S
Cu370  O390    1.955   .     S
Cu370  N383    2.025   .     S
Cu370  O387    1.953   .     S
Cu370  O386    1.955   .     S
H371   C219    1.087   1_655 S
C393   H394    1.109   .     S
C393   H395    1.111   .     S
C393   H396    1.111   .     S
C397   H398    1.111   .     S
C397   H399    1.111   .     S
C397   H400    1.110   .     S
C401   N402    1.158   .     T
C403   N404    1.158   .     T
C405   N406    1.158   .     T
C407   N408    1.157   .     T
C409   C429    1.469   .     S
C409   O453    1.298   .     A
C409   O455    1.303   .     A
C410   C430    1.449   .     S
C410   O454    1.294   .     A
C410   O456    1.296   .     A
C411   C419    1.412   .     A
C411   C413    1.408   .     A
C411   H447    1.078   .     S
C412   C414    1.408   .     A
C412   C420    1.413   .     A
C412   H448    1.078   .     S
C413   C469    1.440   .     S
C413   N451    1.370   .     A
C414   C471    1.439   .     S
C414   N452    1.370   .     A
C415   N451    1.371   .     A
C415   C473    1.439   .     S
C415   C417    1.407   .     A
C416   N452    1.370   .     A
C416   C475    1.439   .     S
C416   C418    1.407   .     A
C417   H449    1.078   .     S
C417   C419    1.411   .     A
C418   H450    1.078   .     S
C418   C420    1.412   .     A
C420   C11     1.530   1_556 S
C421   C423    1.434   .     S
C421   O457    1.291   .     A
C421   O459    1.294   .     A
C422   O460    1.294   .     A
C422   C424    1.434   .     S
C422   O458    1.291   .     A
C423   C560    1.335   1_455 S
C423   H575    1.087   1_455 S
C424   C491    1.335   .     S
C424   H508    1.087   .     S
C425   H441    1.084   .     S
C425   C427    1.399   .     A
C425   C435    1.400   .     A
C426   H442    1.084   .     S
C426   C428    1.399   .     A
C426   C436    1.404   .     A
C427   C461    1.510   .     S
C427   C429    1.420   .     A
C428   C465    1.508   .     S
C428   C430    1.410   .     A
C429   C431    1.403   .     A
C430   C432    1.397   .     A
C431   C433    1.388   .     A
C431   H443    1.082   .     S
C432   H444    1.083   .     S
C432   C434    1.387   .     A
C433   H445    1.083   .     S
C433   C435    1.398   .     A
C434   C436    1.402   .     A
C434   H446    1.083   .     S
C435   C640    1.468   1_545 S
C436   C639    1.468   .     S
Cu437  Cu438   2.695   .     S
Cu437  N452    2.025   .     S
Cu437  O460    1.957   .     S
Cu437  O456    1.953   .     S
Cu437  O453    1.955   .     S
Cu437  O457    1.955   .     S
Cu438  O459    1.957   .     S
Cu438  O458    1.955   .     S
Cu438  N451    2.025   .     S
Cu438  O455    1.953   .     S
Cu438  O454    1.955   .     S
H439   C491    1.087   .     S
H440   C560    1.087   1_455 S
C461   H462    1.109   .     S
C461   H463    1.111   .     S
C461   H464    1.111   .     S
C465   H466    1.111   .     S
C465   H467    1.111   .     S
C465   H468    1.110   .     S
C469   N470    1.158   .     T
C471   N472    1.158   .     T
C473   N474    1.158   .     T
C475   N476    1.157   .     T
C477   C497    1.469   .     S
C477   O521    1.298   .     A
C477   O523    1.303   .     A
C478   C498    1.449   .     S
C478   O522    1.294   .     A
C478   O524    1.296   .     A
C479   C487    1.412   .     A
C479   C481    1.408   .     A
C479   H515    1.078   .     S
C480   C482    1.408   .     A
C480   C488    1.413   .     A
C480   H516    1.078   .     S
C481   C537    1.440   .     S
C481   N519    1.370   .     A
C482   C539    1.439   .     S
C482   N520    1.370   .     A
C483   N519    1.371   .     A
C483   C541    1.439   .     S
C483   C485    1.407   .     A
C484   N520    1.370   .     A
C484   C543    1.439   .     S
C484   C486    1.407   .     A
C485   H517    1.078   .     S
C485   C487    1.411   .     A
C486   H518    1.078   .     S
C486   C488    1.412   .     A
C488   C79     1.530   1_556 S
C489   C491    1.434   .     S
C489   O525    1.291   .     A
C489   O527    1.294   .     A
C490   O528    1.294   .     A
C490   C492    1.434   .     S
C490   O526    1.291   .     A
C492   C559    1.335   .     S
C492   H576    1.087   .     S
C493   H509    1.084   .     S
C493   C495    1.399   .     A
C493   C503    1.400   .     A
C494   H510    1.084   .     S
C494   C496    1.399   .     A
C494   C504    1.404   .     A
C495   C529    1.510   .     S
C495   C497    1.420   .     A
C496   C533    1.508   .     S
C496   C498    1.410   .     A
C497   C499    1.403   .     A
C498   C500    1.397   .     A
C499   C501    1.388   .     A
C499   H511    1.082   .     S
C500   H512    1.083   .     S
C500   C502    1.387   .     A
C501   H513    1.083   .     S
C501   C503    1.398   .     A
C502   C504    1.402   .     A
C502   H514    1.083   .     S
C503   C708    1.468   1_545 S
C504   C707    1.468   .     S
Cu505  Cu506   2.695   .     S
Cu505  N520    2.025   .     S
Cu505  O528    1.957   .     S
Cu505  O524    1.953   .     S
Cu505  O521    1.955   .     S
Cu505  O525    1.955   .     S
Cu506  O527    1.957   .     S
Cu506  O526    1.955   .     S
Cu506  N519    2.025   .     S
Cu506  O523    1.953   .     S
Cu506  O522    1.955   .     S
H507   C559    1.087   .     S
C529   H530    1.109   .     S
C529   H531    1.111   .     S
C529   H532    1.111   .     S
C533   H534    1.111   .     S
C533   H535    1.111   .     S
C533   H536    1.110   .     S
C537   N538    1.158   .     T
C539   N540    1.158   .     T
C541   N542    1.158   .     T
C543   N544    1.157   .     T
C545   C565    1.469   .     S
C545   O589    1.298   .     A
C545   O591    1.303   .     A
C546   C566    1.449   .     S
C546   O590    1.294   .     A
C546   O592    1.296   .     A
C547   C555    1.412   .     A
C547   C549    1.408   .     A
C547   H583    1.078   .     S
C548   C550    1.408   .     A
C548   C556    1.413   .     A
C548   H584    1.078   .     S
C549   C605    1.440   .     S
C549   N587    1.370   .     A
C550   C607    1.439   .     S
C550   N588    1.370   .     A
C551   N587    1.371   .     A
C551   C609    1.439   .     S
C551   C553    1.407   .     A
C552   N588    1.370   .     A
C552   C611    1.439   .     S
C552   C554    1.407   .     A
C553   H585    1.078   .     S
C553   C555    1.411   .     A
C554   H586    1.078   .     S
C554   C556    1.412   .     A
C556   C147    1.530   1_556 S
C557   C559    1.434   .     S
C557   O593    1.291   .     A
C557   O595    1.294   .     A
C558   O596    1.294   .     A
C558   C560    1.434   .     S
C558   O594    1.291   .     A
C560   C423    1.335   1_655 S
C560   H440    1.087   1_655 S
C561   H577    1.084   .     S
C561   C563    1.399   .     A
C561   C571    1.400   .     A
C562   H578    1.084   .     S
C562   C564    1.399   .     A
C562   C572    1.404   .     A
C563   C597    1.510   .     S
C563   C565    1.420   .     A
C564   C601    1.508   .     S
C564   C566    1.410   .     A
C565   C567    1.403   .     A
C566   C568    1.397   .     A
C567   C569    1.388   .     A
C567   H579    1.082   .     S
C568   H580    1.083   .     S
C568   C570    1.387   .     A
C569   H581    1.083   .     S
C569   C571    1.398   .     A
C570   C572    1.402   .     A
C570   H582    1.083   .     S
C571   C776    1.468   1_545 S
C572   C775    1.468   .     S
Cu573  Cu574   2.695   .     S
Cu573  N588    2.025   .     S
Cu573  O596    1.957   .     S
Cu573  O592    1.953   .     S
Cu573  O589    1.955   .     S
Cu573  O593    1.955   .     S
Cu574  O595    1.957   .     S
Cu574  O594    1.955   .     S
Cu574  N587    2.025   .     S
Cu574  O591    1.953   .     S
Cu574  O590    1.955   .     S
H575   C423    1.087   1_655 S
C597   H598    1.109   .     S
C597   H599    1.111   .     S
C597   H600    1.111   .     S
C601   H602    1.111   .     S
C601   H603    1.111   .     S
C601   H604    1.110   .     S
C605   N606    1.158   .     T
C607   N608    1.158   .     T
C609   N610    1.158   .     T
C611   N612    1.157   .     T
C613   C633    1.469   .     S
C613   O657    1.298   .     A
C613   O659    1.303   .     A
C614   C634    1.449   .     S
C614   O658    1.294   .     A
C614   O660    1.296   .     A
C615   C623    1.412   .     A
C615   C617    1.408   .     A
C615   H651    1.078   .     S
C616   C618    1.408   .     A
C616   C624    1.413   .     A
C616   H652    1.078   .     S
C617   C673    1.440   .     S
C617   N655    1.370   .     A
C618   C675    1.439   .     S
C618   N656    1.370   .     A
C619   N655    1.371   .     A
C619   C677    1.439   .     S
C619   C621    1.407   .     A
C620   N656    1.370   .     A
C620   C679    1.439   .     S
C620   C622    1.407   .     A
C621   H653    1.078   .     S
C621   C623    1.411   .     A
C622   H654    1.078   .     S
C622   C624    1.412   .     A
C624   C215    1.530   1_556 S
C625   C627    1.434   .     S
C625   O661    1.291   .     A
C625   O663    1.294   .     A
C626   O664    1.294   .     A
C626   C628    1.434   .     S
C626   O662    1.291   .     A
C627   C764    1.335   1_455 S
C627   H779    1.087   1_455 S
C628   C695    1.335   .     S
C628   H712    1.087   .     S
C629   H645    1.084   .     S
C629   C631    1.399   .     A
C629   C639    1.400   .     A
C630   H646    1.084   .     S
C630   C632    1.399   .     A
C630   C640    1.404   .     A
C631   C665    1.510   .     S
C631   C633    1.420   .     A
C632   C669    1.508   .     S
C632   C634    1.410   .     A
C633   C635    1.403   .     A
C634   C636    1.397   .     A
C635   C637    1.388   .     A
C635   H647    1.082   .     S
C636   H648    1.083   .     S
C636   C638    1.387   .     A
C637   H649    1.083   .     S
C637   C639    1.398   .     A
C638   C640    1.402   .     A
C638   H650    1.083   .     S
C640   C435    1.468   1_565 S
Cu641  Cu642   2.695   .     S
Cu641  N656    2.025   .     S
Cu641  O664    1.957   .     S
Cu641  O660    1.953   .     S
Cu641  O657    1.955   .     S
Cu641  O661    1.955   .     S
Cu642  O663    1.957   .     S
Cu642  O662    1.955   .     S
Cu642  N655    2.025   .     S
Cu642  O659    1.953   .     S
Cu642  O658    1.955   .     S
H643   C695    1.087   .     S
H644   C764    1.087   1_455 S
C665   H666    1.109   .     S
C665   H667    1.111   .     S
C665   H668    1.111   .     S
C669   H670    1.111   .     S
C669   H671    1.111   .     S
C669   H672    1.110   .     S
C673   N674    1.158   .     T
C675   N676    1.158   .     T
C677   N678    1.158   .     T
C679   N680    1.157   .     T
C681   C701    1.469   .     S
C681   O725    1.298   .     A
C681   O727    1.303   .     A
C682   C702    1.449   .     S
C682   O726    1.294   .     A
C682   O728    1.296   .     A
C683   C691    1.412   .     A
C683   C685    1.408   .     A
C683   H719    1.078   .     S
C684   C686    1.408   .     A
C684   C692    1.413   .     A
C684   H720    1.078   .     S
C685   C741    1.440   .     S
C685   N723    1.370   .     A
C686   C743    1.439   .     S
C686   N724    1.370   .     A
C687   N723    1.371   .     A
C687   C745    1.439   .     S
C687   C689    1.407   .     A
C688   N724    1.370   .     A
C688   C747    1.439   .     S
C688   C690    1.407   .     A
C689   H721    1.078   .     S
C689   C691    1.411   .     A
C690   H722    1.078   .     S
C690   C692    1.412   .     A
C692   C283    1.530   1_556 S
C693   C695    1.434   .     S
C693   O729    1.291   .     A
C693   O731    1.294   .     A
C694   O732    1.294   .     A
C694   C696    1.434   .     S
C694   O730    1.291   .     A
C696   C763    1.335   .     S
C696   H780    1.087   .     S
C697   H713    1.084   .     S
C697   C699    1.399   .     A
C697   C707    1.400   .     A
C698   H714    1.084   .     S
C698   C700    1.399   .     A
C698   C708    1.404   .     A
C699   C733    1.510   .     S
C699   C701    1.420   .     A
C700   C737    1.508   .     S
C700   C702    1.410   .     A
C701   C703    1.403   .     A
C702   C704    1.397   .     A
C703   C705    1.388   .     A
C703   H715    1.082   .     S
C704   H716    1.083   .     S
C704   C706    1.387   .     A
C705   H717    1.083   .     S
C705   C707    1.398   .     A
C706   C708    1.402   .     A
C706   H718    1.083   .     S
C708   C503    1.468   1_565 S
Cu709  Cu710   2.695   .     S
Cu709  N724    2.025   .     S
Cu709  O732    1.957   .     S
Cu709  O728    1.953   .     S
Cu709  O725    1.955   .     S
Cu709  O729    1.955   .     S
Cu710  O731    1.957   .     S
Cu710  O730    1.955   .     S
Cu710  N723    2.025   .     S
Cu710  O727    1.953   .     S
Cu710  O726    1.955   .     S
H711   C763    1.087   .     S
C733   H734    1.109   .     S
C733   H735    1.111   .     S
C733   H736    1.111   .     S
C737   H738    1.111   .     S
C737   H739    1.111   .     S
C737   H740    1.110   .     S
C741   N742    1.158   .     T
C743   N744    1.158   .     T
C745   N746    1.158   .     T
C747   N748    1.157   .     T
C749   C769    1.469   .     S
C749   O793    1.298   .     A
C749   O795    1.303   .     A
C750   C770    1.449   .     S
C750   O794    1.294   .     A
C750   O796    1.296   .     A
C751   C759    1.412   .     A
C751   C753    1.408   .     A
C751   H787    1.078   .     S
C752   C754    1.408   .     A
C752   C760    1.413   .     A
C752   H788    1.078   .     S
C753   C809    1.440   .     S
C753   N791    1.370   .     A
C754   C811    1.439   .     S
C754   N792    1.370   .     A
C755   N791    1.371   .     A
C755   C813    1.439   .     S
C755   C757    1.407   .     A
C756   N792    1.370   .     A
C756   C815    1.439   .     S
C756   C758    1.407   .     A
C757   H789    1.078   .     S
C757   C759    1.411   .     A
C758   H790    1.078   .     S
C758   C760    1.412   .     A
C760   C351    1.530   1_556 S
C761   C763    1.434   .     S
C761   O797    1.291   .     A
C761   O799    1.294   .     A
C762   O800    1.294   .     A
C762   C764    1.434   .     S
C762   O798    1.291   .     A
C764   C627    1.335   1_655 S
C764   H644    1.087   1_655 S
C765   H781    1.084   .     S
C765   C767    1.399   .     A
C765   C775    1.400   .     A
C766   H782    1.084   .     S
C766   C768    1.399   .     A
C766   C776    1.404   .     A
C767   C801    1.510   .     S
C767   C769    1.420   .     A
C768   C805    1.508   .     S
C768   C770    1.410   .     A
C769   C771    1.403   .     A
C770   C772    1.397   .     A
C771   C773    1.388   .     A
C771   H783    1.082   .     S
C772   H784    1.083   .     S
C772   C774    1.387   .     A
C773   H785    1.083   .     S
C773   C775    1.398   .     A
C774   C776    1.402   .     A
C774   H786    1.083   .     S
C776   C571    1.468   1_565 S
Cu777  Cu778   2.695   .     S
Cu777  N792    2.025   .     S
Cu777  O800    1.957   .     S
Cu777  O796    1.953   .     S
Cu777  O793    1.955   .     S
Cu777  O797    1.955   .     S
Cu778  O799    1.957   .     S
Cu778  O798    1.955   .     S
Cu778  N791    2.025   .     S
Cu778  O795    1.953   .     S
Cu778  O794    1.955   .     S
H779   C627    1.087   1_655 S
C801   H802    1.109   .     S
C801   H803    1.111   .     S
C801   H804    1.111   .     S
C805   H806    1.111   .     S
C805   H807    1.111   .     S
C805   H808    1.110   .     S
C809   N810    1.158   .     T
C811   N812    1.158   .     T
C813   N814    1.158   .     T
C815   N816    1.157   .     T
