data_str_m3_o10_o18_pcu_sym.12
_audit_creation_date              2020-01-03
_audit_creation_method            'Materials Studio'
_symmetry_space_group_name_H-M    'P1'
_symmetry_Int_Tables_number       1
_symmetry_cell_setting            triclinic
loop_
_symmetry_equiv_pos_as_xyz
  x,y,z
_cell_length_a                    23.4981
_cell_length_b                    25.6740
_cell_length_c                    27.2792
_cell_angle_alpha                 93.8391
_cell_angle_beta                  92.1578
_cell_angle_gamma                 94.3225
loop_
_atom_site_label
_atom_site_type_symbol
_atom_site_fract_x
_atom_site_fract_y
_atom_site_fract_z
_atom_site_U_iso_or_equiv
_atom_site_adp_type
_atom_site_occupancy
C1     C     0.01514   0.26495   0.24908   0.00000  Uiso   1.00
C2     C     0.31260   0.16085   0.15856   0.00000  Uiso   1.00
C3     C     0.02978   0.17802   0.39515   0.00000  Uiso   1.00
C4     C     0.30273   0.15119   0.10534   0.00000  Uiso   1.00
C5     C     0.01672   0.21929   0.47602   0.00000  Uiso   1.00
C6     C     0.30803   0.09890   0.02869   0.00000  Uiso   1.00
C7     C     0.33059   0.20892   0.42701   0.00000  Uiso   1.00
C8     C     0.33069   0.11392   0.07605   0.00000  Uiso   1.00
C9     C     0.07731   0.15549   0.41384   0.00000  Uiso   1.00
C10    C     0.25645   0.17455   0.08549   0.00000  Uiso   1.00
C11    C     0.09800   0.16695   0.46225   0.00000  Uiso   1.00
C12    C     0.31829   0.06843   0.25156   0.00000  Uiso   1.00
C13    C     0.22943   0.15498   0.04087   0.00000  Uiso   1.00
C14    C     0.06790   0.20083   0.49295   0.00000  Uiso   1.00
C15    C     0.25666   0.11711   0.01198   0.00000  Uiso   1.00
C16    C     0.15019   0.14885   0.47948   0.00000  Uiso   1.00
C17    C     0.17505   0.17016   0.02540   0.00000  Uiso   1.00
C18    C     0.14354   0.20406   0.05514   0.00000  Uiso   1.00
C19    C     0.17832   0.11029   0.45220   0.00000  Uiso   1.00
C20    C     0.09028   0.21781   0.03960   0.00000  Uiso   1.00
C21    C     0.23099   0.09554   0.46785   0.00000  Uiso   1.00
C22    C     0.02311   0.31959   0.24920   0.00000  Uiso   1.00
C23    C     0.31047   0.01387   0.25262   0.00000  Uiso   1.00
C24    C     0.02067   0.17200   0.34154   0.00000  Uiso   1.00
H25    H     0.06739   0.24344   0.06370   0.00000  Uiso   1.00
H26    H     0.26716   0.32994   0.25577   0.00000  Uiso   1.00
H27    H     0.16242   0.12422   0.21370   0.00000  Uiso   1.00
H28    H     0.17093   0.20908   0.28635   0.00000  Uiso   1.00
H29    H     0.06645   0.02374   0.15187   0.00000  Uiso   1.00
H30    H     0.25100   0.29115   0.34995   0.00000  Uiso   1.00
H31    H     0.25096   0.06578   0.44588   0.00000  Uiso   1.00
H32    H     0.24026   0.20594   0.10764   0.00000  Uiso   1.00
H33    H     0.10032   0.13222   0.38830   0.00000  Uiso   1.00
H34    H     0.32698   0.24420   0.00058   0.00000  Uiso   1.00
H35    H     0.32813   0.06998   0.00589   0.00000  Uiso   1.00
H36    H     0.15760   0.21961   0.09154   0.00000  Uiso   1.00
H37    H     0.16009   0.08926   0.41914   0.00000  Uiso   1.00
H38    H     0.06643   0.00353   0.24619   0.00000  Uiso   1.00
N39    N     0.14695   0.15216   0.23739   0.00000  Uiso   1.00
N40    N     0.18638   0.18117   0.26260   0.00000  Uiso   1.00
O41    O     0.29719   0.24631   0.25309   0.00000  Uiso   1.00
O42    O     0.10383   0.11861   0.11776   0.00000  Uiso   1.00
O43    O     0.03326   0.04334   0.14303   0.00000  Uiso   1.00
O44    O     0.22361   0.19861   0.38749   0.00000  Uiso   1.00
O45    O     0.24658   0.27200   0.44863   0.00000  Uiso   1.00
O46    O     0.28749   0.27867   0.36207   0.00000  Uiso   1.00
O47    O     0.03614   0.08702   0.24690   0.00000  Uiso   1.00
O48    O     0.05822   0.23702   0.24501   0.00000  Uiso   1.00
O49    O     0.27512   0.09632   0.25499   0.00000  Uiso   1.00
O50    O     0.30328   0.17397   0.32247   0.00000  Uiso   1.00
O51    O     0.03005   0.15937   0.17753   0.00000  Uiso   1.00
O52    O     0.06431   0.16467   0.31439   0.00000  Uiso   1.00
O53    O     0.26902   0.16866   0.18561   0.00000  Uiso   1.00
O54    O     0.07697   0.04551   0.05731   0.00000  Uiso   1.00
S55    S     0.05558   0.08039   0.09797   0.00000  Uiso   1.00
S56    S     0.26942   0.23956   0.40695   0.00000  Uiso   1.00
Zn57   Zn    0.27033   0.17287   0.25539   0.00000  Uiso   1.00
Zn58   Zn    0.06300   0.16046   0.24460   0.00000  Uiso   1.00
C59    C     0.34847   0.26495   0.24908   0.00000  Uiso   1.00
C60    C     0.64594   0.16085   0.15856   0.00000  Uiso   1.00
C61    C     0.36311   0.17802   0.39515   0.00000  Uiso   1.00
C62    C     0.63606   0.15119   0.10534   0.00000  Uiso   1.00
C63    C     0.35005   0.21929   0.47602   0.00000  Uiso   1.00
C64    C     0.64136   0.09890   0.02869   0.00000  Uiso   1.00
C65    C     0.66392   0.20892   0.42701   0.00000  Uiso   1.00
C66    C     0.66402   0.11392   0.07605   0.00000  Uiso   1.00
C67    C     0.41064   0.15549   0.41384   0.00000  Uiso   1.00
C68    C     0.58978   0.17455   0.08549   0.00000  Uiso   1.00
C69    C     0.43133   0.16695   0.46225   0.00000  Uiso   1.00
C70    C     0.65162   0.06843   0.25156   0.00000  Uiso   1.00
C71    C     0.56277   0.15498   0.04087   0.00000  Uiso   1.00
C72    C     0.40123   0.20083   0.49295   0.00000  Uiso   1.00
C73    C     0.58999   0.11711   0.01198   0.00000  Uiso   1.00
C74    C     0.48352   0.14885   0.47948   0.00000  Uiso   1.00
C75    C     0.50839   0.17016   0.02540   0.00000  Uiso   1.00
C76    C     0.47687   0.20406   0.05514   0.00000  Uiso   1.00
C77    C     0.51165   0.11029   0.45220   0.00000  Uiso   1.00
C78    C     0.42362   0.21781   0.03960   0.00000  Uiso   1.00
C79    C     0.56433   0.09554   0.46785   0.00000  Uiso   1.00
C80    C     0.35644   0.31959   0.24920   0.00000  Uiso   1.00
C81    C     0.64380   0.01387   0.25262   0.00000  Uiso   1.00
C82    C     0.35401   0.17200   0.34154   0.00000  Uiso   1.00
H83    H     0.40073   0.24344   0.06370   0.00000  Uiso   1.00
H84    H     0.60049   0.32994   0.25577   0.00000  Uiso   1.00
H85    H     0.49575   0.12422   0.21370   0.00000  Uiso   1.00
H86    H     0.50426   0.20908   0.28635   0.00000  Uiso   1.00
H87    H     0.39979   0.02374   0.15187   0.00000  Uiso   1.00
H88    H     0.58433   0.29115   0.34995   0.00000  Uiso   1.00
H89    H     0.58429   0.06578   0.44588   0.00000  Uiso   1.00
H90    H     0.57360   0.20594   0.10764   0.00000  Uiso   1.00
H91    H     0.43366   0.13222   0.38830   0.00000  Uiso   1.00
H92    H     0.66032   0.24420   0.00058   0.00000  Uiso   1.00
H93    H     0.66146   0.06998   0.00589   0.00000  Uiso   1.00
H94    H     0.49093   0.21961   0.09154   0.00000  Uiso   1.00
H95    H     0.49342   0.08926   0.41914   0.00000  Uiso   1.00
H96    H     0.39977   0.00353   0.24619   0.00000  Uiso   1.00
N97    N     0.48029   0.15216   0.23739   0.00000  Uiso   1.00
N98    N     0.51971   0.18117   0.26260   0.00000  Uiso   1.00
O99    O     0.63052   0.24631   0.25309   0.00000  Uiso   1.00
O100   O     0.43717   0.11861   0.11776   0.00000  Uiso   1.00
O101   O     0.36659   0.04334   0.14303   0.00000  Uiso   1.00
O102   O     0.55695   0.19861   0.38749   0.00000  Uiso   1.00
O103   O     0.57991   0.27200   0.44863   0.00000  Uiso   1.00
O104   O     0.62082   0.27867   0.36207   0.00000  Uiso   1.00
O105   O     0.36948   0.08702   0.24690   0.00000  Uiso   1.00
O106   O     0.39155   0.23702   0.24501   0.00000  Uiso   1.00
O107   O     0.60845   0.09632   0.25499   0.00000  Uiso   1.00
O108   O     0.63662   0.17397   0.32247   0.00000  Uiso   1.00
O109   O     0.36338   0.15937   0.17753   0.00000  Uiso   1.00
O110   O     0.39764   0.16467   0.31439   0.00000  Uiso   1.00
O111   O     0.60236   0.16866   0.18561   0.00000  Uiso   1.00
O112   O     0.41030   0.04551   0.05731   0.00000  Uiso   1.00
S113   S     0.38892   0.08039   0.09797   0.00000  Uiso   1.00
S114   S     0.60276   0.23956   0.40695   0.00000  Uiso   1.00
Zn115  Zn    0.60366   0.17287   0.25539   0.00000  Uiso   1.00
Zn116  Zn    0.39634   0.16046   0.24460   0.00000  Uiso   1.00
C117   C     0.68181   0.26495   0.24908   0.00000  Uiso   1.00
C118   C     0.97927   0.16085   0.15856   0.00000  Uiso   1.00
C119   C     0.69644   0.17802   0.39515   0.00000  Uiso   1.00
C120   C     0.96939   0.15119   0.10534   0.00000  Uiso   1.00
C121   C     0.68339   0.21929   0.47602   0.00000  Uiso   1.00
C122   C     0.97470   0.09890   0.02869   0.00000  Uiso   1.00
C123   C     0.99726   0.20892   0.42701   0.00000  Uiso   1.00
C124   C     0.99736   0.11392   0.07605   0.00000  Uiso   1.00
C125   C     0.74398   0.15549   0.41384   0.00000  Uiso   1.00
C126   C     0.92312   0.17455   0.08549   0.00000  Uiso   1.00
C127   C     0.76467   0.16695   0.46225   0.00000  Uiso   1.00
C128   C     0.98495   0.06843   0.25156   0.00000  Uiso   1.00
C129   C     0.89610   0.15498   0.04087   0.00000  Uiso   1.00
C130   C     0.73456   0.20083   0.49295   0.00000  Uiso   1.00
C131   C     0.92332   0.11711   0.01198   0.00000  Uiso   1.00
C132   C     0.81685   0.14885   0.47948   0.00000  Uiso   1.00
C133   C     0.84172   0.17016   0.02540   0.00000  Uiso   1.00
C134   C     0.81021   0.20406   0.05514   0.00000  Uiso   1.00
C135   C     0.84498   0.11029   0.45220   0.00000  Uiso   1.00
C136   C     0.75695   0.21781   0.03960   0.00000  Uiso   1.00
C137   C     0.89766   0.09554   0.46785   0.00000  Uiso   1.00
C138   C     0.68977   0.31959   0.24920   0.00000  Uiso   1.00
C139   C     0.97713   0.01387   0.25262   0.00000  Uiso   1.00
C140   C     0.68734   0.17200   0.34154   0.00000  Uiso   1.00
H141   H     0.73406   0.24344   0.06370   0.00000  Uiso   1.00
H142   H     0.93383   0.32994   0.25577   0.00000  Uiso   1.00
H143   H     0.82909   0.12422   0.21370   0.00000  Uiso   1.00
H144   H     0.83760   0.20908   0.28635   0.00000  Uiso   1.00
H145   H     0.73312   0.02374   0.15187   0.00000  Uiso   1.00
H146   H     0.91766   0.29115   0.34995   0.00000  Uiso   1.00
H147   H     0.91763   0.06578   0.44588   0.00000  Uiso   1.00
H148   H     0.90693   0.20594   0.10764   0.00000  Uiso   1.00
H149   H     0.76699   0.13222   0.38830   0.00000  Uiso   1.00
H150   H     0.99365   0.24420   0.00058   0.00000  Uiso   1.00
H151   H     0.99479   0.06998   0.00589   0.00000  Uiso   1.00
H152   H     0.82426   0.21961   0.09154   0.00000  Uiso   1.00
H153   H     0.82676   0.08926   0.41914   0.00000  Uiso   1.00
H154   H     0.73310   0.00353   0.24619   0.00000  Uiso   1.00
N155   N     0.81362   0.15216   0.23739   0.00000  Uiso   1.00
N156   N     0.85305   0.18117   0.26260   0.00000  Uiso   1.00
O157   O     0.96386   0.24631   0.25309   0.00000  Uiso   1.00
O158   O     0.77050   0.11861   0.11776   0.00000  Uiso   1.00
O159   O     0.69992   0.04334   0.14303   0.00000  Uiso   1.00
O160   O     0.89028   0.19861   0.38749   0.00000  Uiso   1.00
O161   O     0.91324   0.27200   0.44863   0.00000  Uiso   1.00
O162   O     0.95415   0.27867   0.36207   0.00000  Uiso   1.00
O163   O     0.70281   0.08702   0.24690   0.00000  Uiso   1.00
O164   O     0.72488   0.23702   0.24501   0.00000  Uiso   1.00
O165   O     0.94178   0.09632   0.25499   0.00000  Uiso   1.00
O166   O     0.96995   0.17397   0.32247   0.00000  Uiso   1.00
O167   O     0.69672   0.15937   0.17753   0.00000  Uiso   1.00
O168   O     0.73098   0.16467   0.31439   0.00000  Uiso   1.00
O169   O     0.93569   0.16866   0.18561   0.00000  Uiso   1.00
O170   O     0.74363   0.04551   0.05731   0.00000  Uiso   1.00
S171   S     0.72225   0.08039   0.09797   0.00000  Uiso   1.00
S172   S     0.93609   0.23956   0.40695   0.00000  Uiso   1.00
Zn173  Zn    0.93700   0.17287   0.25539   0.00000  Uiso   1.00
Zn174  Zn    0.72967   0.16046   0.24460   0.00000  Uiso   1.00
C175   C     0.01514   0.59828   0.24908   0.00000  Uiso   1.00
C176   C     0.31260   0.49419   0.15856   0.00000  Uiso   1.00
C177   C     0.02978   0.51135   0.39515   0.00000  Uiso   1.00
C178   C     0.30273   0.48453   0.10534   0.00000  Uiso   1.00
C179   C     0.01672   0.55263   0.47602   0.00000  Uiso   1.00
C180   C     0.30803   0.43223   0.02869   0.00000  Uiso   1.00
C181   C     0.33059   0.54225   0.42701   0.00000  Uiso   1.00
C182   C     0.33069   0.44725   0.07605   0.00000  Uiso   1.00
C183   C     0.07731   0.48882   0.41384   0.00000  Uiso   1.00
C184   C     0.25645   0.50788   0.08549   0.00000  Uiso   1.00
C185   C     0.09800   0.50028   0.46225   0.00000  Uiso   1.00
C186   C     0.31829   0.40176   0.25156   0.00000  Uiso   1.00
C187   C     0.22943   0.48831   0.04087   0.00000  Uiso   1.00
C188   C     0.06790   0.53416   0.49295   0.00000  Uiso   1.00
C189   C     0.25666   0.45045   0.01198   0.00000  Uiso   1.00
C190   C     0.15019   0.48218   0.47948   0.00000  Uiso   1.00
C191   C     0.17505   0.50349   0.02540   0.00000  Uiso   1.00
C192   C     0.14354   0.53740   0.05514   0.00000  Uiso   1.00
C193   C     0.17832   0.44362   0.45220   0.00000  Uiso   1.00
C194   C     0.09028   0.55114   0.03960   0.00000  Uiso   1.00
C195   C     0.23099   0.42887   0.46785   0.00000  Uiso   1.00
C196   C     0.02311   0.65292   0.24920   0.00000  Uiso   1.00
C197   C     0.31047   0.34721   0.25262   0.00000  Uiso   1.00
C198   C     0.02067   0.50534   0.34154   0.00000  Uiso   1.00
H199   H     0.06739   0.57677   0.06370   0.00000  Uiso   1.00
H200   H     0.26716   0.66327   0.25577   0.00000  Uiso   1.00
H201   H     0.16242   0.45755   0.21370   0.00000  Uiso   1.00
H202   H     0.17093   0.54241   0.28635   0.00000  Uiso   1.00
H203   H     0.06645   0.35708   0.15187   0.00000  Uiso   1.00
H204   H     0.25100   0.62448   0.34995   0.00000  Uiso   1.00
H205   H     0.25096   0.39912   0.44588   0.00000  Uiso   1.00
H206   H     0.24026   0.53928   0.10764   0.00000  Uiso   1.00
H207   H     0.10032   0.46555   0.38830   0.00000  Uiso   1.00
H208   H     0.32698   0.57753   0.00058   0.00000  Uiso   1.00
H209   H     0.32813   0.40332   0.00589   0.00000  Uiso   1.00
H210   H     0.15760   0.55294   0.09154   0.00000  Uiso   1.00
H211   H     0.16009   0.42259   0.41914   0.00000  Uiso   1.00
H212   H     0.06643   0.33687   0.24619   0.00000  Uiso   1.00
N213   N     0.14695   0.48550   0.23739   0.00000  Uiso   1.00
N214   N     0.18638   0.51450   0.26260   0.00000  Uiso   1.00
O215   O     0.29719   0.57964   0.25309   0.00000  Uiso   1.00
O216   O     0.10383   0.45195   0.11776   0.00000  Uiso   1.00
O217   O     0.03326   0.37668   0.14303   0.00000  Uiso   1.00
O218   O     0.22361   0.53194   0.38749   0.00000  Uiso   1.00
O219   O     0.24658   0.60534   0.44863   0.00000  Uiso   1.00
O220   O     0.28749   0.61201   0.36207   0.00000  Uiso   1.00
O221   O     0.03614   0.42036   0.24690   0.00000  Uiso   1.00
O222   O     0.05822   0.57035   0.24501   0.00000  Uiso   1.00
O223   O     0.27512   0.42965   0.25499   0.00000  Uiso   1.00
O224   O     0.30328   0.50730   0.32247   0.00000  Uiso   1.00
O225   O     0.03005   0.49270   0.17753   0.00000  Uiso   1.00
O226   O     0.06431   0.49801   0.31439   0.00000  Uiso   1.00
O227   O     0.26902   0.50199   0.18561   0.00000  Uiso   1.00
O228   O     0.07697   0.37884   0.05731   0.00000  Uiso   1.00
S229   S     0.05558   0.41373   0.09797   0.00000  Uiso   1.00
S230   S     0.26942   0.57289   0.40695   0.00000  Uiso   1.00
Zn231  Zn    0.27033   0.50621   0.25539   0.00000  Uiso   1.00
Zn232  Zn    0.06300   0.49379   0.24460   0.00000  Uiso   1.00
C233   C     0.34847   0.59828   0.24908   0.00000  Uiso   1.00
C234   C     0.64594   0.49419   0.15856   0.00000  Uiso   1.00
C235   C     0.36311   0.51135   0.39515   0.00000  Uiso   1.00
C236   C     0.63606   0.48453   0.10534   0.00000  Uiso   1.00
C237   C     0.35005   0.55263   0.47602   0.00000  Uiso   1.00
C238   C     0.64136   0.43223   0.02869   0.00000  Uiso   1.00
C239   C     0.66392   0.54225   0.42701   0.00000  Uiso   1.00
C240   C     0.66402   0.44725   0.07605   0.00000  Uiso   1.00
C241   C     0.41064   0.48882   0.41384   0.00000  Uiso   1.00
C242   C     0.58978   0.50788   0.08549   0.00000  Uiso   1.00
C243   C     0.43133   0.50028   0.46225   0.00000  Uiso   1.00
C244   C     0.65162   0.40176   0.25156   0.00000  Uiso   1.00
C245   C     0.56277   0.48831   0.04087   0.00000  Uiso   1.00
C246   C     0.40123   0.53416   0.49295   0.00000  Uiso   1.00
C247   C     0.58999   0.45045   0.01198   0.00000  Uiso   1.00
C248   C     0.48352   0.48218   0.47948   0.00000  Uiso   1.00
C249   C     0.50839   0.50349   0.02540   0.00000  Uiso   1.00
C250   C     0.47687   0.53740   0.05514   0.00000  Uiso   1.00
C251   C     0.51165   0.44362   0.45220   0.00000  Uiso   1.00
C252   C     0.42362   0.55114   0.03960   0.00000  Uiso   1.00
C253   C     0.56433   0.42887   0.46785   0.00000  Uiso   1.00
C254   C     0.35644   0.65292   0.24920   0.00000  Uiso   1.00
C255   C     0.64380   0.34721   0.25262   0.00000  Uiso   1.00
C256   C     0.35401   0.50534   0.34154   0.00000  Uiso   1.00
H257   H     0.40073   0.57677   0.06370   0.00000  Uiso   1.00
H258   H     0.60049   0.66327   0.25577   0.00000  Uiso   1.00
H259   H     0.49575   0.45755   0.21370   0.00000  Uiso   1.00
H260   H     0.50426   0.54241   0.28635   0.00000  Uiso   1.00
H261   H     0.39979   0.35708   0.15187   0.00000  Uiso   1.00
H262   H     0.58433   0.62448   0.34995   0.00000  Uiso   1.00
H263   H     0.58429   0.39912   0.44588   0.00000  Uiso   1.00
H264   H     0.57360   0.53928   0.10764   0.00000  Uiso   1.00
H265   H     0.43366   0.46555   0.38830   0.00000  Uiso   1.00
H266   H     0.66032   0.57753   0.00058   0.00000  Uiso   1.00
H267   H     0.66146   0.40332   0.00589   0.00000  Uiso   1.00
H268   H     0.49093   0.55294   0.09154   0.00000  Uiso   1.00
H269   H     0.49342   0.42259   0.41914   0.00000  Uiso   1.00
H270   H     0.39977   0.33687   0.24619   0.00000  Uiso   1.00
N271   N     0.48029   0.48550   0.23739   0.00000  Uiso   1.00
N272   N     0.51971   0.51450   0.26260   0.00000  Uiso   1.00
O273   O     0.63052   0.57964   0.25309   0.00000  Uiso   1.00
O274   O     0.43717   0.45195   0.11776   0.00000  Uiso   1.00
O275   O     0.36659   0.37668   0.14303   0.00000  Uiso   1.00
O276   O     0.55695   0.53194   0.38749   0.00000  Uiso   1.00
O277   O     0.57991   0.60534   0.44863   0.00000  Uiso   1.00
O278   O     0.62082   0.61201   0.36207   0.00000  Uiso   1.00
O279   O     0.36948   0.42036   0.24690   0.00000  Uiso   1.00
O280   O     0.39155   0.57035   0.24501   0.00000  Uiso   1.00
O281   O     0.60845   0.42965   0.25499   0.00000  Uiso   1.00
O282   O     0.63662   0.50730   0.32247   0.00000  Uiso   1.00
O283   O     0.36338   0.49270   0.17753   0.00000  Uiso   1.00
O284   O     0.39764   0.49801   0.31439   0.00000  Uiso   1.00
O285   O     0.60236   0.50199   0.18561   0.00000  Uiso   1.00
O286   O     0.41030   0.37884   0.05731   0.00000  Uiso   1.00
S287   S     0.38892   0.41373   0.09797   0.00000  Uiso   1.00
S288   S     0.60276   0.57289   0.40695   0.00000  Uiso   1.00
Zn289  Zn    0.60366   0.50621   0.25539   0.00000  Uiso   1.00
Zn290  Zn    0.39634   0.49379   0.24460   0.00000  Uiso   1.00
C291   C     0.68181   0.59828   0.24908   0.00000  Uiso   1.00
C292   C     0.97927   0.49419   0.15856   0.00000  Uiso   1.00
C293   C     0.69644   0.51135   0.39515   0.00000  Uiso   1.00
C294   C     0.96939   0.48453   0.10534   0.00000  Uiso   1.00
C295   C     0.68339   0.55263   0.47602   0.00000  Uiso   1.00
C296   C     0.97470   0.43223   0.02869   0.00000  Uiso   1.00
C297   C     0.99726   0.54225   0.42701   0.00000  Uiso   1.00
C298   C     0.99736   0.44725   0.07605   0.00000  Uiso   1.00
C299   C     0.74398   0.48882   0.41384   0.00000  Uiso   1.00
C300   C     0.92312   0.50788   0.08549   0.00000  Uiso   1.00
C301   C     0.76467   0.50028   0.46225   0.00000  Uiso   1.00
C302   C     0.98495   0.40176   0.25156   0.00000  Uiso   1.00
C303   C     0.89610   0.48831   0.04087   0.00000  Uiso   1.00
C304   C     0.73456   0.53416   0.49295   0.00000  Uiso   1.00
C305   C     0.92332   0.45045   0.01198   0.00000  Uiso   1.00
C306   C     0.81685   0.48218   0.47948   0.00000  Uiso   1.00
C307   C     0.84172   0.50349   0.02540   0.00000  Uiso   1.00
C308   C     0.81021   0.53740   0.05514   0.00000  Uiso   1.00
C309   C     0.84498   0.44362   0.45220   0.00000  Uiso   1.00
C310   C     0.75695   0.55114   0.03960   0.00000  Uiso   1.00
C311   C     0.89766   0.42887   0.46785   0.00000  Uiso   1.00
C312   C     0.68977   0.65292   0.24920   0.00000  Uiso   1.00
C313   C     0.97713   0.34721   0.25262   0.00000  Uiso   1.00
C314   C     0.68734   0.50534   0.34154   0.00000  Uiso   1.00
H315   H     0.73406   0.57677   0.06370   0.00000  Uiso   1.00
H316   H     0.93383   0.66327   0.25577   0.00000  Uiso   1.00
H317   H     0.82909   0.45755   0.21370   0.00000  Uiso   1.00
H318   H     0.83760   0.54241   0.28635   0.00000  Uiso   1.00
H319   H     0.73312   0.35708   0.15187   0.00000  Uiso   1.00
H320   H     0.91766   0.62448   0.34995   0.00000  Uiso   1.00
H321   H     0.91763   0.39912   0.44588   0.00000  Uiso   1.00
H322   H     0.90693   0.53928   0.10764   0.00000  Uiso   1.00
H323   H     0.76699   0.46555   0.38830   0.00000  Uiso   1.00
H324   H     0.99365   0.57753   0.00058   0.00000  Uiso   1.00
H325   H     0.99479   0.40332   0.00589   0.00000  Uiso   1.00
H326   H     0.82426   0.55294   0.09154   0.00000  Uiso   1.00
H327   H     0.82676   0.42259   0.41914   0.00000  Uiso   1.00
H328   H     0.73310   0.33687   0.24619   0.00000  Uiso   1.00
N329   N     0.81362   0.48550   0.23739   0.00000  Uiso   1.00
N330   N     0.85305   0.51450   0.26260   0.00000  Uiso   1.00
O331   O     0.96386   0.57964   0.25309   0.00000  Uiso   1.00
O332   O     0.77050   0.45195   0.11776   0.00000  Uiso   1.00
O333   O     0.69992   0.37668   0.14303   0.00000  Uiso   1.00
O334   O     0.89028   0.53194   0.38749   0.00000  Uiso   1.00
O335   O     0.91324   0.60534   0.44863   0.00000  Uiso   1.00
O336   O     0.95415   0.61201   0.36207   0.00000  Uiso   1.00
O337   O     0.70281   0.42036   0.24690   0.00000  Uiso   1.00
O338   O     0.72488   0.57035   0.24501   0.00000  Uiso   1.00
O339   O     0.94178   0.42965   0.25499   0.00000  Uiso   1.00
O340   O     0.96995   0.50730   0.32247   0.00000  Uiso   1.00
O341   O     0.69672   0.49270   0.17753   0.00000  Uiso   1.00
O342   O     0.73098   0.49801   0.31439   0.00000  Uiso   1.00
O343   O     0.93569   0.50199   0.18561   0.00000  Uiso   1.00
O344   O     0.74363   0.37884   0.05731   0.00000  Uiso   1.00
S345   S     0.72225   0.41373   0.09797   0.00000  Uiso   1.00
S346   S     0.93609   0.57289   0.40695   0.00000  Uiso   1.00
Zn347  Zn    0.93700   0.50621   0.25539   0.00000  Uiso   1.00
Zn348  Zn    0.72967   0.49379   0.24460   0.00000  Uiso   1.00
C349   C     0.01514   0.93162   0.24908   0.00000  Uiso   1.00
C350   C     0.31260   0.82752   0.15856   0.00000  Uiso   1.00
C351   C     0.02978   0.84469   0.39515   0.00000  Uiso   1.00
C352   C     0.30273   0.81786   0.10534   0.00000  Uiso   1.00
C353   C     0.01672   0.88596   0.47602   0.00000  Uiso   1.00
C354   C     0.30803   0.76557   0.02869   0.00000  Uiso   1.00
C355   C     0.33059   0.87559   0.42701   0.00000  Uiso   1.00
C356   C     0.33069   0.78058   0.07605   0.00000  Uiso   1.00
C357   C     0.07731   0.82215   0.41384   0.00000  Uiso   1.00
C358   C     0.25645   0.84121   0.08549   0.00000  Uiso   1.00
C359   C     0.09800   0.83361   0.46225   0.00000  Uiso   1.00
C360   C     0.31829   0.73510   0.25156   0.00000  Uiso   1.00
C361   C     0.22943   0.82164   0.04087   0.00000  Uiso   1.00
C362   C     0.06790   0.86750   0.49295   0.00000  Uiso   1.00
C363   C     0.25666   0.78378   0.01198   0.00000  Uiso   1.00
C364   C     0.15019   0.81551   0.47948   0.00000  Uiso   1.00
C365   C     0.17505   0.83682   0.02540   0.00000  Uiso   1.00
C366   C     0.14354   0.87073   0.05514   0.00000  Uiso   1.00
C367   C     0.17832   0.77695   0.45220   0.00000  Uiso   1.00
C368   C     0.09028   0.88448   0.03960   0.00000  Uiso   1.00
C369   C     0.23099   0.76220   0.46785   0.00000  Uiso   1.00
C370   C     0.02311   0.98625   0.24920   0.00000  Uiso   1.00
C371   C     0.31047   0.68054   0.25262   0.00000  Uiso   1.00
C372   C     0.02067   0.83867   0.34154   0.00000  Uiso   1.00
H373   H     0.06739   0.91011   0.06370   0.00000  Uiso   1.00
H374   H     0.26716   0.99661   0.25577   0.00000  Uiso   1.00
H375   H     0.16242   0.79089   0.21370   0.00000  Uiso   1.00
H376   H     0.17093   0.87575   0.28635   0.00000  Uiso   1.00
H377   H     0.06645   0.69041   0.15187   0.00000  Uiso   1.00
H378   H     0.25100   0.95781   0.34995   0.00000  Uiso   1.00
H379   H     0.25096   0.73245   0.44588   0.00000  Uiso   1.00
H380   H     0.24026   0.87261   0.10764   0.00000  Uiso   1.00
H381   H     0.10032   0.79888   0.38830   0.00000  Uiso   1.00
H382   H     0.32698   0.91087   0.00058   0.00000  Uiso   1.00
H383   H     0.32813   0.73665   0.00589   0.00000  Uiso   1.00
H384   H     0.15760   0.88628   0.09154   0.00000  Uiso   1.00
H385   H     0.16009   0.75593   0.41914   0.00000  Uiso   1.00
H386   H     0.06643   0.67020   0.24619   0.00000  Uiso   1.00
N387   N     0.14695   0.81883   0.23739   0.00000  Uiso   1.00
N388   N     0.18638   0.84784   0.26260   0.00000  Uiso   1.00
O389   O     0.29719   0.91298   0.25309   0.00000  Uiso   1.00
O390   O     0.10383   0.78528   0.11776   0.00000  Uiso   1.00
O391   O     0.03326   0.71001   0.14303   0.00000  Uiso   1.00
O392   O     0.22361   0.86527   0.38749   0.00000  Uiso   1.00
O393   O     0.24658   0.93867   0.44863   0.00000  Uiso   1.00
O394   O     0.28749   0.94534   0.36207   0.00000  Uiso   1.00
O395   O     0.03614   0.75369   0.24690   0.00000  Uiso   1.00
O396   O     0.05822   0.90368   0.24501   0.00000  Uiso   1.00
O397   O     0.27512   0.76298   0.25499   0.00000  Uiso   1.00
O398   O     0.30328   0.84063   0.32247   0.00000  Uiso   1.00
O399   O     0.03005   0.82603   0.17753   0.00000  Uiso   1.00
O400   O     0.06431   0.83134   0.31439   0.00000  Uiso   1.00
O401   O     0.26902   0.83533   0.18561   0.00000  Uiso   1.00
O402   O     0.07697   0.71218   0.05731   0.00000  Uiso   1.00
S403   S     0.05558   0.74706   0.09797   0.00000  Uiso   1.00
S404   S     0.26942   0.90623   0.40695   0.00000  Uiso   1.00
Zn405  Zn    0.27033   0.83954   0.25539   0.00000  Uiso   1.00
Zn406  Zn    0.06300   0.82713   0.24460   0.00000  Uiso   1.00
C407   C     0.34847   0.93162   0.24908   0.00000  Uiso   1.00
C408   C     0.64594   0.82752   0.15856   0.00000  Uiso   1.00
C409   C     0.36311   0.84469   0.39515   0.00000  Uiso   1.00
C410   C     0.63606   0.81786   0.10534   0.00000  Uiso   1.00
C411   C     0.35005   0.88596   0.47602   0.00000  Uiso   1.00
C412   C     0.64136   0.76557   0.02869   0.00000  Uiso   1.00
C413   C     0.66392   0.87559   0.42701   0.00000  Uiso   1.00
C414   C     0.66402   0.78058   0.07605   0.00000  Uiso   1.00
C415   C     0.41064   0.82215   0.41384   0.00000  Uiso   1.00
C416   C     0.58978   0.84121   0.08549   0.00000  Uiso   1.00
C417   C     0.43133   0.83361   0.46225   0.00000  Uiso   1.00
C418   C     0.65162   0.73510   0.25156   0.00000  Uiso   1.00
C419   C     0.56277   0.82164   0.04087   0.00000  Uiso   1.00
C420   C     0.40123   0.86750   0.49295   0.00000  Uiso   1.00
C421   C     0.58999   0.78378   0.01198   0.00000  Uiso   1.00
C422   C     0.48352   0.81551   0.47948   0.00000  Uiso   1.00
C423   C     0.50839   0.83682   0.02540   0.00000  Uiso   1.00
C424   C     0.47687   0.87073   0.05514   0.00000  Uiso   1.00
C425   C     0.51165   0.77695   0.45220   0.00000  Uiso   1.00
C426   C     0.42362   0.88448   0.03960   0.00000  Uiso   1.00
C427   C     0.56433   0.76220   0.46785   0.00000  Uiso   1.00
C428   C     0.35644   0.98625   0.24920   0.00000  Uiso   1.00
C429   C     0.64380   0.68054   0.25262   0.00000  Uiso   1.00
C430   C     0.35401   0.83867   0.34154   0.00000  Uiso   1.00
H431   H     0.40073   0.91011   0.06370   0.00000  Uiso   1.00
H432   H     0.60049   0.99661   0.25577   0.00000  Uiso   1.00
H433   H     0.49575   0.79089   0.21370   0.00000  Uiso   1.00
H434   H     0.50426   0.87575   0.28635   0.00000  Uiso   1.00
H435   H     0.39979   0.69041   0.15187   0.00000  Uiso   1.00
H436   H     0.58433   0.95781   0.34995   0.00000  Uiso   1.00
H437   H     0.58429   0.73245   0.44588   0.00000  Uiso   1.00
H438   H     0.57360   0.87261   0.10764   0.00000  Uiso   1.00
H439   H     0.43366   0.79888   0.38830   0.00000  Uiso   1.00
H440   H     0.66032   0.91087   0.00058   0.00000  Uiso   1.00
H441   H     0.66146   0.73665   0.00589   0.00000  Uiso   1.00
H442   H     0.49093   0.88628   0.09154   0.00000  Uiso   1.00
H443   H     0.49342   0.75593   0.41914   0.00000  Uiso   1.00
H444   H     0.39977   0.67020   0.24619   0.00000  Uiso   1.00
N445   N     0.48029   0.81883   0.23739   0.00000  Uiso   1.00
N446   N     0.51971   0.84784   0.26260   0.00000  Uiso   1.00
O447   O     0.63052   0.91298   0.25309   0.00000  Uiso   1.00
O448   O     0.43717   0.78528   0.11776   0.00000  Uiso   1.00
O449   O     0.36659   0.71001   0.14303   0.00000  Uiso   1.00
O450   O     0.55695   0.86527   0.38749   0.00000  Uiso   1.00
O451   O     0.57991   0.93867   0.44863   0.00000  Uiso   1.00
O452   O     0.62082   0.94534   0.36207   0.00000  Uiso   1.00
O453   O     0.36948   0.75369   0.24690   0.00000  Uiso   1.00
O454   O     0.39155   0.90368   0.24501   0.00000  Uiso   1.00
O455   O     0.60845   0.76298   0.25499   0.00000  Uiso   1.00
O456   O     0.63662   0.84063   0.32247   0.00000  Uiso   1.00
O457   O     0.36338   0.82603   0.17753   0.00000  Uiso   1.00
O458   O     0.39764   0.83134   0.31439   0.00000  Uiso   1.00
O459   O     0.60236   0.83533   0.18561   0.00000  Uiso   1.00
O460   O     0.41030   0.71218   0.05731   0.00000  Uiso   1.00
S461   S     0.38892   0.74706   0.09797   0.00000  Uiso   1.00
S462   S     0.60276   0.90623   0.40695   0.00000  Uiso   1.00
Zn463  Zn    0.60366   0.83954   0.25539   0.00000  Uiso   1.00
Zn464  Zn    0.39634   0.82713   0.24460   0.00000  Uiso   1.00
C465   C     0.68181   0.93162   0.24908   0.00000  Uiso   1.00
C466   C     0.97927   0.82752   0.15856   0.00000  Uiso   1.00
C467   C     0.69644   0.84469   0.39515   0.00000  Uiso   1.00
C468   C     0.96939   0.81786   0.10534   0.00000  Uiso   1.00
C469   C     0.68339   0.88596   0.47602   0.00000  Uiso   1.00
C470   C     0.97470   0.76557   0.02869   0.00000  Uiso   1.00
C471   C     0.99726   0.87559   0.42701   0.00000  Uiso   1.00
C472   C     0.99736   0.78058   0.07605   0.00000  Uiso   1.00
C473   C     0.74398   0.82215   0.41384   0.00000  Uiso   1.00
C474   C     0.92312   0.84121   0.08549   0.00000  Uiso   1.00
C475   C     0.76467   0.83361   0.46225   0.00000  Uiso   1.00
C476   C     0.98495   0.73510   0.25156   0.00000  Uiso   1.00
C477   C     0.89610   0.82164   0.04087   0.00000  Uiso   1.00
C478   C     0.73456   0.86750   0.49295   0.00000  Uiso   1.00
C479   C     0.92332   0.78378   0.01198   0.00000  Uiso   1.00
C480   C     0.81685   0.81551   0.47948   0.00000  Uiso   1.00
C481   C     0.84172   0.83682   0.02540   0.00000  Uiso   1.00
C482   C     0.81021   0.87073   0.05514   0.00000  Uiso   1.00
C483   C     0.84498   0.77695   0.45220   0.00000  Uiso   1.00
C484   C     0.75695   0.88448   0.03960   0.00000  Uiso   1.00
C485   C     0.89766   0.76220   0.46785   0.00000  Uiso   1.00
C486   C     0.68977   0.98625   0.24920   0.00000  Uiso   1.00
C487   C     0.97713   0.68054   0.25262   0.00000  Uiso   1.00
C488   C     0.68734   0.83867   0.34154   0.00000  Uiso   1.00
H489   H     0.73406   0.91011   0.06370   0.00000  Uiso   1.00
H490   H     0.93383   0.99661   0.25577   0.00000  Uiso   1.00
H491   H     0.82909   0.79089   0.21370   0.00000  Uiso   1.00
H492   H     0.83760   0.87575   0.28635   0.00000  Uiso   1.00
H493   H     0.73312   0.69041   0.15187   0.00000  Uiso   1.00
H494   H     0.91766   0.95781   0.34995   0.00000  Uiso   1.00
H495   H     0.91763   0.73245   0.44588   0.00000  Uiso   1.00
H496   H     0.90693   0.87261   0.10764   0.00000  Uiso   1.00
H497   H     0.76699   0.79888   0.38830   0.00000  Uiso   1.00
H498   H     0.99365   0.91087   0.00058   0.00000  Uiso   1.00
H499   H     0.99479   0.73665   0.00589   0.00000  Uiso   1.00
H500   H     0.82426   0.88628   0.09154   0.00000  Uiso   1.00
H501   H     0.82676   0.75593   0.41914   0.00000  Uiso   1.00
H502   H     0.73310   0.67020   0.24619   0.00000  Uiso   1.00
N503   N     0.81362   0.81883   0.23739   0.00000  Uiso   1.00
N504   N     0.85305   0.84784   0.26260   0.00000  Uiso   1.00
O505   O     0.96386   0.91298   0.25309   0.00000  Uiso   1.00
O506   O     0.77050   0.78528   0.11776   0.00000  Uiso   1.00
O507   O     0.69992   0.71001   0.14303   0.00000  Uiso   1.00
O508   O     0.89028   0.86527   0.38749   0.00000  Uiso   1.00
O509   O     0.91324   0.93867   0.44863   0.00000  Uiso   1.00
O510   O     0.95415   0.94534   0.36207   0.00000  Uiso   1.00
O511   O     0.70281   0.75369   0.24690   0.00000  Uiso   1.00
O512   O     0.72488   0.90368   0.24501   0.00000  Uiso   1.00
O513   O     0.94178   0.76298   0.25499   0.00000  Uiso   1.00
O514   O     0.96995   0.84063   0.32247   0.00000  Uiso   1.00
O515   O     0.69672   0.82603   0.17753   0.00000  Uiso   1.00
O516   O     0.73098   0.83134   0.31439   0.00000  Uiso   1.00
O517   O     0.93569   0.83533   0.18561   0.00000  Uiso   1.00
O518   O     0.74363   0.71218   0.05731   0.00000  Uiso   1.00
S519   S     0.72225   0.74706   0.09797   0.00000  Uiso   1.00
S520   S     0.93609   0.90623   0.40695   0.00000  Uiso   1.00
Zn521  Zn    0.93700   0.83954   0.25539   0.00000  Uiso   1.00
Zn522  Zn    0.72967   0.82713   0.24460   0.00000  Uiso   1.00
C523   C     0.01514   0.26495   0.74908   0.00000  Uiso   1.00
C524   C     0.31260   0.16085   0.65856   0.00000  Uiso   1.00
C525   C     0.02978   0.17802   0.89515   0.00000  Uiso   1.00
C526   C     0.30273   0.15119   0.60534   0.00000  Uiso   1.00
C527   C     0.01672   0.21929   0.97602   0.00000  Uiso   1.00
C528   C     0.30803   0.09890   0.52869   0.00000  Uiso   1.00
C529   C     0.33059   0.20892   0.92701   0.00000  Uiso   1.00
C530   C     0.33069   0.11392   0.57605   0.00000  Uiso   1.00
C531   C     0.07731   0.15549   0.91384   0.00000  Uiso   1.00
C532   C     0.25645   0.17455   0.58549   0.00000  Uiso   1.00
C533   C     0.09800   0.16695   0.96225   0.00000  Uiso   1.00
C534   C     0.31829   0.06843   0.75156   0.00000  Uiso   1.00
C535   C     0.22943   0.15498   0.54087   0.00000  Uiso   1.00
C536   C     0.06790   0.20083   0.99295   0.00000  Uiso   1.00
C537   C     0.25666   0.11711   0.51198   0.00000  Uiso   1.00
C538   C     0.15019   0.14885   0.97948   0.00000  Uiso   1.00
C539   C     0.17505   0.17016   0.52540   0.00000  Uiso   1.00
C540   C     0.14354   0.20406   0.55514   0.00000  Uiso   1.00
C541   C     0.17832   0.11029   0.95220   0.00000  Uiso   1.00
C542   C     0.09028   0.21781   0.53960   0.00000  Uiso   1.00
C543   C     0.23099   0.09554   0.96785   0.00000  Uiso   1.00
C544   C     0.02311   0.31959   0.74920   0.00000  Uiso   1.00
C545   C     0.31047   0.01387   0.75262   0.00000  Uiso   1.00
C546   C     0.02067   0.17200   0.84154   0.00000  Uiso   1.00
H547   H     0.06739   0.24344   0.56370   0.00000  Uiso   1.00
H548   H     0.26716   0.32994   0.75577   0.00000  Uiso   1.00
H549   H     0.16242   0.12422   0.71370   0.00000  Uiso   1.00
H550   H     0.17093   0.20908   0.78635   0.00000  Uiso   1.00
H551   H     0.06645   0.02374   0.65187   0.00000  Uiso   1.00
H552   H     0.25100   0.29115   0.84995   0.00000  Uiso   1.00
H553   H     0.25096   0.06578   0.94588   0.00000  Uiso   1.00
H554   H     0.24026   0.20594   0.60764   0.00000  Uiso   1.00
H555   H     0.10032   0.13222   0.88830   0.00000  Uiso   1.00
H556   H     0.32698   0.24420   0.50058   0.00000  Uiso   1.00
H557   H     0.32813   0.06998   0.50589   0.00000  Uiso   1.00
H558   H     0.15760   0.21961   0.59154   0.00000  Uiso   1.00
H559   H     0.16009   0.08926   0.91914   0.00000  Uiso   1.00
H560   H     0.06643   0.00353   0.74619   0.00000  Uiso   1.00
N561   N     0.14695   0.15216   0.73739   0.00000  Uiso   1.00
N562   N     0.18638   0.18117   0.76260   0.00000  Uiso   1.00
O563   O     0.29719   0.24631   0.75309   0.00000  Uiso   1.00
O564   O     0.10383   0.11861   0.61776   0.00000  Uiso   1.00
O565   O     0.03326   0.04334   0.64303   0.00000  Uiso   1.00
O566   O     0.22361   0.19861   0.88749   0.00000  Uiso   1.00
O567   O     0.24658   0.27200   0.94863   0.00000  Uiso   1.00
O568   O     0.28749   0.27867   0.86207   0.00000  Uiso   1.00
O569   O     0.03614   0.08702   0.74690   0.00000  Uiso   1.00
O570   O     0.05822   0.23702   0.74501   0.00000  Uiso   1.00
O571   O     0.27512   0.09632   0.75499   0.00000  Uiso   1.00
O572   O     0.30328   0.17397   0.82247   0.00000  Uiso   1.00
O573   O     0.03005   0.15937   0.67753   0.00000  Uiso   1.00
O574   O     0.06431   0.16467   0.81439   0.00000  Uiso   1.00
O575   O     0.26902   0.16866   0.68561   0.00000  Uiso   1.00
O576   O     0.07697   0.04551   0.55731   0.00000  Uiso   1.00
S577   S     0.05558   0.08039   0.59797   0.00000  Uiso   1.00
S578   S     0.26942   0.23956   0.90695   0.00000  Uiso   1.00
Zn579  Zn    0.27033   0.17287   0.75539   0.00000  Uiso   1.00
Zn580  Zn    0.06300   0.16046   0.74460   0.00000  Uiso   1.00
C581   C     0.34847   0.26495   0.74908   0.00000  Uiso   1.00
C582   C     0.64594   0.16085   0.65856   0.00000  Uiso   1.00
C583   C     0.36311   0.17802   0.89515   0.00000  Uiso   1.00
C584   C     0.63606   0.15119   0.60534   0.00000  Uiso   1.00
C585   C     0.35005   0.21929   0.97602   0.00000  Uiso   1.00
C586   C     0.64136   0.09890   0.52869   0.00000  Uiso   1.00
C587   C     0.66392   0.20892   0.92701   0.00000  Uiso   1.00
C588   C     0.66402   0.11392   0.57605   0.00000  Uiso   1.00
C589   C     0.41064   0.15549   0.91384   0.00000  Uiso   1.00
C590   C     0.58978   0.17455   0.58549   0.00000  Uiso   1.00
C591   C     0.43133   0.16695   0.96225   0.00000  Uiso   1.00
C592   C     0.65162   0.06843   0.75156   0.00000  Uiso   1.00
C593   C     0.56277   0.15498   0.54087   0.00000  Uiso   1.00
C594   C     0.40123   0.20083   0.99295   0.00000  Uiso   1.00
C595   C     0.58999   0.11711   0.51198   0.00000  Uiso   1.00
C596   C     0.48352   0.14885   0.97948   0.00000  Uiso   1.00
C597   C     0.50839   0.17016   0.52540   0.00000  Uiso   1.00
C598   C     0.47687   0.20406   0.55514   0.00000  Uiso   1.00
C599   C     0.51165   0.11029   0.95220   0.00000  Uiso   1.00
C600   C     0.42362   0.21781   0.53960   0.00000  Uiso   1.00
C601   C     0.56433   0.09554   0.96785   0.00000  Uiso   1.00
C602   C     0.35644   0.31959   0.74920   0.00000  Uiso   1.00
C603   C     0.64380   0.01387   0.75262   0.00000  Uiso   1.00
C604   C     0.35401   0.17200   0.84154   0.00000  Uiso   1.00
H605   H     0.40073   0.24344   0.56370   0.00000  Uiso   1.00
H606   H     0.60049   0.32994   0.75577   0.00000  Uiso   1.00
H607   H     0.49575   0.12422   0.71370   0.00000  Uiso   1.00
H608   H     0.50426   0.20908   0.78635   0.00000  Uiso   1.00
H609   H     0.39979   0.02374   0.65187   0.00000  Uiso   1.00
H610   H     0.58433   0.29115   0.84995   0.00000  Uiso   1.00
H611   H     0.58429   0.06578   0.94588   0.00000  Uiso   1.00
H612   H     0.57360   0.20594   0.60764   0.00000  Uiso   1.00
H613   H     0.43366   0.13222   0.88830   0.00000  Uiso   1.00
H614   H     0.66032   0.24420   0.50058   0.00000  Uiso   1.00
H615   H     0.66146   0.06998   0.50589   0.00000  Uiso   1.00
H616   H     0.49093   0.21961   0.59154   0.00000  Uiso   1.00
H617   H     0.49342   0.08926   0.91914   0.00000  Uiso   1.00
H618   H     0.39977   0.00353   0.74619   0.00000  Uiso   1.00
N619   N     0.48029   0.15216   0.73739   0.00000  Uiso   1.00
N620   N     0.51971   0.18117   0.76260   0.00000  Uiso   1.00
O621   O     0.63052   0.24631   0.75309   0.00000  Uiso   1.00
O622   O     0.43717   0.11861   0.61776   0.00000  Uiso   1.00
O623   O     0.36659   0.04334   0.64303   0.00000  Uiso   1.00
O624   O     0.55695   0.19861   0.88749   0.00000  Uiso   1.00
O625   O     0.57991   0.27200   0.94863   0.00000  Uiso   1.00
O626   O     0.62082   0.27867   0.86207   0.00000  Uiso   1.00
O627   O     0.36948   0.08702   0.74690   0.00000  Uiso   1.00
O628   O     0.39155   0.23702   0.74501   0.00000  Uiso   1.00
O629   O     0.60845   0.09632   0.75499   0.00000  Uiso   1.00
O630   O     0.63662   0.17397   0.82247   0.00000  Uiso   1.00
O631   O     0.36338   0.15937   0.67753   0.00000  Uiso   1.00
O632   O     0.39764   0.16467   0.81439   0.00000  Uiso   1.00
O633   O     0.60236   0.16866   0.68561   0.00000  Uiso   1.00
O634   O     0.41030   0.04551   0.55731   0.00000  Uiso   1.00
S635   S     0.38892   0.08039   0.59797   0.00000  Uiso   1.00
S636   S     0.60276   0.23956   0.90695   0.00000  Uiso   1.00
Zn637  Zn    0.60366   0.17287   0.75539   0.00000  Uiso   1.00
Zn638  Zn    0.39634   0.16046   0.74460   0.00000  Uiso   1.00
C639   C     0.68181   0.26495   0.74908   0.00000  Uiso   1.00
C640   C     0.97927   0.16085   0.65856   0.00000  Uiso   1.00
C641   C     0.69644   0.17802   0.89515   0.00000  Uiso   1.00
C642   C     0.96939   0.15119   0.60534   0.00000  Uiso   1.00
C643   C     0.68339   0.21929   0.97602   0.00000  Uiso   1.00
C644   C     0.97470   0.09890   0.52869   0.00000  Uiso   1.00
C645   C     0.99726   0.20892   0.92701   0.00000  Uiso   1.00
C646   C     0.99736   0.11392   0.57605   0.00000  Uiso   1.00
C647   C     0.74398   0.15549   0.91384   0.00000  Uiso   1.00
C648   C     0.92312   0.17455   0.58549   0.00000  Uiso   1.00
C649   C     0.76467   0.16695   0.96225   0.00000  Uiso   1.00
C650   C     0.98495   0.06843   0.75156   0.00000  Uiso   1.00
C651   C     0.89610   0.15498   0.54087   0.00000  Uiso   1.00
C652   C     0.73456   0.20083   0.99295   0.00000  Uiso   1.00
C653   C     0.92332   0.11711   0.51198   0.00000  Uiso   1.00
C654   C     0.81685   0.14885   0.97948   0.00000  Uiso   1.00
C655   C     0.84172   0.17016   0.52540   0.00000  Uiso   1.00
C656   C     0.81021   0.20406   0.55514   0.00000  Uiso   1.00
C657   C     0.84498   0.11029   0.95220   0.00000  Uiso   1.00
C658   C     0.75695   0.21781   0.53960   0.00000  Uiso   1.00
C659   C     0.89766   0.09554   0.96785   0.00000  Uiso   1.00
C660   C     0.68977   0.31959   0.74920   0.00000  Uiso   1.00
C661   C     0.97713   0.01387   0.75262   0.00000  Uiso   1.00
C662   C     0.68734   0.17200   0.84154   0.00000  Uiso   1.00
H663   H     0.73406   0.24344   0.56370   0.00000  Uiso   1.00
H664   H     0.93383   0.32994   0.75577   0.00000  Uiso   1.00
H665   H     0.82909   0.12422   0.71370   0.00000  Uiso   1.00
H666   H     0.83760   0.20908   0.78635   0.00000  Uiso   1.00
H667   H     0.73312   0.02374   0.65187   0.00000  Uiso   1.00
H668   H     0.91766   0.29115   0.84995   0.00000  Uiso   1.00
H669   H     0.91763   0.06578   0.94588   0.00000  Uiso   1.00
H670   H     0.90693   0.20594   0.60764   0.00000  Uiso   1.00
H671   H     0.76699   0.13222   0.88830   0.00000  Uiso   1.00
H672   H     0.99365   0.24420   0.50058   0.00000  Uiso   1.00
H673   H     0.99479   0.06998   0.50589   0.00000  Uiso   1.00
H674   H     0.82426   0.21961   0.59154   0.00000  Uiso   1.00
H675   H     0.82676   0.08926   0.91914   0.00000  Uiso   1.00
H676   H     0.73310   0.00353   0.74619   0.00000  Uiso   1.00
N677   N     0.81362   0.15216   0.73739   0.00000  Uiso   1.00
N678   N     0.85305   0.18117   0.76260   0.00000  Uiso   1.00
O679   O     0.96386   0.24631   0.75309   0.00000  Uiso   1.00
O680   O     0.77050   0.11861   0.61776   0.00000  Uiso   1.00
O681   O     0.69992   0.04334   0.64303   0.00000  Uiso   1.00
O682   O     0.89028   0.19861   0.88749   0.00000  Uiso   1.00
O683   O     0.91324   0.27200   0.94863   0.00000  Uiso   1.00
O684   O     0.95415   0.27867   0.86207   0.00000  Uiso   1.00
O685   O     0.70281   0.08702   0.74690   0.00000  Uiso   1.00
O686   O     0.72488   0.23702   0.74501   0.00000  Uiso   1.00
O687   O     0.94178   0.09632   0.75499   0.00000  Uiso   1.00
O688   O     0.96995   0.17397   0.82247   0.00000  Uiso   1.00
O689   O     0.69672   0.15937   0.67753   0.00000  Uiso   1.00
O690   O     0.73098   0.16467   0.81439   0.00000  Uiso   1.00
O691   O     0.93569   0.16866   0.68561   0.00000  Uiso   1.00
O692   O     0.74363   0.04551   0.55731   0.00000  Uiso   1.00
S693   S     0.72225   0.08039   0.59797   0.00000  Uiso   1.00
S694   S     0.93609   0.23956   0.90695   0.00000  Uiso   1.00
Zn695  Zn    0.93700   0.17287   0.75539   0.00000  Uiso   1.00
Zn696  Zn    0.72967   0.16046   0.74460   0.00000  Uiso   1.00
C697   C     0.01514   0.59828   0.74908   0.00000  Uiso   1.00
C698   C     0.31260   0.49419   0.65856   0.00000  Uiso   1.00
C699   C     0.02978   0.51135   0.89515   0.00000  Uiso   1.00
C700   C     0.30273   0.48453   0.60534   0.00000  Uiso   1.00
C701   C     0.01672   0.55263   0.97602   0.00000  Uiso   1.00
C702   C     0.30803   0.43223   0.52869   0.00000  Uiso   1.00
C703   C     0.33059   0.54225   0.92701   0.00000  Uiso   1.00
C704   C     0.33069   0.44725   0.57605   0.00000  Uiso   1.00
C705   C     0.07731   0.48882   0.91384   0.00000  Uiso   1.00
C706   C     0.25645   0.50788   0.58549   0.00000  Uiso   1.00
C707   C     0.09800   0.50028   0.96225   0.00000  Uiso   1.00
C708   C     0.31829   0.40176   0.75156   0.00000  Uiso   1.00
C709   C     0.22943   0.48831   0.54087   0.00000  Uiso   1.00
C710   C     0.06790   0.53416   0.99295   0.00000  Uiso   1.00
C711   C     0.25666   0.45045   0.51198   0.00000  Uiso   1.00
C712   C     0.15019   0.48218   0.97948   0.00000  Uiso   1.00
C713   C     0.17505   0.50349   0.52540   0.00000  Uiso   1.00
C714   C     0.14354   0.53740   0.55514   0.00000  Uiso   1.00
C715   C     0.17832   0.44362   0.95220   0.00000  Uiso   1.00
C716   C     0.09028   0.55114   0.53960   0.00000  Uiso   1.00
C717   C     0.23099   0.42887   0.96785   0.00000  Uiso   1.00
C718   C     0.02311   0.65292   0.74920   0.00000  Uiso   1.00
C719   C     0.31047   0.34721   0.75262   0.00000  Uiso   1.00
C720   C     0.02067   0.50534   0.84154   0.00000  Uiso   1.00
H721   H     0.06739   0.57677   0.56370   0.00000  Uiso   1.00
H722   H     0.26716   0.66327   0.75577   0.00000  Uiso   1.00
H723   H     0.16242   0.45755   0.71370   0.00000  Uiso   1.00
H724   H     0.17093   0.54241   0.78635   0.00000  Uiso   1.00
H725   H     0.06645   0.35708   0.65187   0.00000  Uiso   1.00
H726   H     0.25100   0.62448   0.84995   0.00000  Uiso   1.00
H727   H     0.25096   0.39912   0.94588   0.00000  Uiso   1.00
H728   H     0.24026   0.53928   0.60764   0.00000  Uiso   1.00
H729   H     0.10032   0.46555   0.88830   0.00000  Uiso   1.00
H730   H     0.32698   0.57753   0.50058   0.00000  Uiso   1.00
H731   H     0.32813   0.40332   0.50589   0.00000  Uiso   1.00
H732   H     0.15760   0.55294   0.59154   0.00000  Uiso   1.00
H733   H     0.16009   0.42259   0.91914   0.00000  Uiso   1.00
H734   H     0.06643   0.33687   0.74619   0.00000  Uiso   1.00
N735   N     0.14695   0.48550   0.73739   0.00000  Uiso   1.00
N736   N     0.18638   0.51450   0.76260   0.00000  Uiso   1.00
O737   O     0.29719   0.57964   0.75309   0.00000  Uiso   1.00
O738   O     0.10383   0.45195   0.61776   0.00000  Uiso   1.00
O739   O     0.03326   0.37668   0.64303   0.00000  Uiso   1.00
O740   O     0.22361   0.53194   0.88749   0.00000  Uiso   1.00
O741   O     0.24658   0.60534   0.94863   0.00000  Uiso   1.00
O742   O     0.28749   0.61201   0.86207   0.00000  Uiso   1.00
O743   O     0.03614   0.42036   0.74690   0.00000  Uiso   1.00
O744   O     0.05822   0.57035   0.74501   0.00000  Uiso   1.00
O745   O     0.27512   0.42965   0.75499   0.00000  Uiso   1.00
O746   O     0.30328   0.50730   0.82247   0.00000  Uiso   1.00
O747   O     0.03005   0.49270   0.67753   0.00000  Uiso   1.00
O748   O     0.06431   0.49801   0.81439   0.00000  Uiso   1.00
O749   O     0.26902   0.50199   0.68561   0.00000  Uiso   1.00
O750   O     0.07697   0.37884   0.55731   0.00000  Uiso   1.00
S751   S     0.05558   0.41373   0.59797   0.00000  Uiso   1.00
S752   S     0.26942   0.57289   0.90695   0.00000  Uiso   1.00
Zn753  Zn    0.27033   0.50621   0.75539   0.00000  Uiso   1.00
Zn754  Zn    0.06300   0.49379   0.74460   0.00000  Uiso   1.00
C755   C     0.34847   0.59828   0.74908   0.00000  Uiso   1.00
C756   C     0.64594   0.49419   0.65856   0.00000  Uiso   1.00
C757   C     0.36311   0.51135   0.89515   0.00000  Uiso   1.00
C758   C     0.63606   0.48453   0.60534   0.00000  Uiso   1.00
C759   C     0.35005   0.55263   0.97602   0.00000  Uiso   1.00
C760   C     0.64136   0.43223   0.52869   0.00000  Uiso   1.00
C761   C     0.66392   0.54225   0.92701   0.00000  Uiso   1.00
C762   C     0.66402   0.44725   0.57605   0.00000  Uiso   1.00
C763   C     0.41064   0.48882   0.91384   0.00000  Uiso   1.00
C764   C     0.58978   0.50788   0.58549   0.00000  Uiso   1.00
C765   C     0.43133   0.50028   0.96225   0.00000  Uiso   1.00
C766   C     0.65162   0.40176   0.75156   0.00000  Uiso   1.00
C767   C     0.56277   0.48831   0.54087   0.00000  Uiso   1.00
C768   C     0.40123   0.53416   0.99295   0.00000  Uiso   1.00
C769   C     0.58999   0.45045   0.51198   0.00000  Uiso   1.00
C770   C     0.48352   0.48218   0.97948   0.00000  Uiso   1.00
C771   C     0.50839   0.50349   0.52540   0.00000  Uiso   1.00
C772   C     0.47687   0.53740   0.55514   0.00000  Uiso   1.00
C773   C     0.51165   0.44362   0.95220   0.00000  Uiso   1.00
C774   C     0.42362   0.55114   0.53960   0.00000  Uiso   1.00
C775   C     0.56433   0.42887   0.96785   0.00000  Uiso   1.00
C776   C     0.35644   0.65292   0.74920   0.00000  Uiso   1.00
C777   C     0.64380   0.34721   0.75262   0.00000  Uiso   1.00
C778   C     0.35401   0.50534   0.84154   0.00000  Uiso   1.00
H779   H     0.40073   0.57677   0.56370   0.00000  Uiso   1.00
H780   H     0.60049   0.66327   0.75577   0.00000  Uiso   1.00
H781   H     0.49575   0.45755   0.71370   0.00000  Uiso   1.00
H782   H     0.50426   0.54241   0.78635   0.00000  Uiso   1.00
H783   H     0.39979   0.35708   0.65187   0.00000  Uiso   1.00
H784   H     0.58433   0.62448   0.84995   0.00000  Uiso   1.00
H785   H     0.58429   0.39912   0.94588   0.00000  Uiso   1.00
H786   H     0.57360   0.53928   0.60764   0.00000  Uiso   1.00
H787   H     0.43366   0.46555   0.88830   0.00000  Uiso   1.00
H788   H     0.66032   0.57753   0.50058   0.00000  Uiso   1.00
H789   H     0.66146   0.40332   0.50589   0.00000  Uiso   1.00
H790   H     0.49093   0.55294   0.59154   0.00000  Uiso   1.00
H791   H     0.49342   0.42259   0.91914   0.00000  Uiso   1.00
H792   H     0.39977   0.33687   0.74619   0.00000  Uiso   1.00
N793   N     0.48029   0.48550   0.73739   0.00000  Uiso   1.00
N794   N     0.51971   0.51450   0.76260   0.00000  Uiso   1.00
O795   O     0.63052   0.57964   0.75309   0.00000  Uiso   1.00
O796   O     0.43717   0.45195   0.61776   0.00000  Uiso   1.00
O797   O     0.36659   0.37668   0.64303   0.00000  Uiso   1.00
O798   O     0.55695   0.53194   0.88749   0.00000  Uiso   1.00
O799   O     0.57991   0.60534   0.94863   0.00000  Uiso   1.00
O800   O     0.62082   0.61201   0.86207   0.00000  Uiso   1.00
O801   O     0.36948   0.42036   0.74690   0.00000  Uiso   1.00
O802   O     0.39155   0.57035   0.74501   0.00000  Uiso   1.00
O803   O     0.60845   0.42965   0.75499   0.00000  Uiso   1.00
O804   O     0.63662   0.50730   0.82247   0.00000  Uiso   1.00
O805   O     0.36338   0.49270   0.67753   0.00000  Uiso   1.00
O806   O     0.39764   0.49801   0.81439   0.00000  Uiso   1.00
O807   O     0.60236   0.50199   0.68561   0.00000  Uiso   1.00
O808   O     0.41030   0.37884   0.55731   0.00000  Uiso   1.00
S809   S     0.38892   0.41373   0.59797   0.00000  Uiso   1.00
S810   S     0.60276   0.57289   0.90695   0.00000  Uiso   1.00
Zn811  Zn    0.60366   0.50621   0.75539   0.00000  Uiso   1.00
Zn812  Zn    0.39634   0.49379   0.74460   0.00000  Uiso   1.00
C813   C     0.68181   0.59828   0.74908   0.00000  Uiso   1.00
C814   C     0.97927   0.49419   0.65856   0.00000  Uiso   1.00
C815   C     0.69644   0.51135   0.89515   0.00000  Uiso   1.00
C816   C     0.96939   0.48453   0.60534   0.00000  Uiso   1.00
C817   C     0.68339   0.55263   0.97602   0.00000  Uiso   1.00
C818   C     0.97470   0.43223   0.52869   0.00000  Uiso   1.00
C819   C     0.99726   0.54225   0.92701   0.00000  Uiso   1.00
C820   C     0.99736   0.44725   0.57605   0.00000  Uiso   1.00
C821   C     0.74398   0.48882   0.91384   0.00000  Uiso   1.00
C822   C     0.92312   0.50788   0.58549   0.00000  Uiso   1.00
C823   C     0.76467   0.50028   0.96225   0.00000  Uiso   1.00
C824   C     0.98495   0.40176   0.75156   0.00000  Uiso   1.00
C825   C     0.89610   0.48831   0.54087   0.00000  Uiso   1.00
C826   C     0.73456   0.53416   0.99295   0.00000  Uiso   1.00
C827   C     0.92332   0.45045   0.51198   0.00000  Uiso   1.00
C828   C     0.81685   0.48218   0.97948   0.00000  Uiso   1.00
C829   C     0.84172   0.50349   0.52540   0.00000  Uiso   1.00
C830   C     0.81021   0.53740   0.55514   0.00000  Uiso   1.00
C831   C     0.84498   0.44362   0.95220   0.00000  Uiso   1.00
C832   C     0.75695   0.55114   0.53960   0.00000  Uiso   1.00
C833   C     0.89766   0.42887   0.96785   0.00000  Uiso   1.00
C834   C     0.68977   0.65292   0.74920   0.00000  Uiso   1.00
C835   C     0.97713   0.34721   0.75262   0.00000  Uiso   1.00
C836   C     0.68734   0.50534   0.84154   0.00000  Uiso   1.00
H837   H     0.73406   0.57677   0.56370   0.00000  Uiso   1.00
H838   H     0.93383   0.66327   0.75577   0.00000  Uiso   1.00
H839   H     0.82909   0.45755   0.71370   0.00000  Uiso   1.00
H840   H     0.83760   0.54241   0.78635   0.00000  Uiso   1.00
H841   H     0.73312   0.35708   0.65187   0.00000  Uiso   1.00
H842   H     0.91766   0.62448   0.84995   0.00000  Uiso   1.00
H843   H     0.91763   0.39912   0.94588   0.00000  Uiso   1.00
H844   H     0.90693   0.53928   0.60764   0.00000  Uiso   1.00
H845   H     0.76699   0.46555   0.88830   0.00000  Uiso   1.00
H846   H     0.99365   0.57753   0.50058   0.00000  Uiso   1.00
H847   H     0.99479   0.40332   0.50589   0.00000  Uiso   1.00
H848   H     0.82426   0.55294   0.59154   0.00000  Uiso   1.00
H849   H     0.82676   0.42259   0.91914   0.00000  Uiso   1.00
H850   H     0.73310   0.33687   0.74619   0.00000  Uiso   1.00
N851   N     0.81362   0.48550   0.73739   0.00000  Uiso   1.00
N852   N     0.85305   0.51450   0.76260   0.00000  Uiso   1.00
O853   O     0.96386   0.57964   0.75309   0.00000  Uiso   1.00
O854   O     0.77050   0.45195   0.61776   0.00000  Uiso   1.00
O855   O     0.69992   0.37668   0.64303   0.00000  Uiso   1.00
O856   O     0.89028   0.53194   0.88749   0.00000  Uiso   1.00
O857   O     0.91324   0.60534   0.94863   0.00000  Uiso   1.00
O858   O     0.95415   0.61201   0.86207   0.00000  Uiso   1.00
O859   O     0.70281   0.42036   0.74690   0.00000  Uiso   1.00
O860   O     0.72488   0.57035   0.74501   0.00000  Uiso   1.00
O861   O     0.94178   0.42965   0.75499   0.00000  Uiso   1.00
O862   O     0.96995   0.50730   0.82247   0.00000  Uiso   1.00
O863   O     0.69672   0.49270   0.67753   0.00000  Uiso   1.00
O864   O     0.73098   0.49801   0.81439   0.00000  Uiso   1.00
O865   O     0.93569   0.50199   0.68561   0.00000  Uiso   1.00
O866   O     0.74363   0.37884   0.55731   0.00000  Uiso   1.00
S867   S     0.72225   0.41373   0.59797   0.00000  Uiso   1.00
S868   S     0.93609   0.57289   0.90695   0.00000  Uiso   1.00
Zn869  Zn    0.93700   0.50621   0.75539   0.00000  Uiso   1.00
Zn870  Zn    0.72967   0.49379   0.74460   0.00000  Uiso   1.00
C871   C     0.01514   0.93162   0.74908   0.00000  Uiso   1.00
C872   C     0.31260   0.82752   0.65856   0.00000  Uiso   1.00
C873   C     0.02978   0.84469   0.89515   0.00000  Uiso   1.00
C874   C     0.30273   0.81786   0.60534   0.00000  Uiso   1.00
C875   C     0.01672   0.88596   0.97602   0.00000  Uiso   1.00
C876   C     0.30803   0.76557   0.52869   0.00000  Uiso   1.00
C877   C     0.33059   0.87559   0.92701   0.00000  Uiso   1.00
C878   C     0.33069   0.78058   0.57605   0.00000  Uiso   1.00
C879   C     0.07731   0.82215   0.91384   0.00000  Uiso   1.00
C880   C     0.25645   0.84121   0.58549   0.00000  Uiso   1.00
C881   C     0.09800   0.83361   0.96225   0.00000  Uiso   1.00
C882   C     0.31829   0.73510   0.75156   0.00000  Uiso   1.00
C883   C     0.22943   0.82164   0.54087   0.00000  Uiso   1.00
C884   C     0.06790   0.86750   0.99295   0.00000  Uiso   1.00
C885   C     0.25666   0.78378   0.51198   0.00000  Uiso   1.00
C886   C     0.15019   0.81551   0.97948   0.00000  Uiso   1.00
C887   C     0.17505   0.83682   0.52540   0.00000  Uiso   1.00
C888   C     0.14354   0.87073   0.55514   0.00000  Uiso   1.00
C889   C     0.17832   0.77695   0.95220   0.00000  Uiso   1.00
C890   C     0.09028   0.88448   0.53960   0.00000  Uiso   1.00
C891   C     0.23099   0.76220   0.96785   0.00000  Uiso   1.00
C892   C     0.02311   0.98625   0.74920   0.00000  Uiso   1.00
C893   C     0.31047   0.68054   0.75262   0.00000  Uiso   1.00
C894   C     0.02067   0.83867   0.84154   0.00000  Uiso   1.00
H895   H     0.06739   0.91011   0.56370   0.00000  Uiso   1.00
H896   H     0.26716   0.99661   0.75577   0.00000  Uiso   1.00
H897   H     0.16242   0.79089   0.71370   0.00000  Uiso   1.00
H898   H     0.17093   0.87575   0.78635   0.00000  Uiso   1.00
H899   H     0.06645   0.69041   0.65187   0.00000  Uiso   1.00
H900   H     0.25100   0.95781   0.84995   0.00000  Uiso   1.00
H901   H     0.25096   0.73245   0.94588   0.00000  Uiso   1.00
H902   H     0.24026   0.87261   0.60764   0.00000  Uiso   1.00
H903   H     0.10032   0.79888   0.88830   0.00000  Uiso   1.00
H904   H     0.32698   0.91087   0.50058   0.00000  Uiso   1.00
H905   H     0.32813   0.73665   0.50589   0.00000  Uiso   1.00
H906   H     0.15760   0.88628   0.59154   0.00000  Uiso   1.00
H907   H     0.16009   0.75593   0.91914   0.00000  Uiso   1.00
H908   H     0.06643   0.67020   0.74619   0.00000  Uiso   1.00
N909   N     0.14695   0.81883   0.73739   0.00000  Uiso   1.00
N910   N     0.18638   0.84784   0.76260   0.00000  Uiso   1.00
O911   O     0.29719   0.91298   0.75309   0.00000  Uiso   1.00
O912   O     0.10383   0.78528   0.61776   0.00000  Uiso   1.00
O913   O     0.03326   0.71001   0.64303   0.00000  Uiso   1.00
O914   O     0.22361   0.86527   0.88749   0.00000  Uiso   1.00
O915   O     0.24658   0.93867   0.94863   0.00000  Uiso   1.00
O916   O     0.28749   0.94534   0.86207   0.00000  Uiso   1.00
O917   O     0.03614   0.75369   0.74690   0.00000  Uiso   1.00
O918   O     0.05822   0.90368   0.74501   0.00000  Uiso   1.00
O919   O     0.27512   0.76298   0.75499   0.00000  Uiso   1.00
O920   O     0.30328   0.84063   0.82247   0.00000  Uiso   1.00
O921   O     0.03005   0.82603   0.67753   0.00000  Uiso   1.00
O922   O     0.06431   0.83134   0.81439   0.00000  Uiso   1.00
O923   O     0.26902   0.83533   0.68561   0.00000  Uiso   1.00
O924   O     0.07697   0.71218   0.55731   0.00000  Uiso   1.00
S925   S     0.05558   0.74706   0.59797   0.00000  Uiso   1.00
S926   S     0.26942   0.90623   0.90695   0.00000  Uiso   1.00
Zn927  Zn    0.27033   0.83954   0.75539   0.00000  Uiso   1.00
Zn928  Zn    0.06300   0.82713   0.74460   0.00000  Uiso   1.00
C929   C     0.34847   0.93162   0.74908   0.00000  Uiso   1.00
C930   C     0.64594   0.82752   0.65856   0.00000  Uiso   1.00
C931   C     0.36311   0.84469   0.89515   0.00000  Uiso   1.00
C932   C     0.63606   0.81786   0.60534   0.00000  Uiso   1.00
C933   C     0.35005   0.88596   0.97602   0.00000  Uiso   1.00
C934   C     0.64136   0.76557   0.52869   0.00000  Uiso   1.00
C935   C     0.66392   0.87559   0.92701   0.00000  Uiso   1.00
C936   C     0.66402   0.78058   0.57605   0.00000  Uiso   1.00
C937   C     0.41064   0.82215   0.91384   0.00000  Uiso   1.00
C938   C     0.58978   0.84121   0.58549   0.00000  Uiso   1.00
C939   C     0.43133   0.83361   0.96225   0.00000  Uiso   1.00
C940   C     0.65162   0.73510   0.75156   0.00000  Uiso   1.00
C941   C     0.56277   0.82164   0.54087   0.00000  Uiso   1.00
C942   C     0.40123   0.86750   0.99295   0.00000  Uiso   1.00
C943   C     0.58999   0.78378   0.51198   0.00000  Uiso   1.00
C944   C     0.48352   0.81551   0.97948   0.00000  Uiso   1.00
C945   C     0.50839   0.83682   0.52540   0.00000  Uiso   1.00
C946   C     0.47687   0.87073   0.55514   0.00000  Uiso   1.00
C947   C     0.51165   0.77695   0.95220   0.00000  Uiso   1.00
C948   C     0.42362   0.88448   0.53960   0.00000  Uiso   1.00
C949   C     0.56433   0.76220   0.96785   0.00000  Uiso   1.00
C950   C     0.35644   0.98625   0.74920   0.00000  Uiso   1.00
C951   C     0.64380   0.68054   0.75262   0.00000  Uiso   1.00
C952   C     0.35401   0.83867   0.84154   0.00000  Uiso   1.00
H953   H     0.40073   0.91011   0.56370   0.00000  Uiso   1.00
H954   H     0.60049   0.99661   0.75577   0.00000  Uiso   1.00
H955   H     0.49575   0.79089   0.71370   0.00000  Uiso   1.00
H956   H     0.50426   0.87575   0.78635   0.00000  Uiso   1.00
H957   H     0.39979   0.69041   0.65187   0.00000  Uiso   1.00
H958   H     0.58433   0.95781   0.84995   0.00000  Uiso   1.00
H959   H     0.58429   0.73245   0.94588   0.00000  Uiso   1.00
H960   H     0.57360   0.87261   0.60764   0.00000  Uiso   1.00
H961   H     0.43366   0.79888   0.88830   0.00000  Uiso   1.00
H962   H     0.66032   0.91087   0.50058   0.00000  Uiso   1.00
H963   H     0.66146   0.73665   0.50589   0.00000  Uiso   1.00
H964   H     0.49093   0.88628   0.59154   0.00000  Uiso   1.00
H965   H     0.49342   0.75593   0.91914   0.00000  Uiso   1.00
H966   H     0.39977   0.67020   0.74619   0.00000  Uiso   1.00
N967   N     0.48029   0.81883   0.73739   0.00000  Uiso   1.00
N968   N     0.51971   0.84784   0.76260   0.00000  Uiso   1.00
O969   O     0.63052   0.91298   0.75309   0.00000  Uiso   1.00
O970   O     0.43717   0.78528   0.61776   0.00000  Uiso   1.00
O971   O     0.36659   0.71001   0.64303   0.00000  Uiso   1.00
O972   O     0.55695   0.86527   0.88749   0.00000  Uiso   1.00
O973   O     0.57991   0.93867   0.94863   0.00000  Uiso   1.00
O974   O     0.62082   0.94534   0.86207   0.00000  Uiso   1.00
O975   O     0.36948   0.75369   0.74690   0.00000  Uiso   1.00
O976   O     0.39155   0.90368   0.74501   0.00000  Uiso   1.00
O977   O     0.60845   0.76298   0.75499   0.00000  Uiso   1.00
O978   O     0.63662   0.84063   0.82247   0.00000  Uiso   1.00
O979   O     0.36338   0.82603   0.67753   0.00000  Uiso   1.00
O980   O     0.39764   0.83134   0.81439   0.00000  Uiso   1.00
O981   O     0.60236   0.83533   0.68561   0.00000  Uiso   1.00
O982   O     0.41030   0.71218   0.55731   0.00000  Uiso   1.00
S983   S     0.38892   0.74706   0.59797   0.00000  Uiso   1.00
S984   S     0.60276   0.90623   0.90695   0.00000  Uiso   1.00
Zn985  Zn    0.60366   0.83954   0.75539   0.00000  Uiso   1.00
Zn986  Zn    0.39634   0.82713   0.74460   0.00000  Uiso   1.00
C987   C     0.68181   0.93162   0.74908   0.00000  Uiso   1.00
C988   C     0.97927   0.82752   0.65856   0.00000  Uiso   1.00
C989   C     0.69644   0.84469   0.89515   0.00000  Uiso   1.00
C990   C     0.96939   0.81786   0.60534   0.00000  Uiso   1.00
C991   C     0.68339   0.88596   0.97602   0.00000  Uiso   1.00
C992   C     0.97470   0.76557   0.52869   0.00000  Uiso   1.00
C993   C     0.99726   0.87559   0.92701   0.00000  Uiso   1.00
C994   C     0.99736   0.78058   0.57605   0.00000  Uiso   1.00
C995   C     0.74398   0.82215   0.91384   0.00000  Uiso   1.00
C996   C     0.92312   0.84121   0.58549   0.00000  Uiso   1.00
C997   C     0.76467   0.83361   0.96225   0.00000  Uiso   1.00
C998   C     0.98495   0.73510   0.75156   0.00000  Uiso   1.00
C999   C     0.89610   0.82164   0.54087   0.00000  Uiso   1.00
C1000  C     0.73456   0.86750   0.99295   0.00000  Uiso   1.00
C1001  C     0.92332   0.78378   0.51198   0.00000  Uiso   1.00
C1002  C     0.81685   0.81551   0.97948   0.00000  Uiso   1.00
C1003  C     0.84172   0.83682   0.52540   0.00000  Uiso   1.00
C1004  C     0.81021   0.87073   0.55514   0.00000  Uiso   1.00
C1005  C     0.84498   0.77695   0.95220   0.00000  Uiso   1.00
C1006  C     0.75695   0.88448   0.53960   0.00000  Uiso   1.00
C1007  C     0.89766   0.76220   0.96785   0.00000  Uiso   1.00
C1008  C     0.68977   0.98625   0.74920   0.00000  Uiso   1.00
C1009  C     0.97713   0.68054   0.75262   0.00000  Uiso   1.00
C1010  C     0.68734   0.83867   0.84154   0.00000  Uiso   1.00
H1011  H     0.73406   0.91011   0.56370   0.00000  Uiso   1.00
H1012  H     0.93383   0.99661   0.75577   0.00000  Uiso   1.00
H1013  H     0.82909   0.79089   0.71370   0.00000  Uiso   1.00
H1014  H     0.83760   0.87575   0.78635   0.00000  Uiso   1.00
H1015  H     0.73312   0.69041   0.65187   0.00000  Uiso   1.00
H1016  H     0.91766   0.95781   0.84995   0.00000  Uiso   1.00
H1017  H     0.91763   0.73245   0.94588   0.00000  Uiso   1.00
H1018  H     0.90693   0.87261   0.60764   0.00000  Uiso   1.00
H1019  H     0.76699   0.79888   0.88830   0.00000  Uiso   1.00
H1020  H     0.99365   0.91087   0.50058   0.00000  Uiso   1.00
H1021  H     0.99479   0.73665   0.50589   0.00000  Uiso   1.00
H1022  H     0.82426   0.88628   0.59154   0.00000  Uiso   1.00
H1023  H     0.82676   0.75593   0.91914   0.00000  Uiso   1.00
H1024  H     0.73310   0.67020   0.74619   0.00000  Uiso   1.00
N1025  N     0.81362   0.81883   0.73739   0.00000  Uiso   1.00
N1026  N     0.85305   0.84784   0.76260   0.00000  Uiso   1.00
O1027  O     0.96386   0.91298   0.75309   0.00000  Uiso   1.00
O1028  O     0.77050   0.78528   0.61776   0.00000  Uiso   1.00
O1029  O     0.69992   0.71001   0.64303   0.00000  Uiso   1.00
O1030  O     0.89028   0.86527   0.88749   0.00000  Uiso   1.00
O1031  O     0.91324   0.93867   0.94863   0.00000  Uiso   1.00
O1032  O     0.95415   0.94534   0.86207   0.00000  Uiso   1.00
O1033  O     0.70281   0.75369   0.74690   0.00000  Uiso   1.00
O1034  O     0.72488   0.90368   0.74501   0.00000  Uiso   1.00
O1035  O     0.94178   0.76298   0.75499   0.00000  Uiso   1.00
O1036  O     0.96995   0.84063   0.82247   0.00000  Uiso   1.00
O1037  O     0.69672   0.82603   0.67753   0.00000  Uiso   1.00
O1038  O     0.73098   0.83134   0.81439   0.00000  Uiso   1.00
O1039  O     0.93569   0.83533   0.68561   0.00000  Uiso   1.00
O1040  O     0.74363   0.71218   0.55731   0.00000  Uiso   1.00
S1041  S     0.72225   0.74706   0.59797   0.00000  Uiso   1.00
S1042  S     0.93609   0.90623   0.90695   0.00000  Uiso   1.00
Zn1043 Zn    0.93700   0.83954   0.75539   0.00000  Uiso   1.00
Zn1044 Zn    0.72967   0.82713   0.74460   0.00000  Uiso   1.00
loop_
_geom_bond_atom_site_label_1
_geom_bond_atom_site_label_2
_geom_bond_distance
_geom_bond_site_symmetry_2
_ccdc_geom_bond_type
C1     O48     1.288   .     A
C1     C22     1.401   .     S
C1     O157    1.274   1_455 S
C2     C4      1.463   .     S
C2     O53     1.304   .     A
C2     O109    1.287   .     S
C3     C9      1.392   .     A
C3     C24     1.466   .     S
C3     C123    1.421   1_455 S
C4     C8      1.420   .     A
C4     C10     1.390   .     A
C5     C14     1.399   .     A
C5     C123    1.398   1_455 S
C5     H672    1.083   1_455 S
C6     H35     1.083   .     S
C6     C8      1.397   .     A
C6     C15     1.399   .     A
C7     S56     1.776   .     S
C7     C61     1.421   .     S
C7     C63     1.398   .     S
C8     S113    1.776   .     S
C9     C11     1.395   .     A
C9     H33     1.075   .     S
C10    C13     1.396   .     A
C10    H32     1.076   .     S
C11    C16     1.419   .     A
C11    C14     1.414   .     A
C12    C23     1.401   .     S
C12    O49     1.288   .     A
C12    O105    1.274   .     S
C13    C17     1.421   .     A
C13    C15     1.416   .     A
C14    C542    1.388   .     S
C15    C543    1.388   1_554 S
C16    C19     1.417   .     A
C16    C539    1.419   .     S
C17    C18     1.419   .     A
C17    C538    1.419   1_554 S
C18    C20     1.385   .     A
C18    H36     1.075   .     S
C19    C21     1.382   .     A
C19    H37     1.077   .     S
C20    H25     1.085   .     S
C20    C536    1.388   1_554 S
C21    H31     1.085   .     S
C21    C537    1.388   .     S
C22    C313    1.339   1_455 S
C22    H212    1.088   .     S
C23    C428    1.339   1_545 S
C23    H374    1.088   1_545 S
C24    O52     1.305   .     A
C24    O166    1.288   1_455 S
H26    C197    1.088   .     S
H27    N39     1.029   .     S
H28    N40     1.029   .     S
H29    O43     0.990   .     S
H30    O46     0.991   .     S
H34    C585    1.083   1_554 S
H38    C370    1.088   1_545 S
N39    Zn58    2.016   .     S
N39    N40     1.290   .     D
N40    Zn57    2.016   .     S
O41    Zn57    1.948   .     S
O41    C59     1.274   .     S
O42    S55     1.502   .     D
O43    S55     1.679   .     S
O44    S56     1.503   .     D
O45    S56     1.504   .     D
O46    S56     1.681   .     S
O47    Zn58    1.948   .     S
O47    C128    1.274   1_455 S
O48    Zn58    1.976   .     S
O49    Zn57    1.976   .     S
O50    Zn57    1.957   .     S
O50    C82     1.288   .     S
O51    Zn58    1.957   .     S
O51    C118    1.287   1_455 S
O52    Zn58    1.898   .     S
O53    Zn57    1.898   .     S
O54    S55     1.504   .     D
S55    C124    1.776   1_455 S
C59    O106    1.288   .     A
C59    C80     1.401   .     S
C60    C62     1.463   .     S
C60    O111    1.304   .     A
C60    O167    1.287   .     S
C61    C67     1.392   .     A
C61    C82     1.466   .     S
C62    C66     1.420   .     A
C62    C68     1.390   .     A
C63    C72     1.399   .     A
C63    H556    1.083   .     S
C64    H93     1.083   .     S
C64    C66     1.397   .     A
C64    C73     1.399   .     A
C65    S114    1.776   .     S
C65    C119    1.421   .     S
C65    C121    1.398   .     S
C66    S171    1.776   .     S
C67    C69     1.395   .     A
C67    H91     1.075   .     S
C68    C71     1.396   .     A
C68    H90     1.076   .     S
C69    C74     1.419   .     A
C69    C72     1.414   .     A
C70    C81     1.401   .     S
C70    O107    1.288   .     A
C70    O163    1.274   .     S
C71    C75     1.421   .     A
C71    C73     1.416   .     A
C72    C600    1.388   .     S
C73    C601    1.388   1_554 S
C74    C77     1.417   .     A
C74    C597    1.419   .     S
C75    C76     1.419   .     A
C75    C596    1.419   1_554 S
C76    C78     1.385   .     A
C76    H94     1.075   .     S
C77    C79     1.382   .     A
C77    H95     1.077   .     S
C78    H83     1.085   .     S
C78    C594    1.388   1_554 S
C79    H89     1.085   .     S
C79    C595    1.388   .     S
C80    C197    1.339   .     S
C80    H270    1.088   .     S
C81    C486    1.339   1_545 S
C81    H432    1.088   1_545 S
C82    O110    1.305   .     A
H84    C255    1.088   .     S
H85    N97     1.029   .     S
H86    N98     1.029   .     S
H87    O101    0.990   .     S
H88    O104    0.991   .     S
H92    C643    1.083   1_554 S
H96    C428    1.088   1_545 S
N97    Zn116   2.016   .     S
N97    N98     1.290   .     D
N98    Zn115   2.016   .     S
O99    Zn115   1.948   .     S
O99    C117    1.274   .     S
O100   S113    1.502   .     D
O101   S113    1.679   .     S
O102   S114    1.503   .     D
O103   S114    1.504   .     D
O104   S114    1.681   .     S
O105   Zn116   1.948   .     S
O106   Zn116   1.976   .     S
O107   Zn115   1.976   .     S
O108   Zn115   1.957   .     S
O108   C140    1.288   .     S
O109   Zn116   1.957   .     S
O110   Zn116   1.898   .     S
O111   Zn115   1.898   .     S
O112   S113    1.504   .     D
C117   O164    1.288   .     A
C117   C138    1.401   .     S
C118   C120    1.463   .     S
C118   O169    1.304   .     A
C118   O51     1.287   1_655 S
C119   C125    1.392   .     A
C119   C140    1.466   .     S
C120   C124    1.420   .     A
C120   C126    1.390   .     A
C121   C130    1.399   .     A
C121   H614    1.083   .     S
C122   H151    1.083   .     S
C122   C124    1.397   .     A
C122   C131    1.399   .     A
C123   S172    1.776   .     S
C123   C3      1.421   1_655 S
C123   C5      1.398   1_655 S
C124   S55     1.776   1_655 S
C125   C127    1.395   .     A
C125   H149    1.075   .     S
C126   C129    1.396   .     A
C126   H148    1.076   .     S
C127   C132    1.419   .     A
C127   C130    1.414   .     A
C128   C139    1.401   .     S
C128   O165    1.288   .     A
C128   O47     1.274   1_655 S
C129   C133    1.421   .     A
C129   C131    1.416   .     A
C130   C658    1.388   .     S
C131   C659    1.388   1_554 S
C132   C135    1.417   .     A
C132   C655    1.419   .     S
C133   C134    1.419   .     A
C133   C654    1.419   1_554 S
C134   C136    1.385   .     A
C134   H152    1.075   .     S
C135   C137    1.382   .     A
C135   H153    1.077   .     S
C136   H141    1.085   .     S
C136   C652    1.388   1_554 S
C137   H147    1.085   .     S
C137   C653    1.388   .     S
C138   C255    1.339   .     S
C138   H328    1.088   .     S
C139   C370    1.339   1_645 S
C139   H490    1.088   1_545 S
C140   O168    1.305   .     A
H142   C313    1.088   .     S
H143   N155    1.029   .     S
H144   N156    1.029   .     S
H145   O159    0.990   .     S
H146   O162    0.991   .     S
H150   C527    1.083   1_654 S
H154   C486    1.088   1_545 S
N155   Zn174   2.016   .     S
N155   N156    1.290   .     D
N156   Zn173   2.016   .     S
O157   Zn173   1.948   .     S
O157   C1      1.274   1_655 S
O158   S171    1.502   .     D
O159   S171    1.679   .     S
O160   S172    1.503   .     D
O161   S172    1.504   .     D
O162   S172    1.681   .     S
O163   Zn174   1.948   .     S
O164   Zn174   1.976   .     S
O165   Zn173   1.976   .     S
O166   Zn173   1.957   .     S
O166   C24     1.288   1_655 S
O167   Zn174   1.957   .     S
O168   Zn174   1.898   .     S
O169   Zn173   1.898   .     S
O170   S171    1.504   .     D
C175   O222    1.288   .     A
C175   C196    1.401   .     S
C175   O331    1.274   1_455 S
C176   C178    1.463   .     S
C176   O227    1.304   .     A
C176   O283    1.287   .     S
C177   C183    1.392   .     A
C177   C198    1.466   .     S
C177   C297    1.421   1_455 S
C178   C182    1.420   .     A
C178   C184    1.390   .     A
C179   C188    1.399   .     A
C179   C297    1.398   1_455 S
C179   H846    1.083   1_455 S
C180   H209    1.083   .     S
C180   C182    1.397   .     A
C180   C189    1.399   .     A
C181   S230    1.776   .     S
C181   C235    1.421   .     S
C181   C237    1.398   .     S
C182   S287    1.776   .     S
C183   C185    1.395   .     A
C183   H207    1.075   .     S
C184   C187    1.396   .     A
C184   H206    1.076   .     S
C185   C190    1.419   .     A
C185   C188    1.414   .     A
C186   C197    1.401   .     S
C186   O223    1.288   .     A
C186   O279    1.274   .     S
C187   C191    1.421   .     A
C187   C189    1.416   .     A
C188   C716    1.388   .     S
C189   C717    1.388   1_554 S
C190   C193    1.417   .     A
C190   C713    1.419   .     S
C191   C192    1.419   .     A
C191   C712    1.419   1_554 S
C192   C194    1.385   .     A
C192   H210    1.075   .     S
C193   C195    1.382   .     A
C193   H211    1.077   .     S
C194   H199    1.085   .     S
C194   C710    1.388   1_554 S
C195   H205    1.085   .     S
C195   C711    1.388   .     S
C196   C487    1.339   1_455 S
C196   H386    1.088   .     S
C198   O226    1.305   .     A
C198   O340    1.288   1_455 S
H200   C371    1.088   .     S
H201   N213    1.029   .     S
H202   N214    1.029   .     S
H203   O217    0.990   .     S
H204   O220    0.991   .     S
H208   C759    1.083   1_554 S
N213   Zn232   2.016   .     S
N213   N214    1.290   .     D
N214   Zn231   2.016   .     S
O215   Zn231   1.948   .     S
O215   C233    1.274   .     S
O216   S229    1.502   .     D
O217   S229    1.679   .     S
O218   S230    1.503   .     D
O219   S230    1.504   .     D
O220   S230    1.681   .     S
O221   Zn232   1.948   .     S
O221   C302    1.274   1_455 S
O222   Zn232   1.976   .     S
O223   Zn231   1.976   .     S
O224   Zn231   1.957   .     S
O224   C256    1.288   .     S
O225   Zn232   1.957   .     S
O225   C292    1.287   1_455 S
O226   Zn232   1.898   .     S
O227   Zn231   1.898   .     S
O228   S229    1.504   .     D
S229   C298    1.776   1_455 S
C233   O280    1.288   .     A
C233   C254    1.401   .     S
C234   C236    1.463   .     S
C234   O285    1.304   .     A
C234   O341    1.287   .     S
C235   C241    1.392   .     A
C235   C256    1.466   .     S
C236   C240    1.420   .     A
C236   C242    1.390   .     A
C237   C246    1.399   .     A
C237   H730    1.083   .     S
C238   H267    1.083   .     S
C238   C240    1.397   .     A
C238   C247    1.399   .     A
C239   S288    1.776   .     S
C239   C293    1.421   .     S
C239   C295    1.398   .     S
C240   S345    1.776   .     S
C241   C243    1.395   .     A
C241   H265    1.075   .     S
C242   C245    1.396   .     A
C242   H264    1.076   .     S
C243   C248    1.419   .     A
C243   C246    1.414   .     A
C244   C255    1.401   .     S
C244   O281    1.288   .     A
C244   O337    1.274   .     S
C245   C249    1.421   .     A
C245   C247    1.416   .     A
C246   C774    1.388   .     S
C247   C775    1.388   1_554 S
C248   C251    1.417   .     A
C248   C771    1.419   .     S
C249   C250    1.419   .     A
C249   C770    1.419   1_554 S
C250   C252    1.385   .     A
C250   H268    1.075   .     S
C251   C253    1.382   .     A
C251   H269    1.077   .     S
C252   H257    1.085   .     S
C252   C768    1.388   1_554 S
C253   H263    1.085   .     S
C253   C769    1.388   .     S
C254   C371    1.339   .     S
C254   H444    1.088   .     S
C256   O284    1.305   .     A
H258   C429    1.088   .     S
H259   N271    1.029   .     S
H260   N272    1.029   .     S
H261   O275    0.990   .     S
H262   O278    0.991   .     S
H266   C817    1.083   1_554 S
N271   Zn290   2.016   .     S
N271   N272    1.290   .     D
N272   Zn289   2.016   .     S
O273   Zn289   1.948   .     S
O273   C291    1.274   .     S
O274   S287    1.502   .     D
O275   S287    1.679   .     S
O276   S288    1.503   .     D
O277   S288    1.504   .     D
O278   S288    1.681   .     S
O279   Zn290   1.948   .     S
O280   Zn290   1.976   .     S
O281   Zn289   1.976   .     S
O282   Zn289   1.957   .     S
O282   C314    1.288   .     S
O283   Zn290   1.957   .     S
O284   Zn290   1.898   .     S
O285   Zn289   1.898   .     S
O286   S287    1.504   .     D
C291   O338    1.288   .     A
C291   C312    1.401   .     S
C292   C294    1.463   .     S
C292   O343    1.304   .     A
C292   O225    1.287   1_655 S
C293   C299    1.392   .     A
C293   C314    1.466   .     S
C294   C298    1.420   .     A
C294   C300    1.390   .     A
C295   C304    1.399   .     A
C295   H788    1.083   .     S
C296   H325    1.083   .     S
C296   C298    1.397   .     A
C296   C305    1.399   .     A
C297   S346    1.776   .     S
C297   C177    1.421   1_655 S
C297   C179    1.398   1_655 S
C298   S229    1.776   1_655 S
C299   C301    1.395   .     A
C299   H323    1.075   .     S
C300   C303    1.396   .     A
C300   H322    1.076   .     S
C301   C306    1.419   .     A
C301   C304    1.414   .     A
C302   C313    1.401   .     S
C302   O339    1.288   .     A
C302   O221    1.274   1_655 S
C303   C307    1.421   .     A
C303   C305    1.416   .     A
C304   C832    1.388   .     S
C305   C833    1.388   1_554 S
C306   C309    1.417   .     A
C306   C829    1.419   .     S
C307   C308    1.419   .     A
C307   C828    1.419   1_554 S
C308   C310    1.385   .     A
C308   H326    1.075   .     S
C309   C311    1.382   .     A
C309   H327    1.077   .     S
C310   H315    1.085   .     S
C310   C826    1.388   1_554 S
C311   H321    1.085   .     S
C311   C827    1.388   .     S
C312   C429    1.339   .     S
C312   H502    1.088   .     S
C313   C22     1.339   1_655 S
C314   O342    1.305   .     A
H316   C487    1.088   .     S
H317   N329    1.029   .     S
H318   N330    1.029   .     S
H319   O333    0.990   .     S
H320   O336    0.991   .     S
H324   C701    1.083   1_654 S
N329   Zn348   2.016   .     S
N329   N330    1.290   .     D
N330   Zn347   2.016   .     S
O331   Zn347   1.948   .     S
O331   C175    1.274   1_655 S
O332   S345    1.502   .     D
O333   S345    1.679   .     S
O334   S346    1.503   .     D
O335   S346    1.504   .     D
O336   S346    1.681   .     S
O337   Zn348   1.948   .     S
O338   Zn348   1.976   .     S
O339   Zn347   1.976   .     S
O340   Zn347   1.957   .     S
O340   C198    1.288   1_655 S
O341   Zn348   1.957   .     S
O342   Zn348   1.898   .     S
O343   Zn347   1.898   .     S
O344   S345    1.504   .     D
C349   O396    1.288   .     A
C349   C370    1.401   .     S
C349   O505    1.274   1_455 S
C350   C352    1.463   .     S
C350   O401    1.304   .     A
C350   O457    1.287   .     S
C351   C357    1.392   .     A
C351   C372    1.466   .     S
C351   C471    1.421   1_455 S
C352   C356    1.420   .     A
C352   C358    1.390   .     A
C353   C362    1.399   .     A
C353   C471    1.398   1_455 S
C353   H1020   1.083   1_455 S
C354   H383    1.083   .     S
C354   C356    1.397   .     A
C354   C363    1.399   .     A
C355   S404    1.776   .     S
C355   C409    1.421   .     S
C355   C411    1.398   .     S
C356   S461    1.776   .     S
C357   C359    1.395   .     A
C357   H381    1.075   .     S
C358   C361    1.396   .     A
C358   H380    1.076   .     S
C359   C364    1.419   .     A
C359   C362    1.414   .     A
C360   C371    1.401   .     S
C360   O397    1.288   .     A
C360   O453    1.274   .     S
C361   C365    1.421   .     A
C361   C363    1.416   .     A
C362   C890    1.388   .     S
C363   C891    1.388   1_554 S
C364   C367    1.417   .     A
C364   C887    1.419   .     S
C365   C366    1.419   .     A
C365   C886    1.419   1_554 S
C366   C368    1.385   .     A
C366   H384    1.075   .     S
C367   C369    1.382   .     A
C367   H385    1.077   .     S
C368   H373    1.085   .     S
C368   C884    1.388   1_554 S
C369   H379    1.085   .     S
C369   C885    1.388   .     S
C370   C139    1.339   1_465 S
C370   H38     1.088   1_565 S
C372   O400    1.305   .     A
C372   O514    1.288   1_455 S
H374   C23     1.088   1_565 S
H375   N387    1.029   .     S
H376   N388    1.029   .     S
H377   O391    0.990   .     S
H378   O394    0.991   .     S
H382   C933    1.083   1_554 S
N387   Zn406   2.016   .     S
N387   N388    1.290   .     D
N388   Zn405   2.016   .     S
O389   Zn405   1.948   .     S
O389   C407    1.274   .     S
O390   S403    1.502   .     D
O391   S403    1.679   .     S
O392   S404    1.503   .     D
O393   S404    1.504   .     D
O394   S404    1.681   .     S
O395   Zn406   1.948   .     S
O395   C476    1.274   1_455 S
O396   Zn406   1.976   .     S
O397   Zn405   1.976   .     S
O398   Zn405   1.957   .     S
O398   C430    1.288   .     S
O399   Zn406   1.957   .     S
O399   C466    1.287   1_455 S
O400   Zn406   1.898   .     S
O401   Zn405   1.898   .     S
O402   S403    1.504   .     D
S403   C472    1.776   1_455 S
C407   O454    1.288   .     A
C407   C428    1.401   .     S
C408   C410    1.463   .     S
C408   O459    1.304   .     A
C408   O515    1.287   .     S
C409   C415    1.392   .     A
C409   C430    1.466   .     S
C410   C414    1.420   .     A
C410   C416    1.390   .     A
C411   C420    1.399   .     A
C411   H904    1.083   .     S
C412   H441    1.083   .     S
C412   C414    1.397   .     A
C412   C421    1.399   .     A
C413   S462    1.776   .     S
C413   C467    1.421   .     S
C413   C469    1.398   .     S
C414   S519    1.776   .     S
C415   C417    1.395   .     A
C415   H439    1.075   .     S
C416   C419    1.396   .     A
C416   H438    1.076   .     S
C417   C422    1.419   .     A
C417   C420    1.414   .     A
C418   C429    1.401   .     S
C418   O455    1.288   .     A
C418   O511    1.274   .     S
C419   C423    1.421   .     A
C419   C421    1.416   .     A
C420   C948    1.388   .     S
C421   C949    1.388   1_554 S
C422   C425    1.417   .     A
C422   C945    1.419   .     S
C423   C424    1.419   .     A
C423   C944    1.419   1_554 S
C424   C426    1.385   .     A
C424   H442    1.075   .     S
C425   C427    1.382   .     A
C425   H443    1.077   .     S
C426   H431    1.085   .     S
C426   C942    1.388   1_554 S
C427   H437    1.085   .     S
C427   C943    1.388   .     S
C428   C23     1.339   1_565 S
C428   H96     1.088   1_565 S
C430   O458    1.305   .     A
H432   C81     1.088   1_565 S
H433   N445    1.029   .     S
H434   N446    1.029   .     S
H435   O449    0.990   .     S
H436   O452    0.991   .     S
H440   C991    1.083   1_554 S
N445   Zn464   2.016   .     S
N445   N446    1.290   .     D
N446   Zn463   2.016   .     S
O447   Zn463   1.948   .     S
O447   C465    1.274   .     S
O448   S461    1.502   .     D
O449   S461    1.679   .     S
O450   S462    1.503   .     D
O451   S462    1.504   .     D
O452   S462    1.681   .     S
O453   Zn464   1.948   .     S
O454   Zn464   1.976   .     S
O455   Zn463   1.976   .     S
O456   Zn463   1.957   .     S
O456   C488    1.288   .     S
O457   Zn464   1.957   .     S
O458   Zn464   1.898   .     S
O459   Zn463   1.898   .     S
O460   S461    1.504   .     D
C465   O512    1.288   .     A
C465   C486    1.401   .     S
C466   C468    1.463   .     S
C466   O517    1.304   .     A
C466   O399    1.287   1_655 S
C467   C473    1.392   .     A
C467   C488    1.466   .     S
C468   C472    1.420   .     A
C468   C474    1.390   .     A
C469   C478    1.399   .     A
C469   H962    1.083   .     S
C470   H499    1.083   .     S
C470   C472    1.397   .     A
C470   C479    1.399   .     A
C471   S520    1.776   .     S
C471   C351    1.421   1_655 S
C471   C353    1.398   1_655 S
C472   S403    1.776   1_655 S
C473   C475    1.395   .     A
C473   H497    1.075   .     S
C474   C477    1.396   .     A
C474   H496    1.076   .     S
C475   C480    1.419   .     A
C475   C478    1.414   .     A
C476   C487    1.401   .     S
C476   O513    1.288   .     A
C476   O395    1.274   1_655 S
C477   C481    1.421   .     A
C477   C479    1.416   .     A
C478   C1006   1.388   .     S
C479   C1007   1.388   1_554 S
C480   C483    1.417   .     A
C480   C1003   1.419   .     S
C481   C482    1.419   .     A
C481   C1002   1.419   1_554 S
C482   C484    1.385   .     A
C482   H500    1.075   .     S
C483   C485    1.382   .     A
C483   H501    1.077   .     S
C484   H489    1.085   .     S
C484   C1000   1.388   1_554 S
C485   H495    1.085   .     S
C485   C1001   1.388   .     S
C486   C81     1.339   1_565 S
C486   H154    1.088   1_565 S
C487   C196    1.339   1_655 S
C488   O516    1.305   .     A
H490   C139    1.088   1_565 S
H491   N503    1.029   .     S
H492   N504    1.029   .     S
H493   O507    0.990   .     S
H494   O510    0.991   .     S
H498   C875    1.083   1_654 S
N503   Zn522   2.016   .     S
N503   N504    1.290   .     D
N504   Zn521   2.016   .     S
O505   Zn521   1.948   .     S
O505   C349    1.274   1_655 S
O506   S519    1.502   .     D
O507   S519    1.679   .     S
O508   S520    1.503   .     D
O509   S520    1.504   .     D
O510   S520    1.681   .     S
O511   Zn522   1.948   .     S
O512   Zn522   1.976   .     S
O513   Zn521   1.976   .     S
O514   Zn521   1.957   .     S
O514   C372    1.288   1_655 S
O515   Zn522   1.957   .     S
O516   Zn522   1.898   .     S
O517   Zn521   1.898   .     S
O518   S519    1.504   .     D
C523   O570    1.288   .     A
C523   C544    1.401   .     S
C523   O679    1.274   1_455 S
C524   C526    1.463   .     S
C524   O575    1.304   .     A
C524   O631    1.287   .     S
C525   C531    1.392   .     A
C525   C546    1.466   .     S
C525   C645    1.421   1_455 S
C526   C530    1.420   .     A
C526   C532    1.390   .     A
C527   C536    1.399   .     A
C527   C645    1.398   1_455 S
C527   H150    1.083   1_456 S
C528   H557    1.083   .     S
C528   C530    1.397   .     A
C528   C537    1.399   .     A
C529   S578    1.776   .     S
C529   C583    1.421   .     S
C529   C585    1.398   .     S
C530   S635    1.776   .     S
C531   C533    1.395   .     A
C531   H555    1.075   .     S
C532   C535    1.396   .     A
C532   H554    1.076   .     S
C533   C538    1.419   .     A
C533   C536    1.414   .     A
C534   C545    1.401   .     S
C534   O571    1.288   .     A
C534   O627    1.274   .     S
C535   C539    1.421   .     A
C535   C537    1.416   .     A
C536   C20     1.388   1_556 S
C538   C541    1.417   .     A
C538   C17     1.419   1_556 S
C539   C540    1.419   .     A
C540   C542    1.385   .     A
C540   H558    1.075   .     S
C541   C543    1.382   .     A
C541   H559    1.077   .     S
C542   H547    1.085   .     S
C543   H553    1.085   .     S
C543   C15     1.388   1_556 S
C544   C835    1.339   1_455 S
C544   H734    1.088   .     S
C545   C950    1.339   1_545 S
C545   H896    1.088   1_545 S
C546   O574    1.305   .     A
C546   O688    1.288   1_455 S
H548   C719    1.088   .     S
H549   N561    1.029   .     S
H550   N562    1.029   .     S
H551   O565    0.990   .     S
H552   O568    0.991   .     S
H560   C892    1.088   1_545 S
N561   Zn580   2.016   .     S
N561   N562    1.290   .     D
N562   Zn579   2.016   .     S
O563   Zn579   1.948   .     S
O563   C581    1.274   .     S
O564   S577    1.502   .     D
O565   S577    1.679   .     S
O566   S578    1.503   .     D
O567   S578    1.504   .     D
O568   S578    1.681   .     S
O569   Zn580   1.948   .     S
O569   C650    1.274   1_455 S
O570   Zn580   1.976   .     S
O571   Zn579   1.976   .     S
O572   Zn579   1.957   .     S
O572   C604    1.288   .     S
O573   Zn580   1.957   .     S
O573   C640    1.287   1_455 S
O574   Zn580   1.898   .     S
O575   Zn579   1.898   .     S
O576   S577    1.504   .     D
S577   C646    1.776   1_455 S
C581   O628    1.288   .     A
C581   C602    1.401   .     S
C582   C584    1.463   .     S
C582   O633    1.304   .     A
C582   O689    1.287   .     S
C583   C589    1.392   .     A
C583   C604    1.466   .     S
C584   C588    1.420   .     A
C584   C590    1.390   .     A
C585   C594    1.399   .     A
C585   H34     1.083   1_556 S
C586   H615    1.083   .     S
C586   C588    1.397   .     A
C586   C595    1.399   .     A
C587   S636    1.776   .     S
C587   C641    1.421   .     S
C587   C643    1.398   .     S
C588   S693    1.776   .     S
C589   C591    1.395   .     A
C589   H613    1.075   .     S
C590   C593    1.396   .     A
C590   H612    1.076   .     S
C591   C596    1.419   .     A
C591   C594    1.414   .     A
C592   C603    1.401   .     S
C592   O629    1.288   .     A
C592   O685    1.274   .     S
C593   C597    1.421   .     A
C593   C595    1.416   .     A
C594   C78     1.388   1_556 S
C596   C599    1.417   .     A
C596   C75     1.419   1_556 S
C597   C598    1.419   .     A
C598   C600    1.385   .     A
C598   H616    1.075   .     S
C599   C601    1.382   .     A
C599   H617    1.077   .     S
C600   H605    1.085   .     S
C601   H611    1.085   .     S
C601   C73     1.388   1_556 S
C602   C719    1.339   .     S
C602   H792    1.088   .     S
C603   C1008   1.339   1_545 S
C603   H954    1.088   1_545 S
C604   O632    1.305   .     A
H606   C777    1.088   .     S
H607   N619    1.029   .     S
H608   N620    1.029   .     S
H609   O623    0.990   .     S
H610   O626    0.991   .     S
H618   C950    1.088   1_545 S
N619   Zn638   2.016   .     S
N619   N620    1.290   .     D
N620   Zn637   2.016   .     S
O621   Zn637   1.948   .     S
O621   C639    1.274   .     S
O622   S635    1.502   .     D
O623   S635    1.679   .     S
O624   S636    1.503   .     D
O625   S636    1.504   .     D
O626   S636    1.681   .     S
O627   Zn638   1.948   .     S
O628   Zn638   1.976   .     S
O629   Zn637   1.976   .     S
O630   Zn637   1.957   .     S
O630   C662    1.288   .     S
O631   Zn638   1.957   .     S
O632   Zn638   1.898   .     S
O633   Zn637   1.898   .     S
O634   S635    1.504   .     D
C639   O686    1.288   .     A
C639   C660    1.401   .     S
C640   C642    1.463   .     S
C640   O691    1.304   .     A
C640   O573    1.287   1_655 S
C641   C647    1.392   .     A
C641   C662    1.466   .     S
C642   C646    1.420   .     A
C642   C648    1.390   .     A
C643   C652    1.399   .     A
C643   H92     1.083   1_556 S
C644   H673    1.083   .     S
C644   C646    1.397   .     A
C644   C653    1.399   .     A
C645   S694    1.776   .     S
C645   C525    1.421   1_655 S
C645   C527    1.398   1_655 S
C646   S577    1.776   1_655 S
C647   C649    1.395   .     A
C647   H671    1.075   .     S
C648   C651    1.396   .     A
C648   H670    1.076   .     S
C649   C654    1.419   .     A
C649   C652    1.414   .     A
C650   C661    1.401   .     S
C650   O687    1.288   .     A
C650   O569    1.274   1_655 S
C651   C655    1.421   .     A
C651   C653    1.416   .     A
C652   C136    1.388   1_556 S
C654   C657    1.417   .     A
C654   C133    1.419   1_556 S
C655   C656    1.419   .     A
C656   C658    1.385   .     A
C656   H674    1.075   .     S
C657   C659    1.382   .     A
C657   H675    1.077   .     S
C658   H663    1.085   .     S
C659   H669    1.085   .     S
C659   C131    1.388   1_556 S
C660   C777    1.339   .     S
C660   H850    1.088   .     S
C661   C892    1.339   1_645 S
C661   H1012   1.088   1_545 S
C662   O690    1.305   .     A
H664   C835    1.088   .     S
H665   N677    1.029   .     S
H666   N678    1.029   .     S
H667   O681    0.990   .     S
H668   O684    0.991   .     S
H672   C5      1.083   1_655 S
H676   C1008   1.088   1_545 S
N677   Zn696   2.016   .     S
N677   N678    1.290   .     D
N678   Zn695   2.016   .     S
O679   Zn695   1.948   .     S
O679   C523    1.274   1_655 S
O680   S693    1.502   .     D
O681   S693    1.679   .     S
O682   S694    1.503   .     D
O683   S694    1.504   .     D
O684   S694    1.681   .     S
O685   Zn696   1.948   .     S
O686   Zn696   1.976   .     S
O687   Zn695   1.976   .     S
O688   Zn695   1.957   .     S
O688   C546    1.288   1_655 S
O689   Zn696   1.957   .     S
O690   Zn696   1.898   .     S
O691   Zn695   1.898   .     S
O692   S693    1.504   .     D
C697   O744    1.288   .     A
C697   C718    1.401   .     S
C697   O853    1.274   1_455 S
C698   C700    1.463   .     S
C698   O749    1.304   .     A
C698   O805    1.287   .     S
C699   C705    1.392   .     A
C699   C720    1.466   .     S
C699   C819    1.421   1_455 S
C700   C704    1.420   .     A
C700   C706    1.390   .     A
C701   C710    1.399   .     A
C701   C819    1.398   1_455 S
C701   H324    1.083   1_456 S
C702   H731    1.083   .     S
C702   C704    1.397   .     A
C702   C711    1.399   .     A
C703   S752    1.776   .     S
C703   C757    1.421   .     S
C703   C759    1.398   .     S
C704   S809    1.776   .     S
C705   C707    1.395   .     A
C705   H729    1.075   .     S
C706   C709    1.396   .     A
C706   H728    1.076   .     S
C707   C712    1.419   .     A
C707   C710    1.414   .     A
C708   C719    1.401   .     S
C708   O745    1.288   .     A
C708   O801    1.274   .     S
C709   C713    1.421   .     A
C709   C711    1.416   .     A
C710   C194    1.388   1_556 S
C712   C715    1.417   .     A
C712   C191    1.419   1_556 S
C713   C714    1.419   .     A
C714   C716    1.385   .     A
C714   H732    1.075   .     S
C715   C717    1.382   .     A
C715   H733    1.077   .     S
C716   H721    1.085   .     S
C717   H727    1.085   .     S
C717   C189    1.388   1_556 S
C718   C1009   1.339   1_455 S
C718   H908    1.088   .     S
C720   O748    1.305   .     A
C720   O862    1.288   1_455 S
H722   C893    1.088   .     S
H723   N735    1.029   .     S
H724   N736    1.029   .     S
H725   O739    0.990   .     S
H726   O742    0.991   .     S
N735   Zn754   2.016   .     S
N735   N736    1.290   .     D
N736   Zn753   2.016   .     S
O737   Zn753   1.948   .     S
O737   C755    1.274   .     S
O738   S751    1.502   .     D
O739   S751    1.679   .     S
O740   S752    1.503   .     D
O741   S752    1.504   .     D
O742   S752    1.681   .     S
O743   Zn754   1.948   .     S
O743   C824    1.274   1_455 S
O744   Zn754   1.976   .     S
O745   Zn753   1.976   .     S
O746   Zn753   1.957   .     S
O746   C778    1.288   .     S
O747   Zn754   1.957   .     S
O747   C814    1.287   1_455 S
O748   Zn754   1.898   .     S
O749   Zn753   1.898   .     S
O750   S751    1.504   .     D
S751   C820    1.776   1_455 S
C755   O802    1.288   .     A
C755   C776    1.401   .     S
C756   C758    1.463   .     S
C756   O807    1.304   .     A
C756   O863    1.287   .     S
C757   C763    1.392   .     A
C757   C778    1.466   .     S
C758   C762    1.420   .     A
C758   C764    1.390   .     A
C759   C768    1.399   .     A
C759   H208    1.083   1_556 S
C760   H789    1.083   .     S
C760   C762    1.397   .     A
C760   C769    1.399   .     A
C761   S810    1.776   .     S
C761   C815    1.421   .     S
C761   C817    1.398   .     S
C762   S867    1.776   .     S
C763   C765    1.395   .     A
C763   H787    1.075   .     S
C764   C767    1.396   .     A
C764   H786    1.076   .     S
C765   C770    1.419   .     A
C765   C768    1.414   .     A
C766   C777    1.401   .     S
C766   O803    1.288   .     A
C766   O859    1.274   .     S
C767   C771    1.421   .     A
C767   C769    1.416   .     A
C768   C252    1.388   1_556 S
C770   C773    1.417   .     A
C770   C249    1.419   1_556 S
C771   C772    1.419   .     A
C772   C774    1.385   .     A
C772   H790    1.075   .     S
C773   C775    1.382   .     A
C773   H791    1.077   .     S
C774   H779    1.085   .     S
C775   H785    1.085   .     S
C775   C247    1.388   1_556 S
C776   C893    1.339   .     S
C776   H966    1.088   .     S
C778   O806    1.305   .     A
H780   C951    1.088   .     S
H781   N793    1.029   .     S
H782   N794    1.029   .     S
H783   O797    0.990   .     S
H784   O800    0.991   .     S
N793   Zn812   2.016   .     S
N793   N794    1.290   .     D
N794   Zn811   2.016   .     S
O795   Zn811   1.948   .     S
O795   C813    1.274   .     S
O796   S809    1.502   .     D
O797   S809    1.679   .     S
O798   S810    1.503   .     D
O799   S810    1.504   .     D
O800   S810    1.681   .     S
O801   Zn812   1.948   .     S
O802   Zn812   1.976   .     S
O803   Zn811   1.976   .     S
O804   Zn811   1.957   .     S
O804   C836    1.288   .     S
O805   Zn812   1.957   .     S
O806   Zn812   1.898   .     S
O807   Zn811   1.898   .     S
O808   S809    1.504   .     D
C813   O860    1.288   .     A
C813   C834    1.401   .     S
C814   C816    1.463   .     S
C814   O865    1.304   .     A
C814   O747    1.287   1_655 S
C815   C821    1.392   .     A
C815   C836    1.466   .     S
C816   C820    1.420   .     A
C816   C822    1.390   .     A
C817   C826    1.399   .     A
C817   H266    1.083   1_556 S
C818   H847    1.083   .     S
C818   C820    1.397   .     A
C818   C827    1.399   .     A
C819   S868    1.776   .     S
C819   C699    1.421   1_655 S
C819   C701    1.398   1_655 S
C820   S751    1.776   1_655 S
C821   C823    1.395   .     A
C821   H845    1.075   .     S
C822   C825    1.396   .     A
C822   H844    1.076   .     S
C823   C828    1.419   .     A
C823   C826    1.414   .     A
C824   C835    1.401   .     S
C824   O861    1.288   .     A
C824   O743    1.274   1_655 S
C825   C829    1.421   .     A
C825   C827    1.416   .     A
C826   C310    1.388   1_556 S
C828   C831    1.417   .     A
C828   C307    1.419   1_556 S
C829   C830    1.419   .     A
C830   C832    1.385   .     A
C830   H848    1.075   .     S
C831   C833    1.382   .     A
C831   H849    1.077   .     S
C832   H837    1.085   .     S
C833   H843    1.085   .     S
C833   C305    1.388   1_556 S
C834   C951    1.339   .     S
C834   H1024   1.088   .     S
C835   C544    1.339   1_655 S
C836   O864    1.305   .     A
H838   C1009   1.088   .     S
H839   N851    1.029   .     S
H840   N852    1.029   .     S
H841   O855    0.990   .     S
H842   O858    0.991   .     S
H846   C179    1.083   1_655 S
N851   Zn870   2.016   .     S
N851   N852    1.290   .     D
N852   Zn869   2.016   .     S
O853   Zn869   1.948   .     S
O853   C697    1.274   1_655 S
O854   S867    1.502   .     D
O855   S867    1.679   .     S
O856   S868    1.503   .     D
O857   S868    1.504   .     D
O858   S868    1.681   .     S
O859   Zn870   1.948   .     S
O860   Zn870   1.976   .     S
O861   Zn869   1.976   .     S
O862   Zn869   1.957   .     S
O862   C720    1.288   1_655 S
O863   Zn870   1.957   .     S
O864   Zn870   1.898   .     S
O865   Zn869   1.898   .     S
O866   S867    1.504   .     D
C871   O918    1.288   .     A
C871   C892    1.401   .     S
C871   O1027   1.274   1_455 S
C872   C874    1.463   .     S
C872   O923    1.304   .     A
C872   O979    1.287   .     S
C873   C879    1.392   .     A
C873   C894    1.466   .     S
C873   C993    1.421   1_455 S
C874   C878    1.420   .     A
C874   C880    1.390   .     A
C875   C884    1.399   .     A
C875   C993    1.398   1_455 S
C875   H498    1.083   1_456 S
C876   H905    1.083   .     S
C876   C878    1.397   .     A
C876   C885    1.399   .     A
C877   S926    1.776   .     S
C877   C931    1.421   .     S
C877   C933    1.398   .     S
C878   S983    1.776   .     S
C879   C881    1.395   .     A
C879   H903    1.075   .     S
C880   C883    1.396   .     A
C880   H902    1.076   .     S
C881   C886    1.419   .     A
C881   C884    1.414   .     A
C882   C893    1.401   .     S
C882   O919    1.288   .     A
C882   O975    1.274   .     S
C883   C887    1.421   .     A
C883   C885    1.416   .     A
C884   C368    1.388   1_556 S
C886   C889    1.417   .     A
C886   C365    1.419   1_556 S
C887   C888    1.419   .     A
C888   C890    1.385   .     A
C888   H906    1.075   .     S
C889   C891    1.382   .     A
C889   H907    1.077   .     S
C890   H895    1.085   .     S
C891   H901    1.085   .     S
C891   C363    1.388   1_556 S
C892   C661    1.339   1_465 S
C892   H560    1.088   1_565 S
C894   O922    1.305   .     A
C894   O1036   1.288   1_455 S
H896   C545    1.088   1_565 S
H897   N909    1.029   .     S
H898   N910    1.029   .     S
H899   O913    0.990   .     S
H900   O916    0.991   .     S
N909   Zn928   2.016   .     S
N909   N910    1.290   .     D
N910   Zn927   2.016   .     S
O911   Zn927   1.948   .     S
O911   C929    1.274   .     S
O912   S925    1.502   .     D
O913   S925    1.679   .     S
O914   S926    1.503   .     D
O915   S926    1.504   .     D
O916   S926    1.681   .     S
O917   Zn928   1.948   .     S
O917   C998    1.274   1_455 S
O918   Zn928   1.976   .     S
O919   Zn927   1.976   .     S
O920   Zn927   1.957   .     S
O920   C952    1.288   .     S
O921   Zn928   1.957   .     S
O921   C988    1.287   1_455 S
O922   Zn928   1.898   .     S
O923   Zn927   1.898   .     S
O924   S925    1.504   .     D
S925   C994    1.776   1_455 S
C929   O976    1.288   .     A
C929   C950    1.401   .     S
C930   C932    1.463   .     S
C930   O981    1.304   .     A
C930   O1037   1.287   .     S
C931   C937    1.392   .     A
C931   C952    1.466   .     S
C932   C936    1.420   .     A
C932   C938    1.390   .     A
C933   C942    1.399   .     A
C933   H382    1.083   1_556 S
C934   H963    1.083   .     S
C934   C936    1.397   .     A
C934   C943    1.399   .     A
C935   S984    1.776   .     S
C935   C989    1.421   .     S
C935   C991    1.398   .     S
C936   S1041   1.776   .     S
C937   C939    1.395   .     A
C937   H961    1.075   .     S
C938   C941    1.396   .     A
C938   H960    1.076   .     S
C939   C944    1.419   .     A
C939   C942    1.414   .     A
C940   C951    1.401   .     S
C940   O977    1.288   .     A
C940   O1033   1.274   .     S
C941   C945    1.421   .     A
C941   C943    1.416   .     A
C942   C426    1.388   1_556 S
C944   C947    1.417   .     A
C944   C423    1.419   1_556 S
C945   C946    1.419   .     A
C946   C948    1.385   .     A
C946   H964    1.075   .     S
C947   C949    1.382   .     A
C947   H965    1.077   .     S
C948   H953    1.085   .     S
C949   H959    1.085   .     S
C949   C421    1.388   1_556 S
C950   C545    1.339   1_565 S
C950   H618    1.088   1_565 S
C952   O980    1.305   .     A
H954   C603    1.088   1_565 S
H955   N967    1.029   .     S
H956   N968    1.029   .     S
H957   O971    0.990   .     S
H958   O974    0.991   .     S
N967   Zn986   2.016   .     S
N967   N968    1.290   .     D
N968   Zn985   2.016   .     S
O969   Zn985   1.948   .     S
O969   C987    1.274   .     S
O970   S983    1.502   .     D
O971   S983    1.679   .     S
O972   S984    1.503   .     D
O973   S984    1.504   .     D
O974   S984    1.681   .     S
O975   Zn986   1.948   .     S
O976   Zn986   1.976   .     S
O977   Zn985   1.976   .     S
O978   Zn985   1.957   .     S
O978   C1010   1.288   .     S
O979   Zn986   1.957   .     S
O980   Zn986   1.898   .     S
O981   Zn985   1.898   .     S
O982   S983    1.504   .     D
C987   O1034   1.288   .     A
C987   C1008   1.401   .     S
C988   C990    1.463   .     S
C988   O1039   1.304   .     A
C988   O921    1.287   1_655 S
C989   C995    1.392   .     A
C989   C1010   1.466   .     S
C990   C994    1.420   .     A
C990   C996    1.390   .     A
C991   C1000   1.399   .     A
C991   H440    1.083   1_556 S
C992   H1021   1.083   .     S
C992   C994    1.397   .     A
C992   C1001   1.399   .     A
C993   S1042   1.776   .     S
C993   C873    1.421   1_655 S
C993   C875    1.398   1_655 S
C994   S925    1.776   1_655 S
C995   C997    1.395   .     A
C995   H1019   1.075   .     S
C996   C999    1.396   .     A
C996   H1018   1.076   .     S
C997   C1002   1.419   .     A
C997   C1000   1.414   .     A
C998   C1009   1.401   .     S
C998   O1035   1.288   .     A
C998   O917    1.274   1_655 S
C999   C1003   1.421   .     A
C999   C1001   1.416   .     A
C1000  C484    1.388   1_556 S
C1002  C1005   1.417   .     A
C1002  C481    1.419   1_556 S
C1003  C1004   1.419   .     A
C1004  C1006   1.385   .     A
C1004  H1022   1.075   .     S
C1005  C1007   1.382   .     A
C1005  H1023   1.077   .     S
C1006  H1011   1.085   .     S
C1007  H1017   1.085   .     S
C1007  C479    1.388   1_556 S
C1008  C603    1.339   1_565 S
C1008  H676    1.088   1_565 S
C1009  C718    1.339   1_655 S
C1010  O1038   1.305   .     A
H1012  C661    1.088   1_565 S
H1013  N1025   1.029   .     S
H1014  N1026   1.029   .     S
H1015  O1029   0.990   .     S
H1016  O1032   0.991   .     S
H1020  C353    1.083   1_655 S
N1025  Zn1044  2.016   .     S
N1025  N1026   1.290   .     D
N1026  Zn1043  2.016   .     S
O1027  Zn1043  1.948   .     S
O1027  C871    1.274   1_655 S
O1028  S1041   1.502   .     D
O1029  S1041   1.679   .     S
O1030  S1042   1.503   .     D
O1031  S1042   1.504   .     D
O1032  S1042   1.681   .     S
O1033  Zn1044  1.948   .     S
O1034  Zn1044  1.976   .     S
O1035  Zn1043  1.976   .     S
O1036  Zn1043  1.957   .     S
O1036  C894    1.288   1_655 S
O1037  Zn1044  1.957   .     S
O1038  Zn1044  1.898   .     S
O1039  Zn1043  1.898   .     S
O1040  S1041   1.504   .     D
