data_str_m2_o1_o1_pcu_sym.33
_audit_creation_date              2020-01-03
_audit_creation_method            'Materials Studio'
_symmetry_space_group_name_H-M    'P1'
_symmetry_Int_Tables_number       1
_symmetry_cell_setting            triclinic
loop_
_symmetry_equiv_pos_as_xyz
  x,y,z
_cell_length_a                    30.7940
_cell_length_b                    30.5020
_cell_length_c                    28.6054
_cell_angle_alpha                 90.2441
_cell_angle_beta                  90.0000
_cell_angle_gamma                 89.9999
loop_
_atom_site_label
_atom_site_type_symbol
_atom_site_fract_x
_atom_site_fract_y
_atom_site_fract_z
_atom_site_U_iso_or_equiv
_atom_site_adp_type
_atom_site_occupancy
C1     C     0.05942   0.19052   0.16662   0.00000  Uiso   1.00
C2     C     0.00000   0.28848   0.30877   0.00000  Uiso   1.00
C3     C     0.00000   0.28849   0.02497   0.00000  Uiso   1.00
C4     C     0.00000   0.21151   0.30837   0.00000  Uiso   1.00
C5     C     0.25000   0.46152   0.02456   0.00000  Uiso   1.00
C6     C     0.25000   0.03848   0.30877   0.00000  Uiso   1.00
C7     C     0.25000   0.03849   0.02497   0.00000  Uiso   1.00
C8     C     0.25000   0.46151   0.30837   0.00000  Uiso   1.00
C9     C     0.40401   0.12745   0.12909   0.00000  Uiso   1.00
C10    C     0.09599   0.37254   0.20425   0.00000  Uiso   1.00
C11    C     0.12207   0.34550   0.12916   0.00000  Uiso   1.00
C12    C     0.44058   0.30948   0.16672   0.00000  Uiso   1.00
C13    C     0.37792   0.15451   0.20417   0.00000  Uiso   1.00
C14    C     0.12208   0.15451   0.20417   0.00000  Uiso   1.00
C15    C     0.37793   0.34549   0.12916   0.00000  Uiso   1.00
C16    C     0.40401   0.37255   0.20424   0.00000  Uiso   1.00
C17    C     0.09599   0.12745   0.12909   0.00000  Uiso   1.00
C18    C     0.15401   0.37746   0.12909   0.00000  Uiso   1.00
C19    C     0.34599   0.12255   0.20424   0.00000  Uiso   1.00
C20    C     0.37208   0.09549   0.12916   0.00000  Uiso   1.00
C21    C     0.12793   0.40450   0.20417   0.00000  Uiso   1.00
C22    C     0.37208   0.40451   0.20417   0.00000  Uiso   1.00
C23    C     0.44058   0.19052   0.16662   0.00000  Uiso   1.00
C24    C     0.12792   0.09549   0.12917   0.00000  Uiso   1.00
C25    C     0.15401   0.12255   0.20424   0.00000  Uiso   1.00
C26    C     0.34599   0.37745   0.12909   0.00000  Uiso   1.00
C27    C     0.09292   0.34290   0.16675   0.00000  Uiso   1.00
C28    C     0.40708   0.15710   0.16658   0.00000  Uiso   1.00
C29    C     0.40708   0.34290   0.16675   0.00000  Uiso   1.00
C30    C     0.09292   0.15710   0.16658   0.00000  Uiso   1.00
C31    C     0.34292   0.09290   0.16675   0.00000  Uiso   1.00
C32    C     0.15708   0.40710   0.16658   0.00000  Uiso   1.00
C33    C     0.15708   0.09290   0.16675   0.00000  Uiso   1.00
C34    C     0.05942   0.30948   0.16672   0.00000  Uiso   1.00
C35    C     0.34292   0.40710   0.16658   0.00000  Uiso   1.00
C36    C     0.30942   0.44052   0.16662   0.00000  Uiso   1.00
C37    C     0.19058   0.05948   0.16672   0.00000  Uiso   1.00
C38    C     0.19058   0.44052   0.16662   0.00000  Uiso   1.00
C39    C     0.30942   0.05948   0.16672   0.00000  Uiso   1.00
C40    C     0.00000   0.21152   0.02456   0.00000  Uiso   1.00
Cu41   Cu    0.00000   0.25000   0.21355   0.00000  Uiso   1.00
Cu42   Cu    0.00000   0.25000   0.11978   0.00000  Uiso   1.00
Cu43   Cu    0.25000   0.00000   0.21355   0.00000  Uiso   1.00
Cu44   Cu    0.25000   0.00000   0.11978   0.00000  Uiso   1.00
F45    F     0.00000   0.17281   0.04751   0.00000  Uiso   1.00
F46    F     0.06744   0.37147   0.24037   0.00000  Uiso   1.00
F47    F     0.12046   0.31646   0.09305   0.00000  Uiso   1.00
F48    F     0.37953   0.18355   0.24027   0.00000  Uiso   1.00
F49    F     0.12047   0.18355   0.24027   0.00000  Uiso   1.00
F50    F     0.37954   0.31645   0.09306   0.00000  Uiso   1.00
F51    F     0.43257   0.37148   0.24037   0.00000  Uiso   1.00
F52    F     0.06742   0.12852   0.09297   0.00000  Uiso   1.00
F53    F     0.18256   0.37853   0.09296   0.00000  Uiso   1.00
F54    F     0.31743   0.12148   0.24036   0.00000  Uiso   1.00
F55    F     0.37047   0.06645   0.09306   0.00000  Uiso   1.00
F56    F    -0.00000   0.32719   0.28582   0.00000  Uiso   1.00
F57    F     0.12954   0.43354   0.24028   0.00000  Uiso   1.00
F58    F     0.37046   0.43355   0.24027   0.00000  Uiso   1.00
F59    F     0.12953   0.06645   0.09306   0.00000  Uiso   1.00
F60    F     0.18258   0.12148   0.24036   0.00000  Uiso   1.00
F61    F     0.31743   0.37852   0.09297   0.00000  Uiso   1.00
F62    F    -0.00000   0.32723   0.04834   0.00000  Uiso   1.00
F63    F     0.00000   0.17277   0.28499   0.00000  Uiso   1.00
F64    F     0.25000   0.42281   0.04751   0.00000  Uiso   1.00
F65    F     0.25000   0.07719   0.28582   0.00000  Uiso   1.00
F66    F     0.25000   0.07723   0.04834   0.00000  Uiso   1.00
F67    F     0.25000   0.42277   0.28499   0.00000  Uiso   1.00
F68    F     0.43257   0.12852   0.09297   0.00000  Uiso   1.00
N69    N     0.00000   0.25000   0.28402   0.00000  Uiso   1.00
N70    N     0.00000   0.25000   0.04931   0.00000  Uiso   1.00
N71    N     0.25000   0.00000   0.28402   0.00000  Uiso   1.00
N72    N     0.25000   0.00000   0.04931   0.00000  Uiso   1.00
O73    O     0.04509   0.20491   0.20625   0.00000  Uiso   1.00
O74    O     0.20492   0.04509   0.12709   0.00000  Uiso   1.00
O75    O     0.20492   0.04509   0.20625   0.00000  Uiso   1.00
O76    O     0.29509   0.45491   0.12709   0.00000  Uiso   1.00
O77    O     0.20492   0.45491   0.12709   0.00000  Uiso   1.00
O78    O     0.29509   0.04509   0.20625   0.00000  Uiso   1.00
O79    O     0.29509   0.04509   0.12709   0.00000  Uiso   1.00
O80    O     0.20492   0.45491   0.20625   0.00000  Uiso   1.00
O81    O     0.45492   0.29509   0.12709   0.00000  Uiso   1.00
O82    O     0.45492   0.29509   0.20625   0.00000  Uiso   1.00
O83    O     0.04509   0.20491   0.12709   0.00000  Uiso   1.00
O84    O     0.45492   0.20491   0.12709   0.00000  Uiso   1.00
O85    O     0.04509   0.29509   0.20625   0.00000  Uiso   1.00
O86    O     0.04509   0.29509   0.12709   0.00000  Uiso   1.00
O87    O     0.45492   0.20491   0.20625   0.00000  Uiso   1.00
O88    O     0.29509   0.45491   0.20625   0.00000  Uiso   1.00
C89    C     0.55942   0.19052   0.16662   0.00000  Uiso   1.00
C90    C     0.50000   0.28848   0.30877   0.00000  Uiso   1.00
C91    C     0.50000   0.28849   0.02497   0.00000  Uiso   1.00
C92    C     0.50000   0.21151   0.30837   0.00000  Uiso   1.00
C93    C     0.75000   0.46152   0.02456   0.00000  Uiso   1.00
C94    C     0.75000   0.03848   0.30877   0.00000  Uiso   1.00
C95    C     0.75000   0.03849   0.02497   0.00000  Uiso   1.00
C96    C     0.75000   0.46151   0.30837   0.00000  Uiso   1.00
C97    C     0.90401   0.12745   0.12909   0.00000  Uiso   1.00
C98    C     0.59599   0.37254   0.20425   0.00000  Uiso   1.00
C99    C     0.62207   0.34550   0.12916   0.00000  Uiso   1.00
C100   C     0.94058   0.30948   0.16672   0.00000  Uiso   1.00
C101   C     0.87792   0.15451   0.20417   0.00000  Uiso   1.00
C102   C     0.62208   0.15451   0.20417   0.00000  Uiso   1.00
C103   C     0.87793   0.34549   0.12916   0.00000  Uiso   1.00
C104   C     0.90401   0.37255   0.20424   0.00000  Uiso   1.00
C105   C     0.59599   0.12745   0.12909   0.00000  Uiso   1.00
C106   C     0.65401   0.37746   0.12909   0.00000  Uiso   1.00
C107   C     0.84599   0.12255   0.20424   0.00000  Uiso   1.00
C108   C     0.87208   0.09549   0.12916   0.00000  Uiso   1.00
C109   C     0.62793   0.40450   0.20417   0.00000  Uiso   1.00
C110   C     0.87208   0.40451   0.20417   0.00000  Uiso   1.00
C111   C     0.94058   0.19052   0.16662   0.00000  Uiso   1.00
C112   C     0.62792   0.09549   0.12917   0.00000  Uiso   1.00
C113   C     0.65401   0.12255   0.20424   0.00000  Uiso   1.00
C114   C     0.84599   0.37745   0.12909   0.00000  Uiso   1.00
C115   C     0.59292   0.34290   0.16675   0.00000  Uiso   1.00
C116   C     0.90708   0.15710   0.16658   0.00000  Uiso   1.00
C117   C     0.90708   0.34290   0.16675   0.00000  Uiso   1.00
C118   C     0.59292   0.15710   0.16658   0.00000  Uiso   1.00
C119   C     0.84292   0.09290   0.16675   0.00000  Uiso   1.00
C120   C     0.65708   0.40710   0.16658   0.00000  Uiso   1.00
C121   C     0.65708   0.09290   0.16675   0.00000  Uiso   1.00
C122   C     0.55942   0.30948   0.16672   0.00000  Uiso   1.00
C123   C     0.84292   0.40710   0.16658   0.00000  Uiso   1.00
C124   C     0.80942   0.44052   0.16662   0.00000  Uiso   1.00
C125   C     0.69058   0.05948   0.16672   0.00000  Uiso   1.00
C126   C     0.69058   0.44052   0.16662   0.00000  Uiso   1.00
C127   C     0.80942   0.05948   0.16672   0.00000  Uiso   1.00
C128   C     0.50000   0.21152   0.02456   0.00000  Uiso   1.00
Cu129  Cu    0.50000   0.25000   0.21355   0.00000  Uiso   1.00
Cu130  Cu    0.50000   0.25000   0.11978   0.00000  Uiso   1.00
Cu131  Cu    0.75000   0.00000   0.21355   0.00000  Uiso   1.00
Cu132  Cu    0.75000   0.00000   0.11978   0.00000  Uiso   1.00
F133   F     0.50000   0.17281   0.04751   0.00000  Uiso   1.00
F134   F     0.56744   0.37147   0.24037   0.00000  Uiso   1.00
F135   F     0.62046   0.31646   0.09305   0.00000  Uiso   1.00
F136   F     0.87953   0.18355   0.24027   0.00000  Uiso   1.00
F137   F     0.62047   0.18355   0.24027   0.00000  Uiso   1.00
F138   F     0.87954   0.31645   0.09306   0.00000  Uiso   1.00
F139   F     0.93257   0.37148   0.24037   0.00000  Uiso   1.00
F140   F     0.56742   0.12852   0.09297   0.00000  Uiso   1.00
F141   F     0.68256   0.37853   0.09296   0.00000  Uiso   1.00
F142   F     0.81743   0.12148   0.24036   0.00000  Uiso   1.00
F143   F     0.87047   0.06645   0.09306   0.00000  Uiso   1.00
F144   F     0.50000   0.32719   0.28582   0.00000  Uiso   1.00
F145   F     0.62954   0.43354   0.24028   0.00000  Uiso   1.00
F146   F     0.87046   0.43355   0.24027   0.00000  Uiso   1.00
F147   F     0.62953   0.06645   0.09306   0.00000  Uiso   1.00
F148   F     0.68258   0.12148   0.24036   0.00000  Uiso   1.00
F149   F     0.81743   0.37852   0.09297   0.00000  Uiso   1.00
F150   F     0.50000   0.32723   0.04834   0.00000  Uiso   1.00
F151   F     0.50000   0.17277   0.28499   0.00000  Uiso   1.00
F152   F     0.75000   0.42281   0.04751   0.00000  Uiso   1.00
F153   F     0.75000   0.07719   0.28582   0.00000  Uiso   1.00
F154   F     0.75000   0.07723   0.04834   0.00000  Uiso   1.00
F155   F     0.75000   0.42277   0.28499   0.00000  Uiso   1.00
F156   F     0.93257   0.12852   0.09297   0.00000  Uiso   1.00
N157   N     0.50000   0.25000   0.28402   0.00000  Uiso   1.00
N158   N     0.50000   0.25000   0.04931   0.00000  Uiso   1.00
N159   N     0.75000   0.00000   0.28402   0.00000  Uiso   1.00
N160   N     0.75000   0.00000   0.04931   0.00000  Uiso   1.00
O161   O     0.54509   0.20491   0.20625   0.00000  Uiso   1.00
O162   O     0.70492   0.04509   0.12709   0.00000  Uiso   1.00
O163   O     0.70492   0.04509   0.20625   0.00000  Uiso   1.00
O164   O     0.79509   0.45491   0.12709   0.00000  Uiso   1.00
O165   O     0.70492   0.45491   0.12709   0.00000  Uiso   1.00
O166   O     0.79509   0.04509   0.20625   0.00000  Uiso   1.00
O167   O     0.79509   0.04509   0.12709   0.00000  Uiso   1.00
O168   O     0.70492   0.45491   0.20625   0.00000  Uiso   1.00
O169   O     0.95492   0.29509   0.12709   0.00000  Uiso   1.00
O170   O     0.95492   0.29509   0.20625   0.00000  Uiso   1.00
O171   O     0.54509   0.20491   0.12709   0.00000  Uiso   1.00
O172   O     0.95492   0.20491   0.12709   0.00000  Uiso   1.00
O173   O     0.54509   0.29509   0.20625   0.00000  Uiso   1.00
O174   O     0.54509   0.29509   0.12709   0.00000  Uiso   1.00
O175   O     0.95492   0.20491   0.20625   0.00000  Uiso   1.00
O176   O     0.79509   0.45491   0.20625   0.00000  Uiso   1.00
C177   C     0.05942   0.69052   0.16662   0.00000  Uiso   1.00
C178   C     0.00000   0.78848   0.30877   0.00000  Uiso   1.00
C179   C     0.00000   0.78849   0.02497   0.00000  Uiso   1.00
C180   C     0.00000   0.71151   0.30837   0.00000  Uiso   1.00
C181   C     0.25000   0.96152   0.02456   0.00000  Uiso   1.00
C182   C     0.25000   0.53848   0.30877   0.00000  Uiso   1.00
C183   C     0.25000   0.53849   0.02497   0.00000  Uiso   1.00
C184   C     0.25000   0.96151   0.30837   0.00000  Uiso   1.00
C185   C     0.40401   0.62745   0.12909   0.00000  Uiso   1.00
C186   C     0.09599   0.87254   0.20425   0.00000  Uiso   1.00
C187   C     0.12207   0.84550   0.12916   0.00000  Uiso   1.00
C188   C     0.44058   0.80948   0.16672   0.00000  Uiso   1.00
C189   C     0.37792   0.65451   0.20417   0.00000  Uiso   1.00
C190   C     0.12208   0.65451   0.20417   0.00000  Uiso   1.00
C191   C     0.37793   0.84549   0.12916   0.00000  Uiso   1.00
C192   C     0.40401   0.87255   0.20424   0.00000  Uiso   1.00
C193   C     0.09599   0.62745   0.12909   0.00000  Uiso   1.00
C194   C     0.15401   0.87746   0.12909   0.00000  Uiso   1.00
C195   C     0.34599   0.62255   0.20424   0.00000  Uiso   1.00
C196   C     0.37208   0.59549   0.12916   0.00000  Uiso   1.00
C197   C     0.12793   0.90450   0.20417   0.00000  Uiso   1.00
C198   C     0.37208   0.90451   0.20417   0.00000  Uiso   1.00
C199   C     0.44058   0.69052   0.16662   0.00000  Uiso   1.00
C200   C     0.12792   0.59549   0.12917   0.00000  Uiso   1.00
C201   C     0.15401   0.62255   0.20424   0.00000  Uiso   1.00
C202   C     0.34599   0.87745   0.12909   0.00000  Uiso   1.00
C203   C     0.09292   0.84290   0.16675   0.00000  Uiso   1.00
C204   C     0.40708   0.65710   0.16658   0.00000  Uiso   1.00
C205   C     0.40708   0.84290   0.16675   0.00000  Uiso   1.00
C206   C     0.09292   0.65710   0.16658   0.00000  Uiso   1.00
C207   C     0.34292   0.59290   0.16675   0.00000  Uiso   1.00
C208   C     0.15708   0.90710   0.16658   0.00000  Uiso   1.00
C209   C     0.15708   0.59290   0.16675   0.00000  Uiso   1.00
C210   C     0.05942   0.80948   0.16672   0.00000  Uiso   1.00
C211   C     0.34292   0.90710   0.16658   0.00000  Uiso   1.00
C212   C     0.30942   0.94052   0.16662   0.00000  Uiso   1.00
C213   C     0.19058   0.55948   0.16672   0.00000  Uiso   1.00
C214   C     0.19058   0.94052   0.16662   0.00000  Uiso   1.00
C215   C     0.30942   0.55948   0.16672   0.00000  Uiso   1.00
C216   C     0.00000   0.71152   0.02456   0.00000  Uiso   1.00
Cu217  Cu    0.00000   0.75000   0.21355   0.00000  Uiso   1.00
Cu218  Cu    0.00000   0.75000   0.11978   0.00000  Uiso   1.00
Cu219  Cu    0.25000   0.50000   0.21355   0.00000  Uiso   1.00
Cu220  Cu    0.25000   0.50000   0.11978   0.00000  Uiso   1.00
F221   F     0.00000   0.67281   0.04751   0.00000  Uiso   1.00
F222   F     0.06744   0.87147   0.24037   0.00000  Uiso   1.00
F223   F     0.12046   0.81646   0.09305   0.00000  Uiso   1.00
F224   F     0.37953   0.68355   0.24027   0.00000  Uiso   1.00
F225   F     0.12047   0.68355   0.24027   0.00000  Uiso   1.00
F226   F     0.37954   0.81645   0.09306   0.00000  Uiso   1.00
F227   F     0.43257   0.87148   0.24037   0.00000  Uiso   1.00
F228   F     0.06742   0.62852   0.09297   0.00000  Uiso   1.00
F229   F     0.18256   0.87853   0.09296   0.00000  Uiso   1.00
F230   F     0.31743   0.62148   0.24036   0.00000  Uiso   1.00
F231   F     0.37047   0.56645   0.09306   0.00000  Uiso   1.00
F232   F    -0.00000   0.82719   0.28582   0.00000  Uiso   1.00
F233   F     0.12954   0.93354   0.24028   0.00000  Uiso   1.00
F234   F     0.37046   0.93355   0.24027   0.00000  Uiso   1.00
F235   F     0.12953   0.56645   0.09306   0.00000  Uiso   1.00
F236   F     0.18258   0.62148   0.24036   0.00000  Uiso   1.00
F237   F     0.31743   0.87852   0.09297   0.00000  Uiso   1.00
F238   F    -0.00000   0.82723   0.04834   0.00000  Uiso   1.00
F239   F     0.00000   0.67277   0.28499   0.00000  Uiso   1.00
F240   F     0.25000   0.92281   0.04751   0.00000  Uiso   1.00
F241   F     0.25000   0.57719   0.28582   0.00000  Uiso   1.00
F242   F     0.25000   0.57723   0.04834   0.00000  Uiso   1.00
F243   F     0.25000   0.92277   0.28499   0.00000  Uiso   1.00
F244   F     0.43257   0.62852   0.09297   0.00000  Uiso   1.00
N245   N     0.00000   0.75000   0.28402   0.00000  Uiso   1.00
N246   N     0.00000   0.75000   0.04931   0.00000  Uiso   1.00
N247   N     0.25000   0.50000   0.28402   0.00000  Uiso   1.00
N248   N     0.25000   0.50000   0.04931   0.00000  Uiso   1.00
O249   O     0.04509   0.70491   0.20625   0.00000  Uiso   1.00
O250   O     0.20492   0.54509   0.12709   0.00000  Uiso   1.00
O251   O     0.20492   0.54509   0.20625   0.00000  Uiso   1.00
O252   O     0.29509   0.95491   0.12709   0.00000  Uiso   1.00
O253   O     0.20492   0.95491   0.12709   0.00000  Uiso   1.00
O254   O     0.29509   0.54509   0.20625   0.00000  Uiso   1.00
O255   O     0.29509   0.54509   0.12709   0.00000  Uiso   1.00
O256   O     0.20492   0.95491   0.20625   0.00000  Uiso   1.00
O257   O     0.45492   0.79509   0.12709   0.00000  Uiso   1.00
O258   O     0.45492   0.79509   0.20625   0.00000  Uiso   1.00
O259   O     0.04509   0.70491   0.12709   0.00000  Uiso   1.00
O260   O     0.45492   0.70491   0.12709   0.00000  Uiso   1.00
O261   O     0.04509   0.79509   0.20625   0.00000  Uiso   1.00
O262   O     0.04509   0.79509   0.12709   0.00000  Uiso   1.00
O263   O     0.45492   0.70491   0.20625   0.00000  Uiso   1.00
O264   O     0.29509   0.95491   0.20625   0.00000  Uiso   1.00
C265   C     0.55942   0.69052   0.16662   0.00000  Uiso   1.00
C266   C     0.50000   0.78848   0.30877   0.00000  Uiso   1.00
C267   C     0.50000   0.78849   0.02497   0.00000  Uiso   1.00
C268   C     0.50000   0.71151   0.30837   0.00000  Uiso   1.00
C269   C     0.75000   0.96152   0.02456   0.00000  Uiso   1.00
C270   C     0.75000   0.53848   0.30877   0.00000  Uiso   1.00
C271   C     0.75000   0.53849   0.02497   0.00000  Uiso   1.00
C272   C     0.75000   0.96151   0.30837   0.00000  Uiso   1.00
C273   C     0.90401   0.62745   0.12909   0.00000  Uiso   1.00
C274   C     0.59599   0.87254   0.20425   0.00000  Uiso   1.00
C275   C     0.62207   0.84550   0.12916   0.00000  Uiso   1.00
C276   C     0.94058   0.80948   0.16672   0.00000  Uiso   1.00
C277   C     0.87792   0.65451   0.20417   0.00000  Uiso   1.00
C278   C     0.62208   0.65451   0.20417   0.00000  Uiso   1.00
C279   C     0.87793   0.84549   0.12916   0.00000  Uiso   1.00
C280   C     0.90401   0.87255   0.20424   0.00000  Uiso   1.00
C281   C     0.59599   0.62745   0.12909   0.00000  Uiso   1.00
C282   C     0.65401   0.87746   0.12909   0.00000  Uiso   1.00
C283   C     0.84599   0.62255   0.20424   0.00000  Uiso   1.00
C284   C     0.87208   0.59549   0.12916   0.00000  Uiso   1.00
C285   C     0.62793   0.90450   0.20417   0.00000  Uiso   1.00
C286   C     0.87208   0.90451   0.20417   0.00000  Uiso   1.00
C287   C     0.94058   0.69052   0.16662   0.00000  Uiso   1.00
C288   C     0.62792   0.59549   0.12917   0.00000  Uiso   1.00
C289   C     0.65401   0.62255   0.20424   0.00000  Uiso   1.00
C290   C     0.84599   0.87745   0.12909   0.00000  Uiso   1.00
C291   C     0.59292   0.84290   0.16675   0.00000  Uiso   1.00
C292   C     0.90708   0.65710   0.16658   0.00000  Uiso   1.00
C293   C     0.90708   0.84290   0.16675   0.00000  Uiso   1.00
C294   C     0.59292   0.65710   0.16658   0.00000  Uiso   1.00
C295   C     0.84292   0.59290   0.16675   0.00000  Uiso   1.00
C296   C     0.65708   0.90710   0.16658   0.00000  Uiso   1.00
C297   C     0.65708   0.59290   0.16675   0.00000  Uiso   1.00
C298   C     0.55942   0.80948   0.16672   0.00000  Uiso   1.00
C299   C     0.84292   0.90710   0.16658   0.00000  Uiso   1.00
C300   C     0.80942   0.94052   0.16662   0.00000  Uiso   1.00
C301   C     0.69058   0.55948   0.16672   0.00000  Uiso   1.00
C302   C     0.69058   0.94052   0.16662   0.00000  Uiso   1.00
C303   C     0.80942   0.55948   0.16672   0.00000  Uiso   1.00
C304   C     0.50000   0.71152   0.02456   0.00000  Uiso   1.00
Cu305  Cu    0.50000   0.75000   0.21355   0.00000  Uiso   1.00
Cu306  Cu    0.50000   0.75000   0.11978   0.00000  Uiso   1.00
Cu307  Cu    0.75000   0.50000   0.21355   0.00000  Uiso   1.00
Cu308  Cu    0.75000   0.50000   0.11978   0.00000  Uiso   1.00
F309   F     0.50000   0.67281   0.04751   0.00000  Uiso   1.00
F310   F     0.56744   0.87147   0.24037   0.00000  Uiso   1.00
F311   F     0.62046   0.81646   0.09305   0.00000  Uiso   1.00
F312   F     0.87953   0.68355   0.24027   0.00000  Uiso   1.00
F313   F     0.62047   0.68355   0.24027   0.00000  Uiso   1.00
F314   F     0.87954   0.81645   0.09306   0.00000  Uiso   1.00
F315   F     0.93257   0.87148   0.24037   0.00000  Uiso   1.00
F316   F     0.56742   0.62852   0.09297   0.00000  Uiso   1.00
F317   F     0.68256   0.87853   0.09296   0.00000  Uiso   1.00
F318   F     0.81743   0.62148   0.24036   0.00000  Uiso   1.00
F319   F     0.87047   0.56645   0.09306   0.00000  Uiso   1.00
F320   F     0.50000   0.82719   0.28582   0.00000  Uiso   1.00
F321   F     0.62954   0.93354   0.24028   0.00000  Uiso   1.00
F322   F     0.87046   0.93355   0.24027   0.00000  Uiso   1.00
F323   F     0.62953   0.56645   0.09306   0.00000  Uiso   1.00
F324   F     0.68258   0.62148   0.24036   0.00000  Uiso   1.00
F325   F     0.81743   0.87852   0.09297   0.00000  Uiso   1.00
F326   F     0.50000   0.82723   0.04834   0.00000  Uiso   1.00
F327   F     0.50000   0.67277   0.28499   0.00000  Uiso   1.00
F328   F     0.75000   0.92281   0.04751   0.00000  Uiso   1.00
F329   F     0.75000   0.57719   0.28582   0.00000  Uiso   1.00
F330   F     0.75000   0.57723   0.04834   0.00000  Uiso   1.00
F331   F     0.75000   0.92277   0.28499   0.00000  Uiso   1.00
F332   F     0.93257   0.62852   0.09297   0.00000  Uiso   1.00
N333   N     0.50000   0.75000   0.28402   0.00000  Uiso   1.00
N334   N     0.50000   0.75000   0.04931   0.00000  Uiso   1.00
N335   N     0.75000   0.50000   0.28402   0.00000  Uiso   1.00
N336   N     0.75000   0.50000   0.04931   0.00000  Uiso   1.00
O337   O     0.54509   0.70491   0.20625   0.00000  Uiso   1.00
O338   O     0.70492   0.54509   0.12709   0.00000  Uiso   1.00
O339   O     0.70492   0.54509   0.20625   0.00000  Uiso   1.00
O340   O     0.79509   0.95491   0.12709   0.00000  Uiso   1.00
O341   O     0.70492   0.95491   0.12709   0.00000  Uiso   1.00
O342   O     0.79509   0.54509   0.20625   0.00000  Uiso   1.00
O343   O     0.79509   0.54509   0.12709   0.00000  Uiso   1.00
O344   O     0.70492   0.95491   0.20625   0.00000  Uiso   1.00
O345   O     0.95492   0.79509   0.12709   0.00000  Uiso   1.00
O346   O     0.95492   0.79509   0.20625   0.00000  Uiso   1.00
O347   O     0.54509   0.70491   0.12709   0.00000  Uiso   1.00
O348   O     0.95492   0.70491   0.12709   0.00000  Uiso   1.00
O349   O     0.54509   0.79509   0.20625   0.00000  Uiso   1.00
O350   O     0.54509   0.79509   0.12709   0.00000  Uiso   1.00
O351   O     0.95492   0.70491   0.20625   0.00000  Uiso   1.00
O352   O     0.79509   0.95491   0.20625   0.00000  Uiso   1.00
C353   C     0.05942   0.19052   0.49995   0.00000  Uiso   1.00
C354   C     0.00000   0.28848   0.64211   0.00000  Uiso   1.00
C355   C     0.00000   0.28849   0.35830   0.00000  Uiso   1.00
C356   C     0.00000   0.21151   0.64170   0.00000  Uiso   1.00
C357   C     0.25000   0.46152   0.35789   0.00000  Uiso   1.00
C358   C     0.25000   0.03848   0.64211   0.00000  Uiso   1.00
C359   C     0.25000   0.03849   0.35830   0.00000  Uiso   1.00
C360   C     0.25000   0.46151   0.64170   0.00000  Uiso   1.00
C361   C     0.40401   0.12745   0.46242   0.00000  Uiso   1.00
C362   C     0.09599   0.37254   0.53758   0.00000  Uiso   1.00
C363   C     0.12207   0.34550   0.46249   0.00000  Uiso   1.00
C364   C     0.44058   0.30948   0.50005   0.00000  Uiso   1.00
C365   C     0.37792   0.15451   0.53750   0.00000  Uiso   1.00
C366   C     0.12208   0.15451   0.53750   0.00000  Uiso   1.00
C367   C     0.37793   0.34549   0.46250   0.00000  Uiso   1.00
C368   C     0.40401   0.37255   0.53758   0.00000  Uiso   1.00
C369   C     0.09599   0.12745   0.46242   0.00000  Uiso   1.00
C370   C     0.15401   0.37746   0.46242   0.00000  Uiso   1.00
C371   C     0.34599   0.12255   0.53758   0.00000  Uiso   1.00
C372   C     0.37208   0.09549   0.46250   0.00000  Uiso   1.00
C373   C     0.12793   0.40450   0.53751   0.00000  Uiso   1.00
C374   C     0.37208   0.40451   0.53750   0.00000  Uiso   1.00
C375   C     0.44058   0.19052   0.49995   0.00000  Uiso   1.00
C376   C     0.12792   0.09549   0.46250   0.00000  Uiso   1.00
C377   C     0.15401   0.12255   0.53758   0.00000  Uiso   1.00
C378   C     0.34599   0.37745   0.46242   0.00000  Uiso   1.00
C379   C     0.09292   0.34290   0.50008   0.00000  Uiso   1.00
C380   C     0.40708   0.15710   0.49992   0.00000  Uiso   1.00
C381   C     0.40708   0.34290   0.50008   0.00000  Uiso   1.00
C382   C     0.09292   0.15710   0.49992   0.00000  Uiso   1.00
C383   C     0.34292   0.09290   0.50008   0.00000  Uiso   1.00
C384   C     0.15708   0.40710   0.49992   0.00000  Uiso   1.00
C385   C     0.15708   0.09290   0.50008   0.00000  Uiso   1.00
C386   C     0.05942   0.30948   0.50005   0.00000  Uiso   1.00
C387   C     0.34292   0.40710   0.49992   0.00000  Uiso   1.00
C388   C     0.30942   0.44052   0.49995   0.00000  Uiso   1.00
C389   C     0.19058   0.05948   0.50005   0.00000  Uiso   1.00
C390   C     0.19058   0.44052   0.49995   0.00000  Uiso   1.00
C391   C     0.30942   0.05948   0.50005   0.00000  Uiso   1.00
C392   C     0.00000   0.21152   0.35789   0.00000  Uiso   1.00
Cu393  Cu    0.00000   0.25000   0.54689   0.00000  Uiso   1.00
Cu394  Cu    0.00000   0.25000   0.45311   0.00000  Uiso   1.00
Cu395  Cu    0.25000   0.00000   0.54689   0.00000  Uiso   1.00
Cu396  Cu    0.25000   0.00000   0.45311   0.00000  Uiso   1.00
F397   F     0.00000   0.17281   0.38084   0.00000  Uiso   1.00
F398   F     0.06744   0.37147   0.57371   0.00000  Uiso   1.00
F399   F     0.12046   0.31646   0.42639   0.00000  Uiso   1.00
F400   F     0.37953   0.18355   0.57360   0.00000  Uiso   1.00
F401   F     0.12047   0.18355   0.57360   0.00000  Uiso   1.00
F402   F     0.37954   0.31645   0.42639   0.00000  Uiso   1.00
F403   F     0.43257   0.37148   0.57370   0.00000  Uiso   1.00
F404   F     0.06742   0.12852   0.42630   0.00000  Uiso   1.00
F405   F     0.18256   0.37853   0.42629   0.00000  Uiso   1.00
F406   F     0.31743   0.12148   0.57370   0.00000  Uiso   1.00
F407   F     0.37047   0.06645   0.42640   0.00000  Uiso   1.00
F408   F    -0.00000   0.32719   0.61916   0.00000  Uiso   1.00
F409   F     0.12954   0.43354   0.57361   0.00000  Uiso   1.00
F410   F     0.37046   0.43355   0.57360   0.00000  Uiso   1.00
F411   F     0.12953   0.06645   0.42640   0.00000  Uiso   1.00
F412   F     0.18258   0.12148   0.57370   0.00000  Uiso   1.00
F413   F     0.31743   0.37852   0.42630   0.00000  Uiso   1.00
F414   F    -0.00000   0.32723   0.38168   0.00000  Uiso   1.00
F415   F     0.00000   0.17277   0.61832   0.00000  Uiso   1.00
F416   F     0.25000   0.42281   0.38084   0.00000  Uiso   1.00
F417   F     0.25000   0.07719   0.61916   0.00000  Uiso   1.00
F418   F     0.25000   0.07723   0.38168   0.00000  Uiso   1.00
F419   F     0.25000   0.42277   0.61832   0.00000  Uiso   1.00
F420   F     0.43257   0.12852   0.42630   0.00000  Uiso   1.00
N421   N     0.00000   0.25000   0.61736   0.00000  Uiso   1.00
N422   N     0.00000   0.25000   0.38264   0.00000  Uiso   1.00
N423   N     0.25000   0.00000   0.61736   0.00000  Uiso   1.00
N424   N     0.25000   0.00000   0.38264   0.00000  Uiso   1.00
O425   O     0.04509   0.20491   0.53958   0.00000  Uiso   1.00
O426   O     0.20492   0.04509   0.46042   0.00000  Uiso   1.00
O427   O     0.20492   0.04509   0.53958   0.00000  Uiso   1.00
O428   O     0.29509   0.45491   0.46042   0.00000  Uiso   1.00
O429   O     0.20492   0.45491   0.46042   0.00000  Uiso   1.00
O430   O     0.29509   0.04509   0.53958   0.00000  Uiso   1.00
O431   O     0.29509   0.04509   0.46042   0.00000  Uiso   1.00
O432   O     0.20492   0.45491   0.53958   0.00000  Uiso   1.00
O433   O     0.45492   0.29509   0.46042   0.00000  Uiso   1.00
O434   O     0.45492   0.29509   0.53958   0.00000  Uiso   1.00
O435   O     0.04509   0.20491   0.46042   0.00000  Uiso   1.00
O436   O     0.45492   0.20491   0.46042   0.00000  Uiso   1.00
O437   O     0.04509   0.29509   0.53958   0.00000  Uiso   1.00
O438   O     0.04509   0.29509   0.46042   0.00000  Uiso   1.00
O439   O     0.45492   0.20491   0.53958   0.00000  Uiso   1.00
O440   O     0.29509   0.45491   0.53958   0.00000  Uiso   1.00
C441   C     0.55942   0.19052   0.49995   0.00000  Uiso   1.00
C442   C     0.50000   0.28848   0.64211   0.00000  Uiso   1.00
C443   C     0.50000   0.28849   0.35830   0.00000  Uiso   1.00
C444   C     0.50000   0.21151   0.64170   0.00000  Uiso   1.00
C445   C     0.75000   0.46152   0.35789   0.00000  Uiso   1.00
C446   C     0.75000   0.03848   0.64211   0.00000  Uiso   1.00
C447   C     0.75000   0.03849   0.35830   0.00000  Uiso   1.00
C448   C     0.75000   0.46151   0.64170   0.00000  Uiso   1.00
C449   C     0.90401   0.12745   0.46242   0.00000  Uiso   1.00
C450   C     0.59599   0.37254   0.53758   0.00000  Uiso   1.00
C451   C     0.62207   0.34550   0.46249   0.00000  Uiso   1.00
C452   C     0.94058   0.30948   0.50005   0.00000  Uiso   1.00
C453   C     0.87792   0.15451   0.53750   0.00000  Uiso   1.00
C454   C     0.62208   0.15451   0.53750   0.00000  Uiso   1.00
C455   C     0.87793   0.34549   0.46250   0.00000  Uiso   1.00
C456   C     0.90401   0.37255   0.53758   0.00000  Uiso   1.00
C457   C     0.59599   0.12745   0.46242   0.00000  Uiso   1.00
C458   C     0.65401   0.37746   0.46242   0.00000  Uiso   1.00
C459   C     0.84599   0.12255   0.53758   0.00000  Uiso   1.00
C460   C     0.87208   0.09549   0.46250   0.00000  Uiso   1.00
C461   C     0.62793   0.40450   0.53751   0.00000  Uiso   1.00
C462   C     0.87208   0.40451   0.53750   0.00000  Uiso   1.00
C463   C     0.94058   0.19052   0.49995   0.00000  Uiso   1.00
C464   C     0.62792   0.09549   0.46250   0.00000  Uiso   1.00
C465   C     0.65401   0.12255   0.53758   0.00000  Uiso   1.00
C466   C     0.84599   0.37745   0.46242   0.00000  Uiso   1.00
C467   C     0.59292   0.34290   0.50008   0.00000  Uiso   1.00
C468   C     0.90708   0.15710   0.49992   0.00000  Uiso   1.00
C469   C     0.90708   0.34290   0.50008   0.00000  Uiso   1.00
C470   C     0.59292   0.15710   0.49992   0.00000  Uiso   1.00
C471   C     0.84292   0.09290   0.50008   0.00000  Uiso   1.00
C472   C     0.65708   0.40710   0.49992   0.00000  Uiso   1.00
C473   C     0.65708   0.09290   0.50008   0.00000  Uiso   1.00
C474   C     0.55942   0.30948   0.50005   0.00000  Uiso   1.00
C475   C     0.84292   0.40710   0.49992   0.00000  Uiso   1.00
C476   C     0.80942   0.44052   0.49995   0.00000  Uiso   1.00
C477   C     0.69058   0.05948   0.50005   0.00000  Uiso   1.00
C478   C     0.69058   0.44052   0.49995   0.00000  Uiso   1.00
C479   C     0.80942   0.05948   0.50005   0.00000  Uiso   1.00
C480   C     0.50000   0.21152   0.35789   0.00000  Uiso   1.00
Cu481  Cu    0.50000   0.25000   0.54689   0.00000  Uiso   1.00
Cu482  Cu    0.50000   0.25000   0.45311   0.00000  Uiso   1.00
Cu483  Cu    0.75000   0.00000   0.54689   0.00000  Uiso   1.00
Cu484  Cu    0.75000   0.00000   0.45311   0.00000  Uiso   1.00
F485   F     0.50000   0.17281   0.38084   0.00000  Uiso   1.00
F486   F     0.56744   0.37147   0.57371   0.00000  Uiso   1.00
F487   F     0.62046   0.31646   0.42639   0.00000  Uiso   1.00
F488   F     0.87953   0.18355   0.57360   0.00000  Uiso   1.00
F489   F     0.62047   0.18355   0.57360   0.00000  Uiso   1.00
F490   F     0.87954   0.31645   0.42639   0.00000  Uiso   1.00
F491   F     0.93257   0.37148   0.57370   0.00000  Uiso   1.00
F492   F     0.56742   0.12852   0.42630   0.00000  Uiso   1.00
F493   F     0.68256   0.37853   0.42629   0.00000  Uiso   1.00
F494   F     0.81743   0.12148   0.57370   0.00000  Uiso   1.00
F495   F     0.87047   0.06645   0.42640   0.00000  Uiso   1.00
F496   F     0.50000   0.32719   0.61916   0.00000  Uiso   1.00
F497   F     0.62954   0.43354   0.57361   0.00000  Uiso   1.00
F498   F     0.87046   0.43355   0.57360   0.00000  Uiso   1.00
F499   F     0.62953   0.06645   0.42640   0.00000  Uiso   1.00
F500   F     0.68258   0.12148   0.57370   0.00000  Uiso   1.00
F501   F     0.81743   0.37852   0.42630   0.00000  Uiso   1.00
F502   F     0.50000   0.32723   0.38168   0.00000  Uiso   1.00
F503   F     0.50000   0.17277   0.61832   0.00000  Uiso   1.00
F504   F     0.75000   0.42281   0.38084   0.00000  Uiso   1.00
F505   F     0.75000   0.07719   0.61916   0.00000  Uiso   1.00
F506   F     0.75000   0.07723   0.38168   0.00000  Uiso   1.00
F507   F     0.75000   0.42277   0.61832   0.00000  Uiso   1.00
F508   F     0.93257   0.12852   0.42630   0.00000  Uiso   1.00
N509   N     0.50000   0.25000   0.61736   0.00000  Uiso   1.00
N510   N     0.50000   0.25000   0.38264   0.00000  Uiso   1.00
N511   N     0.75000   0.00000   0.61736   0.00000  Uiso   1.00
N512   N     0.75000   0.00000   0.38264   0.00000  Uiso   1.00
O513   O     0.54509   0.20491   0.53958   0.00000  Uiso   1.00
O514   O     0.70492   0.04509   0.46042   0.00000  Uiso   1.00
O515   O     0.70492   0.04509   0.53958   0.00000  Uiso   1.00
O516   O     0.79509   0.45491   0.46042   0.00000  Uiso   1.00
O517   O     0.70492   0.45491   0.46042   0.00000  Uiso   1.00
O518   O     0.79509   0.04509   0.53958   0.00000  Uiso   1.00
O519   O     0.79509   0.04509   0.46042   0.00000  Uiso   1.00
O520   O     0.70492   0.45491   0.53958   0.00000  Uiso   1.00
O521   O     0.95492   0.29509   0.46042   0.00000  Uiso   1.00
O522   O     0.95492   0.29509   0.53958   0.00000  Uiso   1.00
O523   O     0.54509   0.20491   0.46042   0.00000  Uiso   1.00
O524   O     0.95492   0.20491   0.46042   0.00000  Uiso   1.00
O525   O     0.54509   0.29509   0.53958   0.00000  Uiso   1.00
O526   O     0.54509   0.29509   0.46042   0.00000  Uiso   1.00
O527   O     0.95492   0.20491   0.53958   0.00000  Uiso   1.00
O528   O     0.79509   0.45491   0.53958   0.00000  Uiso   1.00
C529   C     0.05942   0.69052   0.49995   0.00000  Uiso   1.00
C530   C     0.00000   0.78848   0.64211   0.00000  Uiso   1.00
C531   C     0.00000   0.78849   0.35830   0.00000  Uiso   1.00
C532   C     0.00000   0.71151   0.64170   0.00000  Uiso   1.00
C533   C     0.25000   0.96152   0.35789   0.00000  Uiso   1.00
C534   C     0.25000   0.53848   0.64211   0.00000  Uiso   1.00
C535   C     0.25000   0.53849   0.35830   0.00000  Uiso   1.00
C536   C     0.25000   0.96151   0.64170   0.00000  Uiso   1.00
C537   C     0.40401   0.62745   0.46242   0.00000  Uiso   1.00
C538   C     0.09599   0.87254   0.53758   0.00000  Uiso   1.00
C539   C     0.12207   0.84550   0.46249   0.00000  Uiso   1.00
C540   C     0.44058   0.80948   0.50005   0.00000  Uiso   1.00
C541   C     0.37792   0.65451   0.53750   0.00000  Uiso   1.00
C542   C     0.12208   0.65451   0.53750   0.00000  Uiso   1.00
C543   C     0.37793   0.84549   0.46250   0.00000  Uiso   1.00
C544   C     0.40401   0.87255   0.53758   0.00000  Uiso   1.00
C545   C     0.09599   0.62745   0.46242   0.00000  Uiso   1.00
C546   C     0.15401   0.87746   0.46242   0.00000  Uiso   1.00
C547   C     0.34599   0.62255   0.53758   0.00000  Uiso   1.00
C548   C     0.37208   0.59549   0.46250   0.00000  Uiso   1.00
C549   C     0.12793   0.90450   0.53751   0.00000  Uiso   1.00
C550   C     0.37208   0.90451   0.53750   0.00000  Uiso   1.00
C551   C     0.44058   0.69052   0.49995   0.00000  Uiso   1.00
C552   C     0.12792   0.59549   0.46250   0.00000  Uiso   1.00
C553   C     0.15401   0.62255   0.53758   0.00000  Uiso   1.00
C554   C     0.34599   0.87745   0.46242   0.00000  Uiso   1.00
C555   C     0.09292   0.84290   0.50008   0.00000  Uiso   1.00
C556   C     0.40708   0.65710   0.49992   0.00000  Uiso   1.00
C557   C     0.40708   0.84290   0.50008   0.00000  Uiso   1.00
C558   C     0.09292   0.65710   0.49992   0.00000  Uiso   1.00
C559   C     0.34292   0.59290   0.50008   0.00000  Uiso   1.00
C560   C     0.15708   0.90710   0.49992   0.00000  Uiso   1.00
C561   C     0.15708   0.59290   0.50008   0.00000  Uiso   1.00
C562   C     0.05942   0.80948   0.50005   0.00000  Uiso   1.00
C563   C     0.34292   0.90710   0.49992   0.00000  Uiso   1.00
C564   C     0.30942   0.94052   0.49995   0.00000  Uiso   1.00
C565   C     0.19058   0.55948   0.50005   0.00000  Uiso   1.00
C566   C     0.19058   0.94052   0.49995   0.00000  Uiso   1.00
C567   C     0.30942   0.55948   0.50005   0.00000  Uiso   1.00
C568   C     0.00000   0.71152   0.35789   0.00000  Uiso   1.00
Cu569  Cu    0.00000   0.75000   0.54689   0.00000  Uiso   1.00
Cu570  Cu    0.00000   0.75000   0.45311   0.00000  Uiso   1.00
Cu571  Cu    0.25000   0.50000   0.54689   0.00000  Uiso   1.00
Cu572  Cu    0.25000   0.50000   0.45311   0.00000  Uiso   1.00
F573   F     0.00000   0.67281   0.38084   0.00000  Uiso   1.00
F574   F     0.06744   0.87147   0.57371   0.00000  Uiso   1.00
F575   F     0.12046   0.81646   0.42639   0.00000  Uiso   1.00
F576   F     0.37953   0.68355   0.57360   0.00000  Uiso   1.00
F577   F     0.12047   0.68355   0.57360   0.00000  Uiso   1.00
F578   F     0.37954   0.81645   0.42639   0.00000  Uiso   1.00
F579   F     0.43257   0.87148   0.57370   0.00000  Uiso   1.00
F580   F     0.06742   0.62852   0.42630   0.00000  Uiso   1.00
F581   F     0.18256   0.87853   0.42629   0.00000  Uiso   1.00
F582   F     0.31743   0.62148   0.57370   0.00000  Uiso   1.00
F583   F     0.37047   0.56645   0.42640   0.00000  Uiso   1.00
F584   F    -0.00000   0.82719   0.61916   0.00000  Uiso   1.00
F585   F     0.12954   0.93354   0.57361   0.00000  Uiso   1.00
F586   F     0.37046   0.93355   0.57360   0.00000  Uiso   1.00
F587   F     0.12953   0.56645   0.42640   0.00000  Uiso   1.00
F588   F     0.18258   0.62148   0.57370   0.00000  Uiso   1.00
F589   F     0.31743   0.87852   0.42630   0.00000  Uiso   1.00
F590   F    -0.00000   0.82723   0.38168   0.00000  Uiso   1.00
F591   F     0.00000   0.67277   0.61832   0.00000  Uiso   1.00
F592   F     0.25000   0.92281   0.38084   0.00000  Uiso   1.00
F593   F     0.25000   0.57719   0.61916   0.00000  Uiso   1.00
F594   F     0.25000   0.57723   0.38168   0.00000  Uiso   1.00
F595   F     0.25000   0.92277   0.61832   0.00000  Uiso   1.00
F596   F     0.43257   0.62852   0.42630   0.00000  Uiso   1.00
N597   N     0.00000   0.75000   0.61736   0.00000  Uiso   1.00
N598   N     0.00000   0.75000   0.38264   0.00000  Uiso   1.00
N599   N     0.25000   0.50000   0.61736   0.00000  Uiso   1.00
N600   N     0.25000   0.50000   0.38264   0.00000  Uiso   1.00
O601   O     0.04509   0.70491   0.53958   0.00000  Uiso   1.00
O602   O     0.20492   0.54509   0.46042   0.00000  Uiso   1.00
O603   O     0.20492   0.54509   0.53958   0.00000  Uiso   1.00
O604   O     0.29509   0.95491   0.46042   0.00000  Uiso   1.00
O605   O     0.20492   0.95491   0.46042   0.00000  Uiso   1.00
O606   O     0.29509   0.54509   0.53958   0.00000  Uiso   1.00
O607   O     0.29509   0.54509   0.46042   0.00000  Uiso   1.00
O608   O     0.20492   0.95491   0.53958   0.00000  Uiso   1.00
O609   O     0.45492   0.79509   0.46042   0.00000  Uiso   1.00
O610   O     0.45492   0.79509   0.53958   0.00000  Uiso   1.00
O611   O     0.04509   0.70491   0.46042   0.00000  Uiso   1.00
O612   O     0.45492   0.70491   0.46042   0.00000  Uiso   1.00
O613   O     0.04509   0.79509   0.53958   0.00000  Uiso   1.00
O614   O     0.04509   0.79509   0.46042   0.00000  Uiso   1.00
O615   O     0.45492   0.70491   0.53958   0.00000  Uiso   1.00
O616   O     0.29509   0.95491   0.53958   0.00000  Uiso   1.00
C617   C     0.55942   0.69052   0.49995   0.00000  Uiso   1.00
C618   C     0.50000   0.78848   0.64211   0.00000  Uiso   1.00
C619   C     0.50000   0.78849   0.35830   0.00000  Uiso   1.00
C620   C     0.50000   0.71151   0.64170   0.00000  Uiso   1.00
C621   C     0.75000   0.96152   0.35789   0.00000  Uiso   1.00
C622   C     0.75000   0.53848   0.64211   0.00000  Uiso   1.00
C623   C     0.75000   0.53849   0.35830   0.00000  Uiso   1.00
C624   C     0.75000   0.96151   0.64170   0.00000  Uiso   1.00
C625   C     0.90401   0.62745   0.46242   0.00000  Uiso   1.00
C626   C     0.59599   0.87254   0.53758   0.00000  Uiso   1.00
C627   C     0.62207   0.84550   0.46249   0.00000  Uiso   1.00
C628   C     0.94058   0.80948   0.50005   0.00000  Uiso   1.00
C629   C     0.87792   0.65451   0.53750   0.00000  Uiso   1.00
C630   C     0.62208   0.65451   0.53750   0.00000  Uiso   1.00
C631   C     0.87793   0.84549   0.46250   0.00000  Uiso   1.00
C632   C     0.90401   0.87255   0.53758   0.00000  Uiso   1.00
C633   C     0.59599   0.62745   0.46242   0.00000  Uiso   1.00
C634   C     0.65401   0.87746   0.46242   0.00000  Uiso   1.00
C635   C     0.84599   0.62255   0.53758   0.00000  Uiso   1.00
C636   C     0.87208   0.59549   0.46250   0.00000  Uiso   1.00
C637   C     0.62793   0.90450   0.53751   0.00000  Uiso   1.00
C638   C     0.87208   0.90451   0.53750   0.00000  Uiso   1.00
C639   C     0.94058   0.69052   0.49995   0.00000  Uiso   1.00
C640   C     0.62792   0.59549   0.46250   0.00000  Uiso   1.00
C641   C     0.65401   0.62255   0.53758   0.00000  Uiso   1.00
C642   C     0.84599   0.87745   0.46242   0.00000  Uiso   1.00
C643   C     0.59292   0.84290   0.50008   0.00000  Uiso   1.00
C644   C     0.90708   0.65710   0.49992   0.00000  Uiso   1.00
C645   C     0.90708   0.84290   0.50008   0.00000  Uiso   1.00
C646   C     0.59292   0.65710   0.49992   0.00000  Uiso   1.00
C647   C     0.84292   0.59290   0.50008   0.00000  Uiso   1.00
C648   C     0.65708   0.90710   0.49992   0.00000  Uiso   1.00
C649   C     0.65708   0.59290   0.50008   0.00000  Uiso   1.00
C650   C     0.55942   0.80948   0.50005   0.00000  Uiso   1.00
C651   C     0.84292   0.90710   0.49992   0.00000  Uiso   1.00
C652   C     0.80942   0.94052   0.49995   0.00000  Uiso   1.00
C653   C     0.69058   0.55948   0.50005   0.00000  Uiso   1.00
C654   C     0.69058   0.94052   0.49995   0.00000  Uiso   1.00
C655   C     0.80942   0.55948   0.50005   0.00000  Uiso   1.00
C656   C     0.50000   0.71152   0.35789   0.00000  Uiso   1.00
Cu657  Cu    0.50000   0.75000   0.54689   0.00000  Uiso   1.00
Cu658  Cu    0.50000   0.75000   0.45311   0.00000  Uiso   1.00
Cu659  Cu    0.75000   0.50000   0.54689   0.00000  Uiso   1.00
Cu660  Cu    0.75000   0.50000   0.45311   0.00000  Uiso   1.00
F661   F     0.50000   0.67281   0.38084   0.00000  Uiso   1.00
F662   F     0.56744   0.87147   0.57371   0.00000  Uiso   1.00
F663   F     0.62046   0.81646   0.42639   0.00000  Uiso   1.00
F664   F     0.87953   0.68355   0.57360   0.00000  Uiso   1.00
F665   F     0.62047   0.68355   0.57360   0.00000  Uiso   1.00
F666   F     0.87954   0.81645   0.42639   0.00000  Uiso   1.00
F667   F     0.93257   0.87148   0.57370   0.00000  Uiso   1.00
F668   F     0.56742   0.62852   0.42630   0.00000  Uiso   1.00
F669   F     0.68256   0.87853   0.42629   0.00000  Uiso   1.00
F670   F     0.81743   0.62148   0.57370   0.00000  Uiso   1.00
F671   F     0.87047   0.56645   0.42640   0.00000  Uiso   1.00
F672   F     0.50000   0.82719   0.61916   0.00000  Uiso   1.00
F673   F     0.62954   0.93354   0.57361   0.00000  Uiso   1.00
F674   F     0.87046   0.93355   0.57360   0.00000  Uiso   1.00
F675   F     0.62953   0.56645   0.42640   0.00000  Uiso   1.00
F676   F     0.68258   0.62148   0.57370   0.00000  Uiso   1.00
F677   F     0.81743   0.87852   0.42630   0.00000  Uiso   1.00
F678   F     0.50000   0.82723   0.38168   0.00000  Uiso   1.00
F679   F     0.50000   0.67277   0.61832   0.00000  Uiso   1.00
F680   F     0.75000   0.92281   0.38084   0.00000  Uiso   1.00
F681   F     0.75000   0.57719   0.61916   0.00000  Uiso   1.00
F682   F     0.75000   0.57723   0.38168   0.00000  Uiso   1.00
F683   F     0.75000   0.92277   0.61832   0.00000  Uiso   1.00
F684   F     0.93257   0.62852   0.42630   0.00000  Uiso   1.00
N685   N     0.50000   0.75000   0.61736   0.00000  Uiso   1.00
N686   N     0.50000   0.75000   0.38264   0.00000  Uiso   1.00
N687   N     0.75000   0.50000   0.61736   0.00000  Uiso   1.00
N688   N     0.75000   0.50000   0.38264   0.00000  Uiso   1.00
O689   O     0.54509   0.70491   0.53958   0.00000  Uiso   1.00
O690   O     0.70492   0.54509   0.46042   0.00000  Uiso   1.00
O691   O     0.70492   0.54509   0.53958   0.00000  Uiso   1.00
O692   O     0.79509   0.95491   0.46042   0.00000  Uiso   1.00
O693   O     0.70492   0.95491   0.46042   0.00000  Uiso   1.00
O694   O     0.79509   0.54509   0.53958   0.00000  Uiso   1.00
O695   O     0.79509   0.54509   0.46042   0.00000  Uiso   1.00
O696   O     0.70492   0.95491   0.53958   0.00000  Uiso   1.00
O697   O     0.95492   0.79509   0.46042   0.00000  Uiso   1.00
O698   O     0.95492   0.79509   0.53958   0.00000  Uiso   1.00
O699   O     0.54509   0.70491   0.46042   0.00000  Uiso   1.00
O700   O     0.95492   0.70491   0.46042   0.00000  Uiso   1.00
O701   O     0.54509   0.79509   0.53958   0.00000  Uiso   1.00
O702   O     0.54509   0.79509   0.46042   0.00000  Uiso   1.00
O703   O     0.95492   0.70491   0.53958   0.00000  Uiso   1.00
O704   O     0.79509   0.95491   0.53958   0.00000  Uiso   1.00
C705   C     0.05942   0.19052   0.83328   0.00000  Uiso   1.00
C706   C     0.00000   0.28848   0.97544   0.00000  Uiso   1.00
C707   C     0.00000   0.28849   0.69163   0.00000  Uiso   1.00
C708   C     0.00000   0.21151   0.97503   0.00000  Uiso   1.00
C709   C     0.25000   0.46152   0.69123   0.00000  Uiso   1.00
C710   C     0.25000   0.03848   0.97544   0.00000  Uiso   1.00
C711   C     0.25000   0.03849   0.69163   0.00000  Uiso   1.00
C712   C     0.25000   0.46151   0.97503   0.00000  Uiso   1.00
C713   C     0.40401   0.12745   0.79576   0.00000  Uiso   1.00
C714   C     0.09599   0.37254   0.87091   0.00000  Uiso   1.00
C715   C     0.12207   0.34550   0.79583   0.00000  Uiso   1.00
C716   C     0.44058   0.30948   0.83338   0.00000  Uiso   1.00
C717   C     0.37792   0.15451   0.87084   0.00000  Uiso   1.00
C718   C     0.12208   0.15451   0.87083   0.00000  Uiso   1.00
C719   C     0.37793   0.34549   0.79583   0.00000  Uiso   1.00
C720   C     0.40401   0.37255   0.87091   0.00000  Uiso   1.00
C721   C     0.09599   0.12745   0.79576   0.00000  Uiso   1.00
C722   C     0.15401   0.37746   0.79575   0.00000  Uiso   1.00
C723   C     0.34599   0.12255   0.87091   0.00000  Uiso   1.00
C724   C     0.37208   0.09549   0.79583   0.00000  Uiso   1.00
C725   C     0.12793   0.40450   0.87084   0.00000  Uiso   1.00
C726   C     0.37208   0.40451   0.87084   0.00000  Uiso   1.00
C727   C     0.44058   0.19052   0.83328   0.00000  Uiso   1.00
C728   C     0.12792   0.09549   0.79583   0.00000  Uiso   1.00
C729   C     0.15401   0.12255   0.87091   0.00000  Uiso   1.00
C730   C     0.34599   0.37745   0.79576   0.00000  Uiso   1.00
C731   C     0.09292   0.34290   0.83342   0.00000  Uiso   1.00
C732   C     0.40708   0.15710   0.83325   0.00000  Uiso   1.00
C733   C     0.40708   0.34290   0.83342   0.00000  Uiso   1.00
C734   C     0.09292   0.15710   0.83325   0.00000  Uiso   1.00
C735   C     0.34292   0.09290   0.83342   0.00000  Uiso   1.00
C736   C     0.15708   0.40710   0.83325   0.00000  Uiso   1.00
C737   C     0.15708   0.09290   0.83342   0.00000  Uiso   1.00
C738   C     0.05942   0.30948   0.83338   0.00000  Uiso   1.00
C739   C     0.34292   0.40710   0.83325   0.00000  Uiso   1.00
C740   C     0.30942   0.44052   0.83328   0.00000  Uiso   1.00
C741   C     0.19058   0.05948   0.83338   0.00000  Uiso   1.00
C742   C     0.19058   0.44052   0.83328   0.00000  Uiso   1.00
C743   C     0.30942   0.05948   0.83338   0.00000  Uiso   1.00
C744   C     0.00000   0.21152   0.69123   0.00000  Uiso   1.00
Cu745  Cu    0.00000   0.25000   0.88022   0.00000  Uiso   1.00
Cu746  Cu    0.00000   0.25000   0.78645   0.00000  Uiso   1.00
Cu747  Cu    0.25000   0.00000   0.88022   0.00000  Uiso   1.00
Cu748  Cu    0.25000   0.00000   0.78645   0.00000  Uiso   1.00
F749   F     0.00000   0.17281   0.71418   0.00000  Uiso   1.00
F750   F     0.06744   0.37147   0.90704   0.00000  Uiso   1.00
F751   F     0.12046   0.31646   0.75972   0.00000  Uiso   1.00
F752   F     0.37953   0.18355   0.90694   0.00000  Uiso   1.00
F753   F     0.12047   0.18355   0.90693   0.00000  Uiso   1.00
F754   F     0.37954   0.31645   0.75973   0.00000  Uiso   1.00
F755   F     0.43257   0.37148   0.90703   0.00000  Uiso   1.00
F756   F     0.06742   0.12852   0.75964   0.00000  Uiso   1.00
F757   F     0.18256   0.37853   0.75963   0.00000  Uiso   1.00
F758   F     0.31743   0.12148   0.90703   0.00000  Uiso   1.00
F759   F     0.37047   0.06645   0.75973   0.00000  Uiso   1.00
F760   F    -0.00000   0.32719   0.95249   0.00000  Uiso   1.00
F761   F     0.12954   0.43354   0.90695   0.00000  Uiso   1.00
F762   F     0.37046   0.43355   0.90694   0.00000  Uiso   1.00
F763   F     0.12953   0.06645   0.75973   0.00000  Uiso   1.00
F764   F     0.18258   0.12148   0.90703   0.00000  Uiso   1.00
F765   F     0.31743   0.37852   0.75963   0.00000  Uiso   1.00
F766   F    -0.00000   0.32723   0.71501   0.00000  Uiso   1.00
F767   F     0.00000   0.17277   0.95166   0.00000  Uiso   1.00
F768   F     0.25000   0.42281   0.71418   0.00000  Uiso   1.00
F769   F     0.25000   0.07719   0.95249   0.00000  Uiso   1.00
F770   F     0.25000   0.07723   0.71501   0.00000  Uiso   1.00
F771   F     0.25000   0.42277   0.95166   0.00000  Uiso   1.00
F772   F     0.43257   0.12852   0.75964   0.00000  Uiso   1.00
N773   N     0.00000   0.25000   0.95069   0.00000  Uiso   1.00
N774   N     0.00000   0.25000   0.71598   0.00000  Uiso   1.00
N775   N     0.25000   0.00000   0.95069   0.00000  Uiso   1.00
N776   N     0.25000   0.00000   0.71598   0.00000  Uiso   1.00
O777   O     0.04509   0.20491   0.87291   0.00000  Uiso   1.00
O778   O     0.20492   0.04509   0.79375   0.00000  Uiso   1.00
O779   O     0.20492   0.04509   0.87291   0.00000  Uiso   1.00
O780   O     0.29509   0.45491   0.79375   0.00000  Uiso   1.00
O781   O     0.20492   0.45491   0.79375   0.00000  Uiso   1.00
O782   O     0.29509   0.04509   0.87291   0.00000  Uiso   1.00
O783   O     0.29509   0.04509   0.79375   0.00000  Uiso   1.00
O784   O     0.20492   0.45491   0.87291   0.00000  Uiso   1.00
O785   O     0.45492   0.29509   0.79375   0.00000  Uiso   1.00
O786   O     0.45492   0.29509   0.87291   0.00000  Uiso   1.00
O787   O     0.04509   0.20491   0.79375   0.00000  Uiso   1.00
O788   O     0.45492   0.20491   0.79375   0.00000  Uiso   1.00
O789   O     0.04509   0.29509   0.87291   0.00000  Uiso   1.00
O790   O     0.04509   0.29509   0.79375   0.00000  Uiso   1.00
O791   O     0.45492   0.20491   0.87291   0.00000  Uiso   1.00
O792   O     0.29509   0.45491   0.87291   0.00000  Uiso   1.00
C793   C     0.55942   0.19052   0.83328   0.00000  Uiso   1.00
C794   C     0.50000   0.28848   0.97544   0.00000  Uiso   1.00
C795   C     0.50000   0.28849   0.69163   0.00000  Uiso   1.00
C796   C     0.50000   0.21151   0.97503   0.00000  Uiso   1.00
C797   C     0.75000   0.46152   0.69123   0.00000  Uiso   1.00
C798   C     0.75000   0.03848   0.97544   0.00000  Uiso   1.00
C799   C     0.75000   0.03849   0.69163   0.00000  Uiso   1.00
C800   C     0.75000   0.46151   0.97503   0.00000  Uiso   1.00
C801   C     0.90401   0.12745   0.79576   0.00000  Uiso   1.00
C802   C     0.59599   0.37254   0.87091   0.00000  Uiso   1.00
C803   C     0.62207   0.34550   0.79583   0.00000  Uiso   1.00
C804   C     0.94058   0.30948   0.83338   0.00000  Uiso   1.00
C805   C     0.87792   0.15451   0.87084   0.00000  Uiso   1.00
C806   C     0.62208   0.15451   0.87083   0.00000  Uiso   1.00
C807   C     0.87793   0.34549   0.79583   0.00000  Uiso   1.00
C808   C     0.90401   0.37255   0.87091   0.00000  Uiso   1.00
C809   C     0.59599   0.12745   0.79576   0.00000  Uiso   1.00
C810   C     0.65401   0.37746   0.79575   0.00000  Uiso   1.00
C811   C     0.84599   0.12255   0.87091   0.00000  Uiso   1.00
C812   C     0.87208   0.09549   0.79583   0.00000  Uiso   1.00
C813   C     0.62793   0.40450   0.87084   0.00000  Uiso   1.00
C814   C     0.87208   0.40451   0.87084   0.00000  Uiso   1.00
C815   C     0.94058   0.19052   0.83328   0.00000  Uiso   1.00
C816   C     0.62792   0.09549   0.79583   0.00000  Uiso   1.00
C817   C     0.65401   0.12255   0.87091   0.00000  Uiso   1.00
C818   C     0.84599   0.37745   0.79576   0.00000  Uiso   1.00
C819   C     0.59292   0.34290   0.83342   0.00000  Uiso   1.00
C820   C     0.90708   0.15710   0.83325   0.00000  Uiso   1.00
C821   C     0.90708   0.34290   0.83342   0.00000  Uiso   1.00
C822   C     0.59292   0.15710   0.83325   0.00000  Uiso   1.00
C823   C     0.84292   0.09290   0.83342   0.00000  Uiso   1.00
C824   C     0.65708   0.40710   0.83325   0.00000  Uiso   1.00
C825   C     0.65708   0.09290   0.83342   0.00000  Uiso   1.00
C826   C     0.55942   0.30948   0.83338   0.00000  Uiso   1.00
C827   C     0.84292   0.40710   0.83325   0.00000  Uiso   1.00
C828   C     0.80942   0.44052   0.83328   0.00000  Uiso   1.00
C829   C     0.69058   0.05948   0.83338   0.00000  Uiso   1.00
C830   C     0.69058   0.44052   0.83328   0.00000  Uiso   1.00
C831   C     0.80942   0.05948   0.83338   0.00000  Uiso   1.00
C832   C     0.50000   0.21152   0.69123   0.00000  Uiso   1.00
Cu833  Cu    0.50000   0.25000   0.88022   0.00000  Uiso   1.00
Cu834  Cu    0.50000   0.25000   0.78645   0.00000  Uiso   1.00
Cu835  Cu    0.75000   0.00000   0.88022   0.00000  Uiso   1.00
Cu836  Cu    0.75000   0.00000   0.78645   0.00000  Uiso   1.00
F837   F     0.50000   0.17281   0.71418   0.00000  Uiso   1.00
F838   F     0.56744   0.37147   0.90704   0.00000  Uiso   1.00
F839   F     0.62046   0.31646   0.75972   0.00000  Uiso   1.00
F840   F     0.87953   0.18355   0.90694   0.00000  Uiso   1.00
F841   F     0.62047   0.18355   0.90693   0.00000  Uiso   1.00
F842   F     0.87954   0.31645   0.75973   0.00000  Uiso   1.00
F843   F     0.93257   0.37148   0.90703   0.00000  Uiso   1.00
F844   F     0.56742   0.12852   0.75964   0.00000  Uiso   1.00
F845   F     0.68256   0.37853   0.75963   0.00000  Uiso   1.00
F846   F     0.81743   0.12148   0.90703   0.00000  Uiso   1.00
F847   F     0.87047   0.06645   0.75973   0.00000  Uiso   1.00
F848   F     0.50000   0.32719   0.95249   0.00000  Uiso   1.00
F849   F     0.62954   0.43354   0.90695   0.00000  Uiso   1.00
F850   F     0.87046   0.43355   0.90694   0.00000  Uiso   1.00
F851   F     0.62953   0.06645   0.75973   0.00000  Uiso   1.00
F852   F     0.68258   0.12148   0.90703   0.00000  Uiso   1.00
F853   F     0.81743   0.37852   0.75963   0.00000  Uiso   1.00
F854   F     0.50000   0.32723   0.71501   0.00000  Uiso   1.00
F855   F     0.50000   0.17277   0.95166   0.00000  Uiso   1.00
F856   F     0.75000   0.42281   0.71418   0.00000  Uiso   1.00
F857   F     0.75000   0.07719   0.95249   0.00000  Uiso   1.00
F858   F     0.75000   0.07723   0.71501   0.00000  Uiso   1.00
F859   F     0.75000   0.42277   0.95166   0.00000  Uiso   1.00
F860   F     0.93257   0.12852   0.75964   0.00000  Uiso   1.00
N861   N     0.50000   0.25000   0.95069   0.00000  Uiso   1.00
N862   N     0.50000   0.25000   0.71598   0.00000  Uiso   1.00
N863   N     0.75000   0.00000   0.95069   0.00000  Uiso   1.00
N864   N     0.75000   0.00000   0.71598   0.00000  Uiso   1.00
O865   O     0.54509   0.20491   0.87291   0.00000  Uiso   1.00
O866   O     0.70492   0.04509   0.79375   0.00000  Uiso   1.00
O867   O     0.70492   0.04509   0.87291   0.00000  Uiso   1.00
O868   O     0.79509   0.45491   0.79375   0.00000  Uiso   1.00
O869   O     0.70492   0.45491   0.79375   0.00000  Uiso   1.00
O870   O     0.79509   0.04509   0.87291   0.00000  Uiso   1.00
O871   O     0.79509   0.04509   0.79375   0.00000  Uiso   1.00
O872   O     0.70492   0.45491   0.87291   0.00000  Uiso   1.00
O873   O     0.95492   0.29509   0.79375   0.00000  Uiso   1.00
O874   O     0.95492   0.29509   0.87291   0.00000  Uiso   1.00
O875   O     0.54509   0.20491   0.79375   0.00000  Uiso   1.00
O876   O     0.95492   0.20491   0.79375   0.00000  Uiso   1.00
O877   O     0.54509   0.29509   0.87291   0.00000  Uiso   1.00
O878   O     0.54509   0.29509   0.79375   0.00000  Uiso   1.00
O879   O     0.95492   0.20491   0.87291   0.00000  Uiso   1.00
O880   O     0.79509   0.45491   0.87291   0.00000  Uiso   1.00
C881   C     0.05942   0.69052   0.83328   0.00000  Uiso   1.00
C882   C     0.00000   0.78848   0.97544   0.00000  Uiso   1.00
C883   C     0.00000   0.78849   0.69163   0.00000  Uiso   1.00
C884   C     0.00000   0.71151   0.97503   0.00000  Uiso   1.00
C885   C     0.25000   0.96152   0.69123   0.00000  Uiso   1.00
C886   C     0.25000   0.53848   0.97544   0.00000  Uiso   1.00
C887   C     0.25000   0.53849   0.69163   0.00000  Uiso   1.00
C888   C     0.25000   0.96151   0.97503   0.00000  Uiso   1.00
C889   C     0.40401   0.62745   0.79576   0.00000  Uiso   1.00
C890   C     0.09599   0.87254   0.87091   0.00000  Uiso   1.00
C891   C     0.12207   0.84550   0.79583   0.00000  Uiso   1.00
C892   C     0.44058   0.80948   0.83338   0.00000  Uiso   1.00
C893   C     0.37792   0.65451   0.87084   0.00000  Uiso   1.00
C894   C     0.12208   0.65451   0.87083   0.00000  Uiso   1.00
C895   C     0.37793   0.84549   0.79583   0.00000  Uiso   1.00
C896   C     0.40401   0.87255   0.87091   0.00000  Uiso   1.00
C897   C     0.09599   0.62745   0.79576   0.00000  Uiso   1.00
C898   C     0.15401   0.87746   0.79575   0.00000  Uiso   1.00
C899   C     0.34599   0.62255   0.87091   0.00000  Uiso   1.00
C900   C     0.37208   0.59549   0.79583   0.00000  Uiso   1.00
C901   C     0.12793   0.90450   0.87084   0.00000  Uiso   1.00
C902   C     0.37208   0.90451   0.87084   0.00000  Uiso   1.00
C903   C     0.44058   0.69052   0.83328   0.00000  Uiso   1.00
C904   C     0.12792   0.59549   0.79583   0.00000  Uiso   1.00
C905   C     0.15401   0.62255   0.87091   0.00000  Uiso   1.00
C906   C     0.34599   0.87745   0.79576   0.00000  Uiso   1.00
C907   C     0.09292   0.84290   0.83342   0.00000  Uiso   1.00
C908   C     0.40708   0.65710   0.83325   0.00000  Uiso   1.00
C909   C     0.40708   0.84290   0.83342   0.00000  Uiso   1.00
C910   C     0.09292   0.65710   0.83325   0.00000  Uiso   1.00
C911   C     0.34292   0.59290   0.83342   0.00000  Uiso   1.00
C912   C     0.15708   0.90710   0.83325   0.00000  Uiso   1.00
C913   C     0.15708   0.59290   0.83342   0.00000  Uiso   1.00
C914   C     0.05942   0.80948   0.83338   0.00000  Uiso   1.00
C915   C     0.34292   0.90710   0.83325   0.00000  Uiso   1.00
C916   C     0.30942   0.94052   0.83328   0.00000  Uiso   1.00
C917   C     0.19058   0.55948   0.83338   0.00000  Uiso   1.00
C918   C     0.19058   0.94052   0.83328   0.00000  Uiso   1.00
C919   C     0.30942   0.55948   0.83338   0.00000  Uiso   1.00
C920   C     0.00000   0.71152   0.69123   0.00000  Uiso   1.00
Cu921  Cu    0.00000   0.75000   0.88022   0.00000  Uiso   1.00
Cu922  Cu    0.00000   0.75000   0.78645   0.00000  Uiso   1.00
Cu923  Cu    0.25000   0.50000   0.88022   0.00000  Uiso   1.00
Cu924  Cu    0.25000   0.50000   0.78645   0.00000  Uiso   1.00
F925   F     0.00000   0.67281   0.71418   0.00000  Uiso   1.00
F926   F     0.06744   0.87147   0.90704   0.00000  Uiso   1.00
F927   F     0.12046   0.81646   0.75972   0.00000  Uiso   1.00
F928   F     0.37953   0.68355   0.90694   0.00000  Uiso   1.00
F929   F     0.12047   0.68355   0.90693   0.00000  Uiso   1.00
F930   F     0.37954   0.81645   0.75973   0.00000  Uiso   1.00
F931   F     0.43257   0.87148   0.90703   0.00000  Uiso   1.00
F932   F     0.06742   0.62852   0.75964   0.00000  Uiso   1.00
F933   F     0.18256   0.87853   0.75963   0.00000  Uiso   1.00
F934   F     0.31743   0.62148   0.90703   0.00000  Uiso   1.00
F935   F     0.37047   0.56645   0.75973   0.00000  Uiso   1.00
F936   F    -0.00000   0.82719   0.95249   0.00000  Uiso   1.00
F937   F     0.12954   0.93354   0.90695   0.00000  Uiso   1.00
F938   F     0.37046   0.93355   0.90694   0.00000  Uiso   1.00
F939   F     0.12953   0.56645   0.75973   0.00000  Uiso   1.00
F940   F     0.18258   0.62148   0.90703   0.00000  Uiso   1.00
F941   F     0.31743   0.87852   0.75963   0.00000  Uiso   1.00
F942   F    -0.00000   0.82723   0.71501   0.00000  Uiso   1.00
F943   F     0.00000   0.67277   0.95166   0.00000  Uiso   1.00
F944   F     0.25000   0.92281   0.71418   0.00000  Uiso   1.00
F945   F     0.25000   0.57719   0.95249   0.00000  Uiso   1.00
F946   F     0.25000   0.57723   0.71501   0.00000  Uiso   1.00
F947   F     0.25000   0.92277   0.95166   0.00000  Uiso   1.00
F948   F     0.43257   0.62852   0.75964   0.00000  Uiso   1.00
N949   N     0.00000   0.75000   0.95069   0.00000  Uiso   1.00
N950   N     0.00000   0.75000   0.71598   0.00000  Uiso   1.00
N951   N     0.25000   0.50000   0.95069   0.00000  Uiso   1.00
N952   N     0.25000   0.50000   0.71598   0.00000  Uiso   1.00
O953   O     0.04509   0.70491   0.87291   0.00000  Uiso   1.00
O954   O     0.20492   0.54509   0.79375   0.00000  Uiso   1.00
O955   O     0.20492   0.54509   0.87291   0.00000  Uiso   1.00
O956   O     0.29509   0.95491   0.79375   0.00000  Uiso   1.00
O957   O     0.20492   0.95491   0.79375   0.00000  Uiso   1.00
O958   O     0.29509   0.54509   0.87291   0.00000  Uiso   1.00
O959   O     0.29509   0.54509   0.79375   0.00000  Uiso   1.00
O960   O     0.20492   0.95491   0.87291   0.00000  Uiso   1.00
O961   O     0.45492   0.79509   0.79375   0.00000  Uiso   1.00
O962   O     0.45492   0.79509   0.87291   0.00000  Uiso   1.00
O963   O     0.04509   0.70491   0.79375   0.00000  Uiso   1.00
O964   O     0.45492   0.70491   0.79375   0.00000  Uiso   1.00
O965   O     0.04509   0.79509   0.87291   0.00000  Uiso   1.00
O966   O     0.04509   0.79509   0.79375   0.00000  Uiso   1.00
O967   O     0.45492   0.70491   0.87291   0.00000  Uiso   1.00
O968   O     0.29509   0.95491   0.87291   0.00000  Uiso   1.00
C969   C     0.55942   0.69052   0.83328   0.00000  Uiso   1.00
C970   C     0.50000   0.78848   0.97544   0.00000  Uiso   1.00
C971   C     0.50000   0.78849   0.69163   0.00000  Uiso   1.00
C972   C     0.50000   0.71151   0.97503   0.00000  Uiso   1.00
C973   C     0.75000   0.96152   0.69123   0.00000  Uiso   1.00
C974   C     0.75000   0.53848   0.97544   0.00000  Uiso   1.00
C975   C     0.75000   0.53849   0.69163   0.00000  Uiso   1.00
C976   C     0.75000   0.96151   0.97503   0.00000  Uiso   1.00
C977   C     0.90401   0.62745   0.79576   0.00000  Uiso   1.00
C978   C     0.59599   0.87254   0.87091   0.00000  Uiso   1.00
C979   C     0.62207   0.84550   0.79583   0.00000  Uiso   1.00
C980   C     0.94058   0.80948   0.83338   0.00000  Uiso   1.00
C981   C     0.87792   0.65451   0.87084   0.00000  Uiso   1.00
C982   C     0.62208   0.65451   0.87083   0.00000  Uiso   1.00
C983   C     0.87793   0.84549   0.79583   0.00000  Uiso   1.00
C984   C     0.90401   0.87255   0.87091   0.00000  Uiso   1.00
C985   C     0.59599   0.62745   0.79576   0.00000  Uiso   1.00
C986   C     0.65401   0.87746   0.79575   0.00000  Uiso   1.00
C987   C     0.84599   0.62255   0.87091   0.00000  Uiso   1.00
C988   C     0.87208   0.59549   0.79583   0.00000  Uiso   1.00
C989   C     0.62793   0.90450   0.87084   0.00000  Uiso   1.00
C990   C     0.87208   0.90451   0.87084   0.00000  Uiso   1.00
C991   C     0.94058   0.69052   0.83328   0.00000  Uiso   1.00
C992   C     0.62792   0.59549   0.79583   0.00000  Uiso   1.00
C993   C     0.65401   0.62255   0.87091   0.00000  Uiso   1.00
C994   C     0.84599   0.87745   0.79576   0.00000  Uiso   1.00
C995   C     0.59292   0.84290   0.83342   0.00000  Uiso   1.00
C996   C     0.90708   0.65710   0.83325   0.00000  Uiso   1.00
C997   C     0.90708   0.84290   0.83342   0.00000  Uiso   1.00
C998   C     0.59292   0.65710   0.83325   0.00000  Uiso   1.00
C999   C     0.84292   0.59290   0.83342   0.00000  Uiso   1.00
C1000  C     0.65708   0.90710   0.83325   0.00000  Uiso   1.00
C1001  C     0.65708   0.59290   0.83342   0.00000  Uiso   1.00
C1002  C     0.55942   0.80948   0.83338   0.00000  Uiso   1.00
C1003  C     0.84292   0.90710   0.83325   0.00000  Uiso   1.00
C1004  C     0.80942   0.94052   0.83328   0.00000  Uiso   1.00
C1005  C     0.69058   0.55948   0.83338   0.00000  Uiso   1.00
C1006  C     0.69058   0.94052   0.83328   0.00000  Uiso   1.00
C1007  C     0.80942   0.55948   0.83338   0.00000  Uiso   1.00
C1008  C     0.50000   0.71152   0.69123   0.00000  Uiso   1.00
Cu1009 Cu    0.50000   0.75000   0.88022   0.00000  Uiso   1.00
Cu1010 Cu    0.50000   0.75000   0.78645   0.00000  Uiso   1.00
Cu1011 Cu    0.75000   0.50000   0.88022   0.00000  Uiso   1.00
Cu1012 Cu    0.75000   0.50000   0.78645   0.00000  Uiso   1.00
F1013  F     0.50000   0.67281   0.71418   0.00000  Uiso   1.00
F1014  F     0.56744   0.87147   0.90704   0.00000  Uiso   1.00
F1015  F     0.62046   0.81646   0.75972   0.00000  Uiso   1.00
F1016  F     0.87953   0.68355   0.90694   0.00000  Uiso   1.00
F1017  F     0.62047   0.68355   0.90693   0.00000  Uiso   1.00
F1018  F     0.87954   0.81645   0.75973   0.00000  Uiso   1.00
F1019  F     0.93257   0.87148   0.90703   0.00000  Uiso   1.00
F1020  F     0.56742   0.62852   0.75964   0.00000  Uiso   1.00
F1021  F     0.68256   0.87853   0.75963   0.00000  Uiso   1.00
F1022  F     0.81743   0.62148   0.90703   0.00000  Uiso   1.00
F1023  F     0.87047   0.56645   0.75973   0.00000  Uiso   1.00
F1024  F     0.50000   0.82719   0.95249   0.00000  Uiso   1.00
F1025  F     0.62954   0.93354   0.90695   0.00000  Uiso   1.00
F1026  F     0.87046   0.93355   0.90694   0.00000  Uiso   1.00
F1027  F     0.62953   0.56645   0.75973   0.00000  Uiso   1.00
F1028  F     0.68258   0.62148   0.90703   0.00000  Uiso   1.00
F1029  F     0.81743   0.87852   0.75963   0.00000  Uiso   1.00
F1030  F     0.50000   0.82723   0.71501   0.00000  Uiso   1.00
F1031  F     0.50000   0.67277   0.95166   0.00000  Uiso   1.00
F1032  F     0.75000   0.92281   0.71418   0.00000  Uiso   1.00
F1033  F     0.75000   0.57719   0.95249   0.00000  Uiso   1.00
F1034  F     0.75000   0.57723   0.71501   0.00000  Uiso   1.00
F1035  F     0.75000   0.92277   0.95166   0.00000  Uiso   1.00
F1036  F     0.93257   0.62852   0.75964   0.00000  Uiso   1.00
N1037  N     0.50000   0.75000   0.95069   0.00000  Uiso   1.00
N1038  N     0.50000   0.75000   0.71598   0.00000  Uiso   1.00
N1039  N     0.75000   0.50000   0.95069   0.00000  Uiso   1.00
N1040  N     0.75000   0.50000   0.71598   0.00000  Uiso   1.00
O1041  O     0.54509   0.70491   0.87291   0.00000  Uiso   1.00
O1042  O     0.70492   0.54509   0.79375   0.00000  Uiso   1.00
O1043  O     0.70492   0.54509   0.87291   0.00000  Uiso   1.00
O1044  O     0.79509   0.95491   0.79375   0.00000  Uiso   1.00
O1045  O     0.70492   0.95491   0.79375   0.00000  Uiso   1.00
O1046  O     0.79509   0.54509   0.87291   0.00000  Uiso   1.00
O1047  O     0.79509   0.54509   0.79375   0.00000  Uiso   1.00
O1048  O     0.70492   0.95491   0.87291   0.00000  Uiso   1.00
O1049  O     0.95492   0.79509   0.79375   0.00000  Uiso   1.00
O1050  O     0.95492   0.79509   0.87291   0.00000  Uiso   1.00
O1051  O     0.54509   0.70491   0.79375   0.00000  Uiso   1.00
O1052  O     0.95492   0.70491   0.79375   0.00000  Uiso   1.00
O1053  O     0.54509   0.79509   0.87291   0.00000  Uiso   1.00
O1054  O     0.54509   0.79509   0.79375   0.00000  Uiso   1.00
O1055  O     0.95492   0.70491   0.87291   0.00000  Uiso   1.00
O1056  O     0.79509   0.95491   0.87291   0.00000  Uiso   1.00
loop_
_geom_bond_atom_site_label_1
_geom_bond_atom_site_label_2
_geom_bond_distance
_geom_bond_site_symmetry_2
_ccdc_geom_bond_type
C1     O83     1.292   .     A
C1     O73     1.292   .     A
C1     C30     1.450   .     S
C2     F56     1.353   .     S
C2     C355    1.417   .     S
C2     N69     1.368   .     S
C3     N70     1.368   .     A
C3     F62     1.355   .     S
C3     C706    1.417   1_554 S
C4     F63     1.355   .     S
C4     N69     1.368   .     A
C4     C392    1.417   .     S
C5     F64     1.353   .     S
C5     C712    1.417   1_554 S
C5     N248    1.368   .     S
C6     F65     1.353   .     S
C6     N71     1.368   .     A
C6     C359    1.417   .     S
C7     N72     1.368   .     A
C7     F66     1.355   .     S
C7     C710    1.417   1_554 S
C8     F67     1.355   .     S
C8     C357    1.417   .     S
C8     N247    1.368   .     S
C9     C20     1.385   .     A
C9     F68     1.357   .     S
C9     C28     1.403   .     A
C10    C27     1.403   .     A
C10    F46     1.357   .     S
C10    C21     1.385   .     A
C11    C18     1.385   .     A
C11    F47     1.359   .     S
C11    C27     1.403   .     A
C12    C29     1.450   .     S
C12    O82     1.292   .     A
C12    O81     1.292   .     A
C13    C28     1.403   .     A
C13    C19     1.385   .     A
C13    F48     1.359   .     S
C14    F49     1.359   .     S
C14    C30     1.403   .     A
C14    C25     1.385   .     A
C15    F50     1.359   .     S
C15    C29     1.403   .     A
C15    C26     1.385   .     A
C16    F51     1.357   .     S
C16    C22     1.385   .     A
C16    C29     1.403   .     A
C17    C30     1.403   .     A
C17    F52     1.357   .     S
C17    C24     1.385   .     A
C18    F53     1.357   .     S
C18    C32     1.403   .     A
C19    C31     1.403   .     A
C19    F54     1.357   .     S
C20    F55     1.359   .     S
C20    C31     1.403   .     A
C21    C32     1.403   .     A
C21    F57     1.359   .     S
C22    C35     1.403   .     A
C22    F58     1.359   .     S
C23    O87     1.292   .     A
C23    O84     1.292   .     A
C23    C28     1.450   .     S
C24    C33     1.403   .     A
C24    F59     1.359   .     S
C25    F60     1.357   .     S
C25    C33     1.403   .     A
C26    F61     1.357   .     S
C26    C35     1.403   .     A
C27    C34     1.450   .     S
C31    C39     1.450   .     S
C32    C38     1.450   .     S
C33    C37     1.450   .     S
C34    O86     1.292   .     A
C34    O85     1.292   .     A
C35    C36     1.450   .     S
C36    O88     1.292   .     A
C36    O76     1.292   .     A
C37    O74     1.292   .     A
C37    O75     1.292   .     A
C38    O77     1.292   .     A
C38    O80     1.292   .     A
C39    O78     1.292   .     A
C39    O79     1.292   .     A
C40    F45     1.353   .     S
C40    C708    1.417   1_554 S
C40    N70     1.368   .     S
Cu41   N69     2.016   .     S
Cu41   O85     1.966   .     S
Cu41   O73     1.965   .     S
Cu41   Cu42    2.682   .     S
Cu41   O170    1.966   1_455 S
Cu41   O175    1.965   1_455 S
Cu42   N70     2.016   .     S
Cu42   O169    1.965   1_455 S
Cu42   O172    1.966   1_455 S
Cu42   O83     1.966   .     S
Cu42   O86     1.965   .     S
Cu43   O78     1.966   .     S
Cu43   N71     2.016   .     S
Cu43   O75     1.966   .     S
Cu43   Cu44    2.682   .     S
Cu43   O256    1.965   1_545 S
Cu43   O264    1.965   1_545 S
Cu44   O74     1.965   .     S
Cu44   O79     1.965   .     S
Cu44   N72     2.016   .     S
Cu44   O252    1.966   1_545 S
Cu44   O253    1.966   1_545 S
N71    C184    1.368   1_545 S
N72    C181    1.368   1_545 S
O76    Cu220   1.966   .     S
O77    Cu220   1.966   .     S
O80    Cu219   1.965   .     S
O81    Cu130   1.965   .     S
O82    Cu129   1.966   .     S
O84    Cu130   1.966   .     S
O87    Cu129   1.965   .     S
O88    Cu219   1.965   .     S
C89    O171    1.292   .     A
C89    O161    1.292   .     A
C89    C118    1.450   .     S
C90    F144    1.353   .     S
C90    C443    1.417   .     S
C90    N157    1.368   .     S
C91    N158    1.368   .     A
C91    F150    1.355   .     S
C91    C794    1.417   1_554 S
C92    F151    1.355   .     S
C92    N157    1.368   .     A
C92    C480    1.417   .     S
C93    F152    1.353   .     S
C93    C800    1.417   1_554 S
C93    N336    1.368   .     S
C94    F153    1.353   .     S
C94    N159    1.368   .     A
C94    C447    1.417   .     S
C95    N160    1.368   .     A
C95    F154    1.355   .     S
C95    C798    1.417   1_554 S
C96    F155    1.355   .     S
C96    C445    1.417   .     S
C96    N335    1.368   .     S
C97    C108    1.385   .     A
C97    F156    1.357   .     S
C97    C116    1.403   .     A
C98    C115    1.403   .     A
C98    F134    1.357   .     S
C98    C109    1.385   .     A
C99    C106    1.385   .     A
C99    F135    1.359   .     S
C99    C115    1.403   .     A
C100   C117    1.450   .     S
C100   O170    1.292   .     A
C100   O169    1.292   .     A
C101   C116    1.403   .     A
C101   C107    1.385   .     A
C101   F136    1.359   .     S
C102   F137    1.359   .     S
C102   C118    1.403   .     A
C102   C113    1.385   .     A
C103   F138    1.359   .     S
C103   C117    1.403   .     A
C103   C114    1.385   .     A
C104   F139    1.357   .     S
C104   C110    1.385   .     A
C104   C117    1.403   .     A
C105   C118    1.403   .     A
C105   F140    1.357   .     S
C105   C112    1.385   .     A
C106   F141    1.357   .     S
C106   C120    1.403   .     A
C107   C119    1.403   .     A
C107   F142    1.357   .     S
C108   F143    1.359   .     S
C108   C119    1.403   .     A
C109   C120    1.403   .     A
C109   F145    1.359   .     S
C110   C123    1.403   .     A
C110   F146    1.359   .     S
C111   O175    1.292   .     A
C111   O172    1.292   .     A
C111   C116    1.450   .     S
C112   C121    1.403   .     A
C112   F147    1.359   .     S
C113   F148    1.357   .     S
C113   C121    1.403   .     A
C114   F149    1.357   .     S
C114   C123    1.403   .     A
C115   C122    1.450   .     S
C119   C127    1.450   .     S
C120   C126    1.450   .     S
C121   C125    1.450   .     S
C122   O174    1.292   .     A
C122   O173    1.292   .     A
C123   C124    1.450   .     S
C124   O176    1.292   .     A
C124   O164    1.292   .     A
C125   O162    1.292   .     A
C125   O163    1.292   .     A
C126   O165    1.292   .     A
C126   O168    1.292   .     A
C127   O166    1.292   .     A
C127   O167    1.292   .     A
C128   F133    1.353   .     S
C128   C796    1.417   1_554 S
C128   N158    1.368   .     S
Cu129  N157    2.016   .     S
Cu129  O173    1.966   .     S
Cu129  O161    1.965   .     S
Cu129  Cu130   2.682   .     S
Cu130  N158    2.016   .     S
Cu130  O171    1.966   .     S
Cu130  O174    1.965   .     S
Cu131  O166    1.966   .     S
Cu131  N159    2.016   .     S
Cu131  O163    1.966   .     S
Cu131  Cu132   2.682   .     S
Cu131  O344    1.965   1_545 S
Cu131  O352    1.965   1_545 S
Cu132  O162    1.965   .     S
Cu132  O167    1.965   .     S
Cu132  N160    2.016   .     S
Cu132  O340    1.966   1_545 S
Cu132  O341    1.966   1_545 S
N159   C272    1.368   1_545 S
N160   C269    1.368   1_545 S
O164   Cu308   1.966   .     S
O165   Cu308   1.966   .     S
O168   Cu307   1.965   .     S
O169   Cu42    1.965   1_655 S
O170   Cu41    1.966   1_655 S
O172   Cu42    1.966   1_655 S
O175   Cu41    1.965   1_655 S
O176   Cu307   1.965   .     S
C177   O259    1.292   .     A
C177   O249    1.292   .     A
C177   C206    1.450   .     S
C178   F232    1.353   .     S
C178   C531    1.417   .     S
C178   N245    1.368   .     S
C179   N246    1.368   .     A
C179   F238    1.355   .     S
C179   C882    1.417   1_554 S
C180   F239    1.355   .     S
C180   N245    1.368   .     A
C180   C568    1.417   .     S
C181   F240    1.353   .     S
C181   C888    1.417   1_554 S
C181   N72     1.368   1_565 S
C182   F241    1.353   .     S
C182   N247    1.368   .     A
C182   C535    1.417   .     S
C183   N248    1.368   .     A
C183   F242    1.355   .     S
C183   C886    1.417   1_554 S
C184   F243    1.355   .     S
C184   C533    1.417   .     S
C184   N71     1.368   1_565 S
C185   C196    1.385   .     A
C185   F244    1.357   .     S
C185   C204    1.403   .     A
C186   C203    1.403   .     A
C186   F222    1.357   .     S
C186   C197    1.385   .     A
C187   C194    1.385   .     A
C187   F223    1.359   .     S
C187   C203    1.403   .     A
C188   C205    1.450   .     S
C188   O258    1.292   .     A
C188   O257    1.292   .     A
C189   C204    1.403   .     A
C189   C195    1.385   .     A
C189   F224    1.359   .     S
C190   F225    1.359   .     S
C190   C206    1.403   .     A
C190   C201    1.385   .     A
C191   F226    1.359   .     S
C191   C205    1.403   .     A
C191   C202    1.385   .     A
C192   F227    1.357   .     S
C192   C198    1.385   .     A
C192   C205    1.403   .     A
C193   C206    1.403   .     A
C193   F228    1.357   .     S
C193   C200    1.385   .     A
C194   F229    1.357   .     S
C194   C208    1.403   .     A
C195   C207    1.403   .     A
C195   F230    1.357   .     S
C196   F231    1.359   .     S
C196   C207    1.403   .     A
C197   C208    1.403   .     A
C197   F233    1.359   .     S
C198   C211    1.403   .     A
C198   F234    1.359   .     S
C199   O263    1.292   .     A
C199   O260    1.292   .     A
C199   C204    1.450   .     S
C200   C209    1.403   .     A
C200   F235    1.359   .     S
C201   F236    1.357   .     S
C201   C209    1.403   .     A
C202   F237    1.357   .     S
C202   C211    1.403   .     A
C203   C210    1.450   .     S
C207   C215    1.450   .     S
C208   C214    1.450   .     S
C209   C213    1.450   .     S
C210   O262    1.292   .     A
C210   O261    1.292   .     A
C211   C212    1.450   .     S
C212   O264    1.292   .     A
C212   O252    1.292   .     A
C213   O250    1.292   .     A
C213   O251    1.292   .     A
C214   O253    1.292   .     A
C214   O256    1.292   .     A
C215   O254    1.292   .     A
C215   O255    1.292   .     A
C216   F221    1.353   .     S
C216   C884    1.417   1_554 S
C216   N246    1.368   .     S
Cu217  N245    2.016   .     S
Cu217  O261    1.966   .     S
Cu217  O249    1.965   .     S
Cu217  Cu218   2.682   .     S
Cu217  O346    1.966   1_455 S
Cu217  O351    1.965   1_455 S
Cu218  N246    2.016   .     S
Cu218  O345    1.965   1_455 S
Cu218  O348    1.966   1_455 S
Cu218  O259    1.966   .     S
Cu218  O262    1.965   .     S
Cu219  O254    1.966   .     S
Cu219  N247    2.016   .     S
Cu219  O251    1.966   .     S
Cu219  Cu220   2.682   .     S
Cu220  O250    1.965   .     S
Cu220  O255    1.965   .     S
Cu220  N248    2.016   .     S
O252   Cu44    1.966   1_565 S
O253   Cu44    1.966   1_565 S
O256   Cu43    1.965   1_565 S
O257   Cu306   1.965   .     S
O258   Cu305   1.966   .     S
O260   Cu306   1.966   .     S
O263   Cu305   1.965   .     S
O264   Cu43    1.965   1_565 S
C265   O347    1.292   .     A
C265   O337    1.292   .     A
C265   C294    1.450   .     S
C266   F320    1.353   .     S
C266   C619    1.417   .     S
C266   N333    1.368   .     S
C267   N334    1.368   .     A
C267   F326    1.355   .     S
C267   C970    1.417   1_554 S
C268   F327    1.355   .     S
C268   N333    1.368   .     A
C268   C656    1.417   .     S
C269   F328    1.353   .     S
C269   C976    1.417   1_554 S
C269   N160    1.368   1_565 S
C270   F329    1.353   .     S
C270   N335    1.368   .     A
C270   C623    1.417   .     S
C271   N336    1.368   .     A
C271   F330    1.355   .     S
C271   C974    1.417   1_554 S
C272   F331    1.355   .     S
C272   C621    1.417   .     S
C272   N159    1.368   1_565 S
C273   C284    1.385   .     A
C273   F332    1.357   .     S
C273   C292    1.403   .     A
C274   C291    1.403   .     A
C274   F310    1.357   .     S
C274   C285    1.385   .     A
C275   C282    1.385   .     A
C275   F311    1.359   .     S
C275   C291    1.403   .     A
C276   C293    1.450   .     S
C276   O346    1.292   .     A
C276   O345    1.292   .     A
C277   C292    1.403   .     A
C277   C283    1.385   .     A
C277   F312    1.359   .     S
C278   F313    1.359   .     S
C278   C294    1.403   .     A
C278   C289    1.385   .     A
C279   F314    1.359   .     S
C279   C293    1.403   .     A
C279   C290    1.385   .     A
C280   F315    1.357   .     S
C280   C286    1.385   .     A
C280   C293    1.403   .     A
C281   C294    1.403   .     A
C281   F316    1.357   .     S
C281   C288    1.385   .     A
C282   F317    1.357   .     S
C282   C296    1.403   .     A
C283   C295    1.403   .     A
C283   F318    1.357   .     S
C284   F319    1.359   .     S
C284   C295    1.403   .     A
C285   C296    1.403   .     A
C285   F321    1.359   .     S
C286   C299    1.403   .     A
C286   F322    1.359   .     S
C287   O351    1.292   .     A
C287   O348    1.292   .     A
C287   C292    1.450   .     S
C288   C297    1.403   .     A
C288   F323    1.359   .     S
C289   F324    1.357   .     S
C289   C297    1.403   .     A
C290   F325    1.357   .     S
C290   C299    1.403   .     A
C291   C298    1.450   .     S
C295   C303    1.450   .     S
C296   C302    1.450   .     S
C297   C301    1.450   .     S
C298   O350    1.292   .     A
C298   O349    1.292   .     A
C299   C300    1.450   .     S
C300   O352    1.292   .     A
C300   O340    1.292   .     A
C301   O338    1.292   .     A
C301   O339    1.292   .     A
C302   O341    1.292   .     A
C302   O344    1.292   .     A
C303   O342    1.292   .     A
C303   O343    1.292   .     A
C304   F309    1.353   .     S
C304   C972    1.417   1_554 S
C304   N334    1.368   .     S
Cu305  N333    2.016   .     S
Cu305  O349    1.966   .     S
Cu305  O337    1.965   .     S
Cu305  Cu306   2.682   .     S
Cu306  N334    2.016   .     S
Cu306  O347    1.966   .     S
Cu306  O350    1.965   .     S
Cu307  O342    1.966   .     S
Cu307  N335    2.016   .     S
Cu307  O339    1.966   .     S
Cu307  Cu308   2.682   .     S
Cu308  O338    1.965   .     S
Cu308  O343    1.965   .     S
Cu308  N336    2.016   .     S
O340   Cu132   1.966   1_565 S
O341   Cu132   1.966   1_565 S
O344   Cu131   1.965   1_565 S
O345   Cu218   1.965   1_655 S
O346   Cu217   1.966   1_655 S
O348   Cu218   1.966   1_655 S
O351   Cu217   1.965   1_655 S
O352   Cu131   1.965   1_565 S
C353   O435    1.292   .     A
C353   O425    1.292   .     A
C353   C382    1.450   .     S
C354   F408    1.353   .     S
C354   C707    1.417   .     S
C354   N421    1.368   .     S
C355   N422    1.368   .     A
C355   F414    1.355   .     S
C356   F415    1.355   .     S
C356   N421    1.368   .     A
C356   C744    1.417   .     S
C357   F416    1.353   .     S
C357   N600    1.368   .     S
C358   F417    1.353   .     S
C358   N423    1.368   .     A
C358   C711    1.417   .     S
C359   N424    1.368   .     A
C359   F418    1.355   .     S
C360   F419    1.355   .     S
C360   C709    1.417   .     S
C360   N599    1.368   .     S
C361   C372    1.385   .     A
C361   F420    1.357   .     S
C361   C380    1.403   .     A
C362   C379    1.403   .     A
C362   F398    1.357   .     S
C362   C373    1.385   .     A
C363   C370    1.385   .     A
C363   F399    1.359   .     S
C363   C379    1.403   .     A
C364   C381    1.450   .     S
C364   O434    1.292   .     A
C364   O433    1.292   .     A
C365   C380    1.403   .     A
C365   C371    1.385   .     A
C365   F400    1.359   .     S
C366   F401    1.359   .     S
C366   C382    1.403   .     A
C366   C377    1.385   .     A
C367   F402    1.359   .     S
C367   C381    1.403   .     A
C367   C378    1.385   .     A
C368   F403    1.357   .     S
C368   C374    1.385   .     A
C368   C381    1.403   .     A
C369   C382    1.403   .     A
C369   F404    1.357   .     S
C369   C376    1.385   .     A
C370   F405    1.357   .     S
C370   C384    1.403   .     A
C371   C383    1.403   .     A
C371   F406    1.357   .     S
C372   F407    1.359   .     S
C372   C383    1.403   .     A
C373   C384    1.403   .     A
C373   F409    1.359   .     S
C374   C387    1.403   .     A
C374   F410    1.359   .     S
C375   O439    1.292   .     A
C375   O436    1.292   .     A
C375   C380    1.450   .     S
C376   C385    1.403   .     A
C376   F411    1.359   .     S
C377   F412    1.357   .     S
C377   C385    1.403   .     A
C378   F413    1.357   .     S
C378   C387    1.403   .     A
C379   C386    1.450   .     S
C383   C391    1.450   .     S
C384   C390    1.450   .     S
C385   C389    1.450   .     S
C386   O438    1.292   .     A
C386   O437    1.292   .     A
C387   C388    1.450   .     S
C388   O440    1.292   .     A
C388   O428    1.292   .     A
C389   O426    1.292   .     A
C389   O427    1.292   .     A
C390   O429    1.292   .     A
C390   O432    1.292   .     A
C391   O430    1.292   .     A
C391   O431    1.292   .     A
C392   F397    1.353   .     S
C392   N422    1.368   .     S
Cu393  N421    2.016   .     S
Cu393  O437    1.966   .     S
Cu393  O425    1.965   .     S
Cu393  Cu394   2.682   .     S
Cu393  O522    1.966   1_455 S
Cu393  O527    1.965   1_455 S
Cu394  N422    2.016   .     S
Cu394  O521    1.965   1_455 S
Cu394  O524    1.966   1_455 S
Cu394  O435    1.966   .     S
Cu394  O438    1.965   .     S
Cu395  O430    1.966   .     S
Cu395  N423    2.016   .     S
Cu395  O427    1.966   .     S
Cu395  Cu396   2.682   .     S
Cu395  O608    1.965   1_545 S
Cu395  O616    1.965   1_545 S
Cu396  O426    1.965   .     S
Cu396  O431    1.965   .     S
Cu396  N424    2.016   .     S
Cu396  O604    1.966   1_545 S
Cu396  O605    1.966   1_545 S
N423   C536    1.368   1_545 S
N424   C533    1.368   1_545 S
O428   Cu572   1.966   .     S
O429   Cu572   1.966   .     S
O432   Cu571   1.965   .     S
O433   Cu482   1.965   .     S
O434   Cu481   1.966   .     S
O436   Cu482   1.966   .     S
O439   Cu481   1.965   .     S
O440   Cu571   1.965   .     S
C441   O523    1.292   .     A
C441   O513    1.292   .     A
C441   C470    1.450   .     S
C442   F496    1.353   .     S
C442   C795    1.417   .     S
C442   N509    1.368   .     S
C443   N510    1.368   .     A
C443   F502    1.355   .     S
C444   F503    1.355   .     S
C444   N509    1.368   .     A
C444   C832    1.417   .     S
C445   F504    1.353   .     S
C445   N688    1.368   .     S
C446   F505    1.353   .     S
C446   N511    1.368   .     A
C446   C799    1.417   .     S
C447   N512    1.368   .     A
C447   F506    1.355   .     S
C448   F507    1.355   .     S
C448   C797    1.417   .     S
C448   N687    1.368   .     S
C449   C460    1.385   .     A
C449   F508    1.357   .     S
C449   C468    1.403   .     A
C450   C467    1.403   .     A
C450   F486    1.357   .     S
C450   C461    1.385   .     A
C451   C458    1.385   .     A
C451   F487    1.359   .     S
C451   C467    1.403   .     A
C452   C469    1.450   .     S
C452   O522    1.292   .     A
C452   O521    1.292   .     A
C453   C468    1.403   .     A
C453   C459    1.385   .     A
C453   F488    1.359   .     S
C454   F489    1.359   .     S
C454   C470    1.403   .     A
C454   C465    1.385   .     A
C455   F490    1.359   .     S
C455   C469    1.403   .     A
C455   C466    1.385   .     A
C456   F491    1.357   .     S
C456   C462    1.385   .     A
C456   C469    1.403   .     A
C457   C470    1.403   .     A
C457   F492    1.357   .     S
C457   C464    1.385   .     A
C458   F493    1.357   .     S
C458   C472    1.403   .     A
C459   C471    1.403   .     A
C459   F494    1.357   .     S
C460   F495    1.359   .     S
C460   C471    1.403   .     A
C461   C472    1.403   .     A
C461   F497    1.359   .     S
C462   C475    1.403   .     A
C462   F498    1.359   .     S
C463   O527    1.292   .     A
C463   O524    1.292   .     A
C463   C468    1.450   .     S
C464   C473    1.403   .     A
C464   F499    1.359   .     S
C465   F500    1.357   .     S
C465   C473    1.403   .     A
C466   F501    1.357   .     S
C466   C475    1.403   .     A
C467   C474    1.450   .     S
C471   C479    1.450   .     S
C472   C478    1.450   .     S
C473   C477    1.450   .     S
C474   O526    1.292   .     A
C474   O525    1.292   .     A
C475   C476    1.450   .     S
C476   O528    1.292   .     A
C476   O516    1.292   .     A
C477   O514    1.292   .     A
C477   O515    1.292   .     A
C478   O517    1.292   .     A
C478   O520    1.292   .     A
C479   O518    1.292   .     A
C479   O519    1.292   .     A
C480   F485    1.353   .     S
C480   N510    1.368   .     S
Cu481  N509    2.016   .     S
Cu481  O525    1.966   .     S
Cu481  O513    1.965   .     S
Cu481  Cu482   2.682   .     S
Cu482  N510    2.016   .     S
Cu482  O523    1.966   .     S
Cu482  O526    1.965   .     S
Cu483  O518    1.966   .     S
Cu483  N511    2.016   .     S
Cu483  O515    1.966   .     S
Cu483  Cu484   2.682   .     S
Cu483  O696    1.965   1_545 S
Cu483  O704    1.965   1_545 S
Cu484  O514    1.965   .     S
Cu484  O519    1.965   .     S
Cu484  N512    2.016   .     S
Cu484  O692    1.966   1_545 S
Cu484  O693    1.966   1_545 S
N511   C624    1.368   1_545 S
N512   C621    1.368   1_545 S
O516   Cu660   1.966   .     S
O517   Cu660   1.966   .     S
O520   Cu659   1.965   .     S
O521   Cu394   1.965   1_655 S
O522   Cu393   1.966   1_655 S
O524   Cu394   1.966   1_655 S
O527   Cu393   1.965   1_655 S
O528   Cu659   1.965   .     S
C529   O611    1.292   .     A
C529   O601    1.292   .     A
C529   C558    1.450   .     S
C530   F584    1.353   .     S
C530   C883    1.417   .     S
C530   N597    1.368   .     S
C531   N598    1.368   .     A
C531   F590    1.355   .     S
C532   F591    1.355   .     S
C532   N597    1.368   .     A
C532   C920    1.417   .     S
C533   F592    1.353   .     S
C533   N424    1.368   1_565 S
C534   F593    1.353   .     S
C534   N599    1.368   .     A
C534   C887    1.417   .     S
C535   N600    1.368   .     A
C535   F594    1.355   .     S
C536   F595    1.355   .     S
C536   C885    1.417   .     S
C536   N423    1.368   1_565 S
C537   C548    1.385   .     A
C537   F596    1.357   .     S
C537   C556    1.403   .     A
C538   C555    1.403   .     A
C538   F574    1.357   .     S
C538   C549    1.385   .     A
C539   C546    1.385   .     A
C539   F575    1.359   .     S
C539   C555    1.403   .     A
C540   C557    1.450   .     S
C540   O610    1.292   .     A
C540   O609    1.292   .     A
C541   C556    1.403   .     A
C541   C547    1.385   .     A
C541   F576    1.359   .     S
C542   F577    1.359   .     S
C542   C558    1.403   .     A
C542   C553    1.385   .     A
C543   F578    1.359   .     S
C543   C557    1.403   .     A
C543   C554    1.385   .     A
C544   F579    1.357   .     S
C544   C550    1.385   .     A
C544   C557    1.403   .     A
C545   C558    1.403   .     A
C545   F580    1.357   .     S
C545   C552    1.385   .     A
C546   F581    1.357   .     S
C546   C560    1.403   .     A
C547   C559    1.403   .     A
C547   F582    1.357   .     S
C548   F583    1.359   .     S
C548   C559    1.403   .     A
C549   C560    1.403   .     A
C549   F585    1.359   .     S
C550   C563    1.403   .     A
C550   F586    1.359   .     S
C551   O615    1.292   .     A
C551   O612    1.292   .     A
C551   C556    1.450   .     S
C552   C561    1.403   .     A
C552   F587    1.359   .     S
C553   F588    1.357   .     S
C553   C561    1.403   .     A
C554   F589    1.357   .     S
C554   C563    1.403   .     A
C555   C562    1.450   .     S
C559   C567    1.450   .     S
C560   C566    1.450   .     S
C561   C565    1.450   .     S
C562   O614    1.292   .     A
C562   O613    1.292   .     A
C563   C564    1.450   .     S
C564   O616    1.292   .     A
C564   O604    1.292   .     A
C565   O602    1.292   .     A
C565   O603    1.292   .     A
C566   O605    1.292   .     A
C566   O608    1.292   .     A
C567   O606    1.292   .     A
C567   O607    1.292   .     A
C568   F573    1.353   .     S
C568   N598    1.368   .     S
Cu569  N597    2.016   .     S
Cu569  O613    1.966   .     S
Cu569  O601    1.965   .     S
Cu569  Cu570   2.682   .     S
Cu569  O698    1.966   1_455 S
Cu569  O703    1.965   1_455 S
Cu570  N598    2.016   .     S
Cu570  O697    1.965   1_455 S
Cu570  O700    1.966   1_455 S
Cu570  O611    1.966   .     S
Cu570  O614    1.965   .     S
Cu571  O606    1.966   .     S
Cu571  N599    2.016   .     S
Cu571  O603    1.966   .     S
Cu571  Cu572   2.682   .     S
Cu572  O602    1.965   .     S
Cu572  O607    1.965   .     S
Cu572  N600    2.016   .     S
O604   Cu396   1.966   1_565 S
O605   Cu396   1.966   1_565 S
O608   Cu395   1.965   1_565 S
O609   Cu658   1.965   .     S
O610   Cu657   1.966   .     S
O612   Cu658   1.966   .     S
O615   Cu657   1.965   .     S
O616   Cu395   1.965   1_565 S
C617   O699    1.292   .     A
C617   O689    1.292   .     A
C617   C646    1.450   .     S
C618   F672    1.353   .     S
C618   C971    1.417   .     S
C618   N685    1.368   .     S
C619   N686    1.368   .     A
C619   F678    1.355   .     S
C620   F679    1.355   .     S
C620   N685    1.368   .     A
C620   C1008   1.417   .     S
C621   F680    1.353   .     S
C621   N512    1.368   1_565 S
C622   F681    1.353   .     S
C622   N687    1.368   .     A
C622   C975    1.417   .     S
C623   N688    1.368   .     A
C623   F682    1.355   .     S
C624   F683    1.355   .     S
C624   C973    1.417   .     S
C624   N511    1.368   1_565 S
C625   C636    1.385   .     A
C625   F684    1.357   .     S
C625   C644    1.403   .     A
C626   C643    1.403   .     A
C626   F662    1.357   .     S
C626   C637    1.385   .     A
C627   C634    1.385   .     A
C627   F663    1.359   .     S
C627   C643    1.403   .     A
C628   C645    1.450   .     S
C628   O698    1.292   .     A
C628   O697    1.292   .     A
C629   C644    1.403   .     A
C629   C635    1.385   .     A
C629   F664    1.359   .     S
C630   F665    1.359   .     S
C630   C646    1.403   .     A
C630   C641    1.385   .     A
C631   F666    1.359   .     S
C631   C645    1.403   .     A
C631   C642    1.385   .     A
C632   F667    1.357   .     S
C632   C638    1.385   .     A
C632   C645    1.403   .     A
C633   C646    1.403   .     A
C633   F668    1.357   .     S
C633   C640    1.385   .     A
C634   F669    1.357   .     S
C634   C648    1.403   .     A
C635   C647    1.403   .     A
C635   F670    1.357   .     S
C636   F671    1.359   .     S
C636   C647    1.403   .     A
C637   C648    1.403   .     A
C637   F673    1.359   .     S
C638   C651    1.403   .     A
C638   F674    1.359   .     S
C639   O703    1.292   .     A
C639   O700    1.292   .     A
C639   C644    1.450   .     S
C640   C649    1.403   .     A
C640   F675    1.359   .     S
C641   F676    1.357   .     S
C641   C649    1.403   .     A
C642   F677    1.357   .     S
C642   C651    1.403   .     A
C643   C650    1.450   .     S
C647   C655    1.450   .     S
C648   C654    1.450   .     S
C649   C653    1.450   .     S
C650   O702    1.292   .     A
C650   O701    1.292   .     A
C651   C652    1.450   .     S
C652   O704    1.292   .     A
C652   O692    1.292   .     A
C653   O690    1.292   .     A
C653   O691    1.292   .     A
C654   O693    1.292   .     A
C654   O696    1.292   .     A
C655   O694    1.292   .     A
C655   O695    1.292   .     A
C656   F661    1.353   .     S
C656   N686    1.368   .     S
Cu657  N685    2.016   .     S
Cu657  O701    1.966   .     S
Cu657  O689    1.965   .     S
Cu657  Cu658   2.682   .     S
Cu658  N686    2.016   .     S
Cu658  O699    1.966   .     S
Cu658  O702    1.965   .     S
Cu659  O694    1.966   .     S
Cu659  N687    2.016   .     S
Cu659  O691    1.966   .     S
Cu659  Cu660   2.682   .     S
Cu660  O690    1.965   .     S
Cu660  O695    1.965   .     S
Cu660  N688    2.016   .     S
O692   Cu484   1.966   1_565 S
O693   Cu484   1.966   1_565 S
O696   Cu483   1.965   1_565 S
O697   Cu570   1.965   1_655 S
O698   Cu569   1.966   1_655 S
O700   Cu570   1.966   1_655 S
O703   Cu569   1.965   1_655 S
O704   Cu483   1.965   1_565 S
C705   O787    1.292   .     A
C705   O777    1.292   .     A
C705   C734    1.450   .     S
C706   F760    1.353   .     S
C706   C3      1.417   1_556 S
C706   N773    1.368   .     S
C707   N774    1.368   .     A
C707   F766    1.355   .     S
C708   F767    1.355   .     S
C708   N773    1.368   .     A
C708   C40     1.417   1_556 S
C709   F768    1.353   .     S
C709   N952    1.368   .     S
C710   F769    1.353   .     S
C710   N775    1.368   .     A
C710   C7      1.417   1_556 S
C711   N776    1.368   .     A
C711   F770    1.355   .     S
C712   F771    1.355   .     S
C712   C5      1.417   1_556 S
C712   N951    1.368   .     S
C713   C724    1.385   .     A
C713   F772    1.357   .     S
C713   C732    1.403   .     A
C714   C731    1.403   .     A
C714   F750    1.357   .     S
C714   C725    1.385   .     A
C715   C722    1.385   .     A
C715   F751    1.359   .     S
C715   C731    1.403   .     A
C716   C733    1.450   .     S
C716   O786    1.292   .     A
C716   O785    1.292   .     A
C717   C732    1.403   .     A
C717   C723    1.385   .     A
C717   F752    1.359   .     S
C718   F753    1.359   .     S
C718   C734    1.403   .     A
C718   C729    1.385   .     A
C719   F754    1.359   .     S
C719   C733    1.403   .     A
C719   C730    1.385   .     A
C720   F755    1.357   .     S
C720   C726    1.385   .     A
C720   C733    1.403   .     A
C721   C734    1.403   .     A
C721   F756    1.357   .     S
C721   C728    1.385   .     A
C722   F757    1.357   .     S
C722   C736    1.403   .     A
C723   C735    1.403   .     A
C723   F758    1.357   .     S
C724   F759    1.359   .     S
C724   C735    1.403   .     A
C725   C736    1.403   .     A
C725   F761    1.359   .     S
C726   C739    1.403   .     A
C726   F762    1.359   .     S
C727   O791    1.292   .     A
C727   O788    1.292   .     A
C727   C732    1.450   .     S
C728   C737    1.403   .     A
C728   F763    1.359   .     S
C729   F764    1.357   .     S
C729   C737    1.403   .     A
C730   F765    1.357   .     S
C730   C739    1.403   .     A
C731   C738    1.450   .     S
C735   C743    1.450   .     S
C736   C742    1.450   .     S
C737   C741    1.450   .     S
C738   O790    1.292   .     A
C738   O789    1.292   .     A
C739   C740    1.450   .     S
C740   O792    1.292   .     A
C740   O780    1.292   .     A
C741   O778    1.292   .     A
C741   O779    1.292   .     A
C742   O781    1.292   .     A
C742   O784    1.292   .     A
C743   O782    1.292   .     A
C743   O783    1.292   .     A
C744   F749    1.353   .     S
C744   N774    1.368   .     S
Cu745  N773    2.016   .     S
Cu745  O789    1.966   .     S
Cu745  O777    1.965   .     S
Cu745  Cu746   2.682   .     S
Cu745  O874    1.966   1_455 S
Cu745  O879    1.965   1_455 S
Cu746  N774    2.016   .     S
Cu746  O873    1.965   1_455 S
Cu746  O876    1.966   1_455 S
Cu746  O787    1.966   .     S
Cu746  O790    1.965   .     S
Cu747  O782    1.966   .     S
Cu747  N775    2.016   .     S
Cu747  O779    1.966   .     S
Cu747  Cu748   2.682   .     S
Cu747  O960    1.965   1_545 S
Cu747  O968    1.965   1_545 S
Cu748  O778    1.965   .     S
Cu748  O783    1.965   .     S
Cu748  N776    2.016   .     S
Cu748  O956    1.966   1_545 S
Cu748  O957    1.966   1_545 S
N775   C888    1.368   1_545 S
N776   C885    1.368   1_545 S
O780   Cu924   1.966   .     S
O781   Cu924   1.966   .     S
O784   Cu923   1.965   .     S
O785   Cu834   1.965   .     S
O786   Cu833   1.966   .     S
O788   Cu834   1.966   .     S
O791   Cu833   1.965   .     S
O792   Cu923   1.965   .     S
C793   O875    1.292   .     A
C793   O865    1.292   .     A
C793   C822    1.450   .     S
C794   F848    1.353   .     S
C794   C91     1.417   1_556 S
C794   N861    1.368   .     S
C795   N862    1.368   .     A
C795   F854    1.355   .     S
C796   F855    1.355   .     S
C796   N861    1.368   .     A
C796   C128    1.417   1_556 S
C797   F856    1.353   .     S
C797   N1040   1.368   .     S
C798   F857    1.353   .     S
C798   N863    1.368   .     A
C798   C95     1.417   1_556 S
C799   N864    1.368   .     A
C799   F858    1.355   .     S
C800   F859    1.355   .     S
C800   C93     1.417   1_556 S
C800   N1039   1.368   .     S
C801   C812    1.385   .     A
C801   F860    1.357   .     S
C801   C820    1.403   .     A
C802   C819    1.403   .     A
C802   F838    1.357   .     S
C802   C813    1.385   .     A
C803   C810    1.385   .     A
C803   F839    1.359   .     S
C803   C819    1.403   .     A
C804   C821    1.450   .     S
C804   O874    1.292   .     A
C804   O873    1.292   .     A
C805   C820    1.403   .     A
C805   C811    1.385   .     A
C805   F840    1.359   .     S
C806   F841    1.359   .     S
C806   C822    1.403   .     A
C806   C817    1.385   .     A
C807   F842    1.359   .     S
C807   C821    1.403   .     A
C807   C818    1.385   .     A
C808   F843    1.357   .     S
C808   C814    1.385   .     A
C808   C821    1.403   .     A
C809   C822    1.403   .     A
C809   F844    1.357   .     S
C809   C816    1.385   .     A
C810   F845    1.357   .     S
C810   C824    1.403   .     A
C811   C823    1.403   .     A
C811   F846    1.357   .     S
C812   F847    1.359   .     S
C812   C823    1.403   .     A
C813   C824    1.403   .     A
C813   F849    1.359   .     S
C814   C827    1.403   .     A
C814   F850    1.359   .     S
C815   O879    1.292   .     A
C815   O876    1.292   .     A
C815   C820    1.450   .     S
C816   C825    1.403   .     A
C816   F851    1.359   .     S
C817   F852    1.357   .     S
C817   C825    1.403   .     A
C818   F853    1.357   .     S
C818   C827    1.403   .     A
C819   C826    1.450   .     S
C823   C831    1.450   .     S
C824   C830    1.450   .     S
C825   C829    1.450   .     S
C826   O878    1.292   .     A
C826   O877    1.292   .     A
C827   C828    1.450   .     S
C828   O880    1.292   .     A
C828   O868    1.292   .     A
C829   O866    1.292   .     A
C829   O867    1.292   .     A
C830   O869    1.292   .     A
C830   O872    1.292   .     A
C831   O870    1.292   .     A
C831   O871    1.292   .     A
C832   F837    1.353   .     S
C832   N862    1.368   .     S
Cu833  N861    2.016   .     S
Cu833  O877    1.966   .     S
Cu833  O865    1.965   .     S
Cu833  Cu834   2.682   .     S
Cu834  N862    2.016   .     S
Cu834  O875    1.966   .     S
Cu834  O878    1.965   .     S
Cu835  O870    1.966   .     S
Cu835  N863    2.016   .     S
Cu835  O867    1.966   .     S
Cu835  Cu836   2.682   .     S
Cu835  O1048   1.965   1_545 S
Cu835  O1056   1.965   1_545 S
Cu836  O866    1.965   .     S
Cu836  O871    1.965   .     S
Cu836  N864    2.016   .     S
Cu836  O1044   1.966   1_545 S
Cu836  O1045   1.966   1_545 S
N863   C976    1.368   1_545 S
N864   C973    1.368   1_545 S
O868   Cu1012  1.966   .     S
O869   Cu1012  1.966   .     S
O872   Cu1011  1.965   .     S
O873   Cu746   1.965   1_655 S
O874   Cu745   1.966   1_655 S
O876   Cu746   1.966   1_655 S
O879   Cu745   1.965   1_655 S
O880   Cu1011  1.965   .     S
C881   O963    1.292   .     A
C881   O953    1.292   .     A
C881   C910    1.450   .     S
C882   F936    1.353   .     S
C882   C179    1.417   1_556 S
C882   N949    1.368   .     S
C883   N950    1.368   .     A
C883   F942    1.355   .     S
C884   F943    1.355   .     S
C884   N949    1.368   .     A
C884   C216    1.417   1_556 S
C885   F944    1.353   .     S
C885   N776    1.368   1_565 S
C886   F945    1.353   .     S
C886   N951    1.368   .     A
C886   C183    1.417   1_556 S
C887   N952    1.368   .     A
C887   F946    1.355   .     S
C888   F947    1.355   .     S
C888   C181    1.417   1_556 S
C888   N775    1.368   1_565 S
C889   C900    1.385   .     A
C889   F948    1.357   .     S
C889   C908    1.403   .     A
C890   C907    1.403   .     A
C890   F926    1.357   .     S
C890   C901    1.385   .     A
C891   C898    1.385   .     A
C891   F927    1.359   .     S
C891   C907    1.403   .     A
C892   C909    1.450   .     S
C892   O962    1.292   .     A
C892   O961    1.292   .     A
C893   C908    1.403   .     A
C893   C899    1.385   .     A
C893   F928    1.359   .     S
C894   F929    1.359   .     S
C894   C910    1.403   .     A
C894   C905    1.385   .     A
C895   F930    1.359   .     S
C895   C909    1.403   .     A
C895   C906    1.385   .     A
C896   F931    1.357   .     S
C896   C902    1.385   .     A
C896   C909    1.403   .     A
C897   C910    1.403   .     A
C897   F932    1.357   .     S
C897   C904    1.385   .     A
C898   F933    1.357   .     S
C898   C912    1.403   .     A
C899   C911    1.403   .     A
C899   F934    1.357   .     S
C900   F935    1.359   .     S
C900   C911    1.403   .     A
C901   C912    1.403   .     A
C901   F937    1.359   .     S
C902   C915    1.403   .     A
C902   F938    1.359   .     S
C903   O967    1.292   .     A
C903   O964    1.292   .     A
C903   C908    1.450   .     S
C904   C913    1.403   .     A
C904   F939    1.359   .     S
C905   F940    1.357   .     S
C905   C913    1.403   .     A
C906   F941    1.357   .     S
C906   C915    1.403   .     A
C907   C914    1.450   .     S
C911   C919    1.450   .     S
C912   C918    1.450   .     S
C913   C917    1.450   .     S
C914   O966    1.292   .     A
C914   O965    1.292   .     A
C915   C916    1.450   .     S
C916   O968    1.292   .     A
C916   O956    1.292   .     A
C917   O954    1.292   .     A
C917   O955    1.292   .     A
C918   O957    1.292   .     A
C918   O960    1.292   .     A
C919   O958    1.292   .     A
C919   O959    1.292   .     A
C920   F925    1.353   .     S
C920   N950    1.368   .     S
Cu921  N949    2.016   .     S
Cu921  O965    1.966   .     S
Cu921  O953    1.965   .     S
Cu921  Cu922   2.682   .     S
Cu921  O1050   1.966   1_455 S
Cu921  O1055   1.965   1_455 S
Cu922  N950    2.016   .     S
Cu922  O1049   1.965   1_455 S
Cu922  O1052   1.966   1_455 S
Cu922  O963    1.966   .     S
Cu922  O966    1.965   .     S
Cu923  O958    1.966   .     S
Cu923  N951    2.016   .     S
Cu923  O955    1.966   .     S
Cu923  Cu924   2.682   .     S
Cu924  O954    1.965   .     S
Cu924  O959    1.965   .     S
Cu924  N952    2.016   .     S
O956   Cu748   1.966   1_565 S
O957   Cu748   1.966   1_565 S
O960   Cu747   1.965   1_565 S
O961   Cu1010  1.965   .     S
O962   Cu1009  1.966   .     S
O964   Cu1010  1.966   .     S
O967   Cu1009  1.965   .     S
O968   Cu747   1.965   1_565 S
C969   O1051   1.292   .     A
C969   O1041   1.292   .     A
C969   C998    1.450   .     S
C970   F1024   1.353   .     S
C970   C267    1.417   1_556 S
C970   N1037   1.368   .     S
C971   N1038   1.368   .     A
C971   F1030   1.355   .     S
C972   F1031   1.355   .     S
C972   N1037   1.368   .     A
C972   C304    1.417   1_556 S
C973   F1032   1.353   .     S
C973   N864    1.368   1_565 S
C974   F1033   1.353   .     S
C974   N1039   1.368   .     A
C974   C271    1.417   1_556 S
C975   N1040   1.368   .     A
C975   F1034   1.355   .     S
C976   F1035   1.355   .     S
C976   C269    1.417   1_556 S
C976   N863    1.368   1_565 S
C977   C988    1.385   .     A
C977   F1036   1.357   .     S
C977   C996    1.403   .     A
C978   C995    1.403   .     A
C978   F1014   1.357   .     S
C978   C989    1.385   .     A
C979   C986    1.385   .     A
C979   F1015   1.359   .     S
C979   C995    1.403   .     A
C980   C997    1.450   .     S
C980   O1050   1.292   .     A
C980   O1049   1.292   .     A
C981   C996    1.403   .     A
C981   C987    1.385   .     A
C981   F1016   1.359   .     S
C982   F1017   1.359   .     S
C982   C998    1.403   .     A
C982   C993    1.385   .     A
C983   F1018   1.359   .     S
C983   C997    1.403   .     A
C983   C994    1.385   .     A
C984   F1019   1.357   .     S
C984   C990    1.385   .     A
C984   C997    1.403   .     A
C985   C998    1.403   .     A
C985   F1020   1.357   .     S
C985   C992    1.385   .     A
C986   F1021   1.357   .     S
C986   C1000   1.403   .     A
C987   C999    1.403   .     A
C987   F1022   1.357   .     S
C988   F1023   1.359   .     S
C988   C999    1.403   .     A
C989   C1000   1.403   .     A
C989   F1025   1.359   .     S
C990   C1003   1.403   .     A
C990   F1026   1.359   .     S
C991   O1055   1.292   .     A
C991   O1052   1.292   .     A
C991   C996    1.450   .     S
C992   C1001   1.403   .     A
C992   F1027   1.359   .     S
C993   F1028   1.357   .     S
C993   C1001   1.403   .     A
C994   F1029   1.357   .     S
C994   C1003   1.403   .     A
C995   C1002   1.450   .     S
C999   C1007   1.450   .     S
C1000  C1006   1.450   .     S
C1001  C1005   1.450   .     S
C1002  O1054   1.292   .     A
C1002  O1053   1.292   .     A
C1003  C1004   1.450   .     S
C1004  O1056   1.292   .     A
C1004  O1044   1.292   .     A
C1005  O1042   1.292   .     A
C1005  O1043   1.292   .     A
C1006  O1045   1.292   .     A
C1006  O1048   1.292   .     A
C1007  O1046   1.292   .     A
C1007  O1047   1.292   .     A
C1008  F1013   1.353   .     S
C1008  N1038   1.368   .     S
Cu1009 N1037   2.016   .     S
Cu1009 O1053   1.966   .     S
Cu1009 O1041   1.965   .     S
Cu1009 Cu1010  2.682   .     S
Cu1010 N1038   2.016   .     S
Cu1010 O1051   1.966   .     S
Cu1010 O1054   1.965   .     S
Cu1011 O1046   1.966   .     S
Cu1011 N1039   2.016   .     S
Cu1011 O1043   1.966   .     S
Cu1011 Cu1012  2.682   .     S
Cu1012 O1042   1.965   .     S
Cu1012 O1047   1.965   .     S
Cu1012 N1040   2.016   .     S
O1044  Cu836   1.966   1_565 S
O1045  Cu836   1.966   1_565 S
O1048  Cu835   1.965   1_565 S
O1049  Cu922   1.965   1_655 S
O1050  Cu921   1.966   1_655 S
O1052  Cu922   1.966   1_655 S
O1055  Cu921   1.965   1_655 S
O1056  Cu835   1.965   1_565 S
