data_str_m2_o2_o10_pcu_sym.89
_audit_creation_date              2020-01-03
_audit_creation_method            'Materials Studio'
_symmetry_space_group_name_H-M    'P1'
_symmetry_Int_Tables_number       1
_symmetry_cell_setting            triclinic
loop_
_symmetry_equiv_pos_as_xyz
  x,y,z
_cell_length_a                    26.3903
_cell_length_b                    30.1926
_cell_length_c                    27.6506
_cell_angle_alpha                 89.9797
_cell_angle_beta                  97.7894
_cell_angle_gamma                 89.9586
loop_
_atom_site_label
_atom_site_type_symbol
_atom_site_fract_x
_atom_site_fract_y
_atom_site_fract_z
_atom_site_U_iso_or_equiv
_atom_site_adp_type
_atom_site_occupancy
C1     C     0.16528   0.16493   0.24982   0.00000  Uiso   1.00
C2     C     0.20190   0.27717   0.45047   0.00000  Uiso   1.00
C3     C     0.16624   0.25051   0.02725   0.00000  Uiso   1.00
C4     C     0.16710   0.25049   0.47275   0.00000  Uiso   1.00
C5     C     0.06802   0.24892   0.23770   0.00000  Uiso   1.00
C6     C     0.26532   0.25104   0.26231   0.00000  Uiso   1.00
C7     C     0.01299   0.24397   0.23155   0.00000  Uiso   1.00
C8     C     0.32036   0.25594   0.26850   0.00000  Uiso   1.00
C9     C     0.13689   0.04622   0.27943   0.00000  Uiso   1.00
C10    C     0.19653   0.45372   0.28731   0.00000  Uiso   1.00
C11    C     0.13408   0.09229   0.27938   0.00000  Uiso   1.00
C12    C     0.16809   0.33507   0.25018   0.00000  Uiso   1.00
C13    C     0.19925   0.40765   0.28795   0.00000  Uiso   1.00
C14    C     0.16363   0.11660   0.24935   0.00000  Uiso   1.00
C15    C     0.16988   0.38341   0.25012   0.00000  Uiso   1.00
C16    C     0.19337   0.09418   0.21880   0.00000  Uiso   1.00
C17    C     0.14047   0.40591   0.21172   0.00000  Uiso   1.00
C18    C     0.19508   0.04816   0.21844   0.00000  Uiso   1.00
C19    C     0.13888   0.45193   0.21092   0.00000  Uiso   1.00
C20    C     0.16663   0.02416   0.24887   0.00000  Uiso   1.00
C21    C     0.16709   0.47586   0.24890   0.00000  Uiso   1.00
C22    C     0.19941   0.22246   0.05778   0.00000  Uiso   1.00
C23    C     0.13247   0.22385   0.44205   0.00000  Uiso   1.00
C24    C     0.19883   0.22277   0.10861   0.00000  Uiso   1.00
C25    C     0.13306   0.22414   0.39122   0.00000  Uiso   1.00
C26    C     0.13419   0.27744   0.10081   0.00000  Uiso   1.00
C27    C     0.20054   0.27608   0.39935   0.00000  Uiso   1.00
C28    C     0.13289   0.27859   0.04970   0.00000  Uiso   1.00
Cl29   Cl    0.23413   0.02155   0.18047   0.00000  Uiso   1.00
Cl30   Cl    0.10026   0.47865   0.16261   0.00000  Uiso   1.00
Cl31   Cl    0.24216   0.18661   0.03354   0.00000  Uiso   1.00
Cl32   Cl    0.08784   0.18982   0.46609   0.00000  Uiso   1.00
Cu33   Cu    0.16667   0.25000   0.29821   0.00000  Uiso   1.00
Cu34   Cu    0.16667   0.25001   0.20178   0.00000  Uiso   1.00
H35    H     0.11457   0.02743   0.30244   0.00000  Uiso   1.00
H36    H     0.32005   0.28498   0.33187   0.00000  Uiso   1.00
H37    H     0.09087   0.14119   0.29442   0.00000  Uiso   1.00
H38    H     0.24243   0.35876   0.31424   0.00000  Uiso   1.00
H39    H     0.10170   0.30570   0.48863   0.00000  Uiso   1.00
H40    H     0.23449   0.30299   0.01169   0.00000  Uiso   1.00
H41    H     0.21867   0.47246   0.31623   0.00000  Uiso   1.00
H42    H     0.21614   0.11253   0.19583   0.00000  Uiso   1.00
H43    H     0.11786   0.38762   0.18272   0.00000  Uiso   1.00
H44    H     0.22428   0.20108   0.13170   0.00000  Uiso   1.00
H45    H     0.10641   0.20358   0.36800   0.00000  Uiso   1.00
H46    H     0.10889   0.29886   0.11787   0.00000  Uiso   1.00
H47    H     0.22692   0.29646   0.38243   0.00000  Uiso   1.00
H48    H     0.01328   0.21497   0.16816   0.00000  Uiso   1.00
N49    N     0.16667   0.25001   0.12934   0.00000  Uiso   1.00
N50    N     0.16667   0.24999   0.37065   0.00000  Uiso   1.00
O51    O     0.16667   0.18573   0.29071   0.00000  Uiso   1.00
O52    O     0.01204   0.27498   0.31084   0.00000  Uiso   1.00
O53    O     0.10129   0.11174   0.30800   0.00000  Uiso   1.00
O54    O     0.23181   0.38812   0.32519   0.00000  Uiso   1.00
O55    O     0.09883   0.30757   0.02385   0.00000  Uiso   1.00
O56    O     0.23745   0.30473   0.47648   0.00000  Uiso   1.00
O57    O     0.16666   0.31428   0.20928   0.00000  Uiso   1.00
O58    O     0.16667   0.18573   0.20928   0.00000  Uiso   1.00
O59    O     0.16666   0.31427   0.29072   0.00000  Uiso   1.00
O60    O     0.09161   0.25000   0.28132   0.00000  Uiso   1.00
O61    O     0.24172   0.25001   0.21868   0.00000  Uiso   1.00
O62    O     0.09161   0.25000   0.19989   0.00000  Uiso   1.00
O63    O     0.24172   0.25000   0.30011   0.00000  Uiso   1.00
O64    O     0.32130   0.22487   0.18925   0.00000  Uiso   1.00
C65    C     0.49861   0.16493   0.24982   0.00000  Uiso   1.00
C66    C     0.53523   0.27717   0.45047   0.00000  Uiso   1.00
C67    C     0.49957   0.25051   0.02725   0.00000  Uiso   1.00
C68    C     0.50044   0.25049   0.47275   0.00000  Uiso   1.00
C69    C     0.40135   0.24892   0.23770   0.00000  Uiso   1.00
C70    C     0.59865   0.25104   0.26231   0.00000  Uiso   1.00
C71    C     0.34632   0.24397   0.23155   0.00000  Uiso   1.00
C72    C     0.65369   0.25594   0.26850   0.00000  Uiso   1.00
C73    C     0.47022   0.04622   0.27943   0.00000  Uiso   1.00
C74    C     0.52986   0.45372   0.28731   0.00000  Uiso   1.00
C75    C     0.46742   0.09229   0.27938   0.00000  Uiso   1.00
C76    C     0.50143   0.33507   0.25018   0.00000  Uiso   1.00
C77    C     0.53259   0.40765   0.28795   0.00000  Uiso   1.00
C78    C     0.49697   0.11660   0.24935   0.00000  Uiso   1.00
C79    C     0.50321   0.38341   0.25012   0.00000  Uiso   1.00
C80    C     0.52671   0.09418   0.21880   0.00000  Uiso   1.00
C81    C     0.47380   0.40591   0.21172   0.00000  Uiso   1.00
C82    C     0.52841   0.04816   0.21844   0.00000  Uiso   1.00
C83    C     0.47222   0.45193   0.21092   0.00000  Uiso   1.00
C84    C     0.49996   0.02416   0.24887   0.00000  Uiso   1.00
C85    C     0.50042   0.47586   0.24890   0.00000  Uiso   1.00
C86    C     0.53274   0.22246   0.05778   0.00000  Uiso   1.00
C87    C     0.46580   0.22385   0.44205   0.00000  Uiso   1.00
C88    C     0.53216   0.22277   0.10861   0.00000  Uiso   1.00
C89    C     0.46639   0.22414   0.39122   0.00000  Uiso   1.00
C90    C     0.46752   0.27744   0.10081   0.00000  Uiso   1.00
C91    C     0.53388   0.27608   0.39935   0.00000  Uiso   1.00
C92    C     0.46622   0.27859   0.04970   0.00000  Uiso   1.00
Cl93   Cl    0.56747   0.02155   0.18047   0.00000  Uiso   1.00
Cl94   Cl    0.43360   0.47865   0.16261   0.00000  Uiso   1.00
Cl95   Cl    0.57550   0.18661   0.03354   0.00000  Uiso   1.00
Cl96   Cl    0.42117   0.18982   0.46609   0.00000  Uiso   1.00
Cu97   Cu    0.50000   0.25000   0.29821   0.00000  Uiso   1.00
Cu98   Cu    0.50000   0.25001   0.20178   0.00000  Uiso   1.00
H99    H     0.44790   0.02743   0.30244   0.00000  Uiso   1.00
H100   H     0.65338   0.28498   0.33187   0.00000  Uiso   1.00
H101   H     0.42421   0.14119   0.29442   0.00000  Uiso   1.00
H102   H     0.57576   0.35876   0.31424   0.00000  Uiso   1.00
H103   H     0.43503   0.30570   0.48863   0.00000  Uiso   1.00
H104   H     0.56783   0.30299   0.01169   0.00000  Uiso   1.00
H105   H     0.55201   0.47246   0.31623   0.00000  Uiso   1.00
H106   H     0.54948   0.11253   0.19583   0.00000  Uiso   1.00
H107   H     0.45119   0.38762   0.18272   0.00000  Uiso   1.00
H108   H     0.55762   0.20108   0.13170   0.00000  Uiso   1.00
H109   H     0.43974   0.20358   0.36800   0.00000  Uiso   1.00
H110   H     0.44223   0.29886   0.11787   0.00000  Uiso   1.00
H111   H     0.56026   0.29646   0.38243   0.00000  Uiso   1.00
H112   H     0.34661   0.21497   0.16816   0.00000  Uiso   1.00
N113   N     0.50000   0.25001   0.12934   0.00000  Uiso   1.00
N114   N     0.50000   0.24999   0.37065   0.00000  Uiso   1.00
O115   O     0.50000   0.18573   0.29071   0.00000  Uiso   1.00
O116   O     0.34538   0.27498   0.31084   0.00000  Uiso   1.00
O117   O     0.43462   0.11174   0.30800   0.00000  Uiso   1.00
O118   O     0.56515   0.38812   0.32519   0.00000  Uiso   1.00
O119   O     0.43216   0.30757   0.02385   0.00000  Uiso   1.00
O120   O     0.57079   0.30473   0.47648   0.00000  Uiso   1.00
O121   O     0.50000   0.31428   0.20928   0.00000  Uiso   1.00
O122   O     0.50000   0.18573   0.20928   0.00000  Uiso   1.00
O123   O     0.50000   0.31427   0.29072   0.00000  Uiso   1.00
O124   O     0.42495   0.25000   0.28132   0.00000  Uiso   1.00
O125   O     0.57505   0.25001   0.21868   0.00000  Uiso   1.00
O126   O     0.42495   0.25000   0.19989   0.00000  Uiso   1.00
O127   O     0.57505   0.25000   0.30011   0.00000  Uiso   1.00
O128   O     0.65464   0.22487   0.18925   0.00000  Uiso   1.00
C129   C     0.83195   0.16493   0.24982   0.00000  Uiso   1.00
C130   C     0.86857   0.27717   0.45047   0.00000  Uiso   1.00
C131   C     0.83291   0.25051   0.02725   0.00000  Uiso   1.00
C132   C     0.83377   0.25049   0.47275   0.00000  Uiso   1.00
C133   C     0.73469   0.24892   0.23770   0.00000  Uiso   1.00
C134   C     0.93198   0.25104   0.26231   0.00000  Uiso   1.00
C135   C     0.67966   0.24397   0.23155   0.00000  Uiso   1.00
C136   C     0.98702   0.25594   0.26850   0.00000  Uiso   1.00
C137   C     0.80355   0.04622   0.27943   0.00000  Uiso   1.00
C138   C     0.86319   0.45372   0.28731   0.00000  Uiso   1.00
C139   C     0.80075   0.09229   0.27938   0.00000  Uiso   1.00
C140   C     0.83476   0.33507   0.25018   0.00000  Uiso   1.00
C141   C     0.86592   0.40765   0.28795   0.00000  Uiso   1.00
C142   C     0.83030   0.11660   0.24935   0.00000  Uiso   1.00
C143   C     0.83654   0.38341   0.25012   0.00000  Uiso   1.00
C144   C     0.86004   0.09418   0.21880   0.00000  Uiso   1.00
C145   C     0.80713   0.40591   0.21172   0.00000  Uiso   1.00
C146   C     0.86174   0.04816   0.21844   0.00000  Uiso   1.00
C147   C     0.80555   0.45193   0.21092   0.00000  Uiso   1.00
C148   C     0.83330   0.02416   0.24887   0.00000  Uiso   1.00
C149   C     0.83376   0.47586   0.24890   0.00000  Uiso   1.00
C150   C     0.86608   0.22246   0.05778   0.00000  Uiso   1.00
C151   C     0.79913   0.22385   0.44205   0.00000  Uiso   1.00
C152   C     0.86549   0.22277   0.10861   0.00000  Uiso   1.00
C153   C     0.79972   0.22414   0.39122   0.00000  Uiso   1.00
C154   C     0.80085   0.27744   0.10081   0.00000  Uiso   1.00
C155   C     0.86721   0.27608   0.39935   0.00000  Uiso   1.00
C156   C     0.79956   0.27859   0.04970   0.00000  Uiso   1.00
Cl157  Cl    0.90080   0.02155   0.18047   0.00000  Uiso   1.00
Cl158  Cl    0.76693   0.47865   0.16261   0.00000  Uiso   1.00
Cl159  Cl    0.90883   0.18661   0.03354   0.00000  Uiso   1.00
Cl160  Cl    0.75451   0.18982   0.46609   0.00000  Uiso   1.00
Cu161  Cu    0.83333   0.25000   0.29821   0.00000  Uiso   1.00
Cu162  Cu    0.83333   0.25001   0.20178   0.00000  Uiso   1.00
H163   H     0.78123   0.02743   0.30244   0.00000  Uiso   1.00
H164   H     0.98671   0.28498   0.33187   0.00000  Uiso   1.00
H165   H     0.75754   0.14119   0.29442   0.00000  Uiso   1.00
H166   H     0.90909   0.35876   0.31424   0.00000  Uiso   1.00
H167   H     0.76836   0.30570   0.48863   0.00000  Uiso   1.00
H168   H     0.90116   0.30299   0.01169   0.00000  Uiso   1.00
H169   H     0.88534   0.47246   0.31623   0.00000  Uiso   1.00
H170   H     0.88281   0.11253   0.19583   0.00000  Uiso   1.00
H171   H     0.78452   0.38762   0.18272   0.00000  Uiso   1.00
H172   H     0.89095   0.20108   0.13170   0.00000  Uiso   1.00
H173   H     0.77308   0.20358   0.36800   0.00000  Uiso   1.00
H174   H     0.77556   0.29886   0.11787   0.00000  Uiso   1.00
H175   H     0.89359   0.29646   0.38243   0.00000  Uiso   1.00
H176   H     0.67994   0.21497   0.16816   0.00000  Uiso   1.00
N177   N     0.83333   0.25001   0.12934   0.00000  Uiso   1.00
N178   N     0.83333   0.24999   0.37065   0.00000  Uiso   1.00
O179   O     0.83334   0.18573   0.29071   0.00000  Uiso   1.00
O180   O     0.67871   0.27498   0.31084   0.00000  Uiso   1.00
O181   O     0.76795   0.11174   0.30800   0.00000  Uiso   1.00
O182   O     0.89848   0.38812   0.32519   0.00000  Uiso   1.00
O183   O     0.76550   0.30757   0.02385   0.00000  Uiso   1.00
O184   O     0.90412   0.30473   0.47648   0.00000  Uiso   1.00
O185   O     0.83333   0.31428   0.20928   0.00000  Uiso   1.00
O186   O     0.83334   0.18573   0.20928   0.00000  Uiso   1.00
O187   O     0.83333   0.31427   0.29072   0.00000  Uiso   1.00
O188   O     0.75828   0.25000   0.28132   0.00000  Uiso   1.00
O189   O     0.90839   0.25001   0.21868   0.00000  Uiso   1.00
O190   O     0.75828   0.25000   0.19989   0.00000  Uiso   1.00
O191   O     0.90839   0.25000   0.30011   0.00000  Uiso   1.00
O192   O     0.98797   0.22487   0.18925   0.00000  Uiso   1.00
C193   C     0.16528   0.66493   0.24982   0.00000  Uiso   1.00
C194   C     0.20190   0.77717   0.45047   0.00000  Uiso   1.00
C195   C     0.16624   0.75051   0.02725   0.00000  Uiso   1.00
C196   C     0.16710   0.75049   0.47275   0.00000  Uiso   1.00
C197   C     0.06802   0.74892   0.23770   0.00000  Uiso   1.00
C198   C     0.26532   0.75104   0.26231   0.00000  Uiso   1.00
C199   C     0.01299   0.74397   0.23155   0.00000  Uiso   1.00
C200   C     0.32036   0.75594   0.26850   0.00000  Uiso   1.00
C201   C     0.13689   0.54622   0.27943   0.00000  Uiso   1.00
C202   C     0.19653   0.95372   0.28731   0.00000  Uiso   1.00
C203   C     0.13408   0.59229   0.27938   0.00000  Uiso   1.00
C204   C     0.16809   0.83507   0.25018   0.00000  Uiso   1.00
C205   C     0.19925   0.90765   0.28795   0.00000  Uiso   1.00
C206   C     0.16363   0.61660   0.24935   0.00000  Uiso   1.00
C207   C     0.16988   0.88341   0.25012   0.00000  Uiso   1.00
C208   C     0.19337   0.59418   0.21880   0.00000  Uiso   1.00
C209   C     0.14047   0.90591   0.21172   0.00000  Uiso   1.00
C210   C     0.19508   0.54816   0.21844   0.00000  Uiso   1.00
C211   C     0.13888   0.95193   0.21092   0.00000  Uiso   1.00
C212   C     0.16663   0.52416   0.24887   0.00000  Uiso   1.00
C213   C     0.16709   0.97586   0.24890   0.00000  Uiso   1.00
C214   C     0.19941   0.72246   0.05778   0.00000  Uiso   1.00
C215   C     0.13247   0.72385   0.44205   0.00000  Uiso   1.00
C216   C     0.19883   0.72277   0.10861   0.00000  Uiso   1.00
C217   C     0.13306   0.72414   0.39122   0.00000  Uiso   1.00
C218   C     0.13419   0.77744   0.10081   0.00000  Uiso   1.00
C219   C     0.20054   0.77608   0.39935   0.00000  Uiso   1.00
C220   C     0.13289   0.77859   0.04970   0.00000  Uiso   1.00
Cl221  Cl    0.23413   0.52155   0.18047   0.00000  Uiso   1.00
Cl222  Cl    0.10026   0.97865   0.16261   0.00000  Uiso   1.00
Cl223  Cl    0.24216   0.68661   0.03354   0.00000  Uiso   1.00
Cl224  Cl    0.08784   0.68982   0.46609   0.00000  Uiso   1.00
Cu225  Cu    0.16667   0.75000   0.29821   0.00000  Uiso   1.00
Cu226  Cu    0.16667   0.75001   0.20178   0.00000  Uiso   1.00
H227   H     0.11457   0.52743   0.30244   0.00000  Uiso   1.00
H228   H     0.32005   0.78498   0.33187   0.00000  Uiso   1.00
H229   H     0.09087   0.64119   0.29442   0.00000  Uiso   1.00
H230   H     0.24243   0.85876   0.31424   0.00000  Uiso   1.00
H231   H     0.10170   0.80570   0.48863   0.00000  Uiso   1.00
H232   H     0.23449   0.80299   0.01169   0.00000  Uiso   1.00
H233   H     0.21867   0.97246   0.31623   0.00000  Uiso   1.00
H234   H     0.21614   0.61253   0.19583   0.00000  Uiso   1.00
H235   H     0.11786   0.88762   0.18272   0.00000  Uiso   1.00
H236   H     0.22428   0.70108   0.13170   0.00000  Uiso   1.00
H237   H     0.10641   0.70358   0.36800   0.00000  Uiso   1.00
H238   H     0.10889   0.79886   0.11787   0.00000  Uiso   1.00
H239   H     0.22692   0.79646   0.38243   0.00000  Uiso   1.00
H240   H     0.01328   0.71497   0.16816   0.00000  Uiso   1.00
N241   N     0.16667   0.75001   0.12934   0.00000  Uiso   1.00
N242   N     0.16667   0.74999   0.37065   0.00000  Uiso   1.00
O243   O     0.16667   0.68573   0.29071   0.00000  Uiso   1.00
O244   O     0.01204   0.77498   0.31084   0.00000  Uiso   1.00
O245   O     0.10129   0.61174   0.30800   0.00000  Uiso   1.00
O246   O     0.23181   0.88812   0.32519   0.00000  Uiso   1.00
O247   O     0.09883   0.80757   0.02385   0.00000  Uiso   1.00
O248   O     0.23745   0.80473   0.47648   0.00000  Uiso   1.00
O249   O     0.16666   0.81428   0.20928   0.00000  Uiso   1.00
O250   O     0.16667   0.68573   0.20928   0.00000  Uiso   1.00
O251   O     0.16666   0.81427   0.29072   0.00000  Uiso   1.00
O252   O     0.09161   0.75000   0.28132   0.00000  Uiso   1.00
O253   O     0.24172   0.75001   0.21868   0.00000  Uiso   1.00
O254   O     0.09161   0.75000   0.19989   0.00000  Uiso   1.00
O255   O     0.24172   0.75000   0.30011   0.00000  Uiso   1.00
O256   O     0.32130   0.72487   0.18925   0.00000  Uiso   1.00
C257   C     0.49861   0.66493   0.24982   0.00000  Uiso   1.00
C258   C     0.53523   0.77717   0.45047   0.00000  Uiso   1.00
C259   C     0.49957   0.75051   0.02725   0.00000  Uiso   1.00
C260   C     0.50044   0.75049   0.47275   0.00000  Uiso   1.00
C261   C     0.40135   0.74892   0.23770   0.00000  Uiso   1.00
C262   C     0.59865   0.75104   0.26231   0.00000  Uiso   1.00
C263   C     0.34632   0.74397   0.23155   0.00000  Uiso   1.00
C264   C     0.65369   0.75594   0.26850   0.00000  Uiso   1.00
C265   C     0.47022   0.54622   0.27943   0.00000  Uiso   1.00
C266   C     0.52986   0.95372   0.28731   0.00000  Uiso   1.00
C267   C     0.46742   0.59229   0.27938   0.00000  Uiso   1.00
C268   C     0.50143   0.83507   0.25018   0.00000  Uiso   1.00
C269   C     0.53259   0.90765   0.28795   0.00000  Uiso   1.00
C270   C     0.49697   0.61660   0.24935   0.00000  Uiso   1.00
C271   C     0.50321   0.88341   0.25012   0.00000  Uiso   1.00
C272   C     0.52671   0.59418   0.21880   0.00000  Uiso   1.00
C273   C     0.47380   0.90591   0.21172   0.00000  Uiso   1.00
C274   C     0.52841   0.54816   0.21844   0.00000  Uiso   1.00
C275   C     0.47222   0.95193   0.21092   0.00000  Uiso   1.00
C276   C     0.49996   0.52416   0.24887   0.00000  Uiso   1.00
C277   C     0.50042   0.97586   0.24890   0.00000  Uiso   1.00
C278   C     0.53274   0.72246   0.05778   0.00000  Uiso   1.00
C279   C     0.46580   0.72385   0.44205   0.00000  Uiso   1.00
C280   C     0.53216   0.72277   0.10861   0.00000  Uiso   1.00
C281   C     0.46639   0.72414   0.39122   0.00000  Uiso   1.00
C282   C     0.46752   0.77744   0.10081   0.00000  Uiso   1.00
C283   C     0.53388   0.77608   0.39935   0.00000  Uiso   1.00
C284   C     0.46622   0.77859   0.04970   0.00000  Uiso   1.00
Cl285  Cl    0.56747   0.52155   0.18047   0.00000  Uiso   1.00
Cl286  Cl    0.43360   0.97865   0.16261   0.00000  Uiso   1.00
Cl287  Cl    0.57550   0.68661   0.03354   0.00000  Uiso   1.00
Cl288  Cl    0.42117   0.68982   0.46609   0.00000  Uiso   1.00
Cu289  Cu    0.50000   0.75000   0.29821   0.00000  Uiso   1.00
Cu290  Cu    0.50000   0.75001   0.20178   0.00000  Uiso   1.00
H291   H     0.44790   0.52743   0.30244   0.00000  Uiso   1.00
H292   H     0.65338   0.78498   0.33187   0.00000  Uiso   1.00
H293   H     0.42421   0.64119   0.29442   0.00000  Uiso   1.00
H294   H     0.57576   0.85876   0.31424   0.00000  Uiso   1.00
H295   H     0.43503   0.80570   0.48863   0.00000  Uiso   1.00
H296   H     0.56783   0.80299   0.01169   0.00000  Uiso   1.00
H297   H     0.55201   0.97246   0.31623   0.00000  Uiso   1.00
H298   H     0.54948   0.61253   0.19583   0.00000  Uiso   1.00
H299   H     0.45119   0.88762   0.18272   0.00000  Uiso   1.00
H300   H     0.55762   0.70108   0.13170   0.00000  Uiso   1.00
H301   H     0.43974   0.70358   0.36800   0.00000  Uiso   1.00
H302   H     0.44223   0.79886   0.11787   0.00000  Uiso   1.00
H303   H     0.56026   0.79646   0.38243   0.00000  Uiso   1.00
H304   H     0.34661   0.71497   0.16816   0.00000  Uiso   1.00
N305   N     0.50000   0.75001   0.12934   0.00000  Uiso   1.00
N306   N     0.50000   0.74999   0.37065   0.00000  Uiso   1.00
O307   O     0.50000   0.68573   0.29071   0.00000  Uiso   1.00
O308   O     0.34538   0.77498   0.31084   0.00000  Uiso   1.00
O309   O     0.43462   0.61174   0.30800   0.00000  Uiso   1.00
O310   O     0.56515   0.88812   0.32519   0.00000  Uiso   1.00
O311   O     0.43216   0.80757   0.02385   0.00000  Uiso   1.00
O312   O     0.57079   0.80473   0.47648   0.00000  Uiso   1.00
O313   O     0.50000   0.81428   0.20928   0.00000  Uiso   1.00
O314   O     0.50000   0.68573   0.20928   0.00000  Uiso   1.00
O315   O     0.50000   0.81427   0.29072   0.00000  Uiso   1.00
O316   O     0.42495   0.75000   0.28132   0.00000  Uiso   1.00
O317   O     0.57505   0.75001   0.21868   0.00000  Uiso   1.00
O318   O     0.42495   0.75000   0.19989   0.00000  Uiso   1.00
O319   O     0.57505   0.75000   0.30011   0.00000  Uiso   1.00
O320   O     0.65464   0.72487   0.18925   0.00000  Uiso   1.00
C321   C     0.83195   0.66493   0.24982   0.00000  Uiso   1.00
C322   C     0.86857   0.77717   0.45047   0.00000  Uiso   1.00
C323   C     0.83291   0.75051   0.02725   0.00000  Uiso   1.00
C324   C     0.83377   0.75049   0.47275   0.00000  Uiso   1.00
C325   C     0.73469   0.74892   0.23770   0.00000  Uiso   1.00
C326   C     0.93198   0.75104   0.26231   0.00000  Uiso   1.00
C327   C     0.67966   0.74397   0.23155   0.00000  Uiso   1.00
C328   C     0.98702   0.75594   0.26850   0.00000  Uiso   1.00
C329   C     0.80355   0.54622   0.27943   0.00000  Uiso   1.00
C330   C     0.86319   0.95372   0.28731   0.00000  Uiso   1.00
C331   C     0.80075   0.59229   0.27938   0.00000  Uiso   1.00
C332   C     0.83476   0.83507   0.25018   0.00000  Uiso   1.00
C333   C     0.86592   0.90765   0.28795   0.00000  Uiso   1.00
C334   C     0.83030   0.61660   0.24935   0.00000  Uiso   1.00
C335   C     0.83654   0.88341   0.25012   0.00000  Uiso   1.00
C336   C     0.86004   0.59418   0.21880   0.00000  Uiso   1.00
C337   C     0.80713   0.90591   0.21172   0.00000  Uiso   1.00
C338   C     0.86174   0.54816   0.21844   0.00000  Uiso   1.00
C339   C     0.80555   0.95193   0.21092   0.00000  Uiso   1.00
C340   C     0.83330   0.52416   0.24887   0.00000  Uiso   1.00
C341   C     0.83376   0.97586   0.24890   0.00000  Uiso   1.00
C342   C     0.86608   0.72246   0.05778   0.00000  Uiso   1.00
C343   C     0.79913   0.72385   0.44205   0.00000  Uiso   1.00
C344   C     0.86549   0.72277   0.10861   0.00000  Uiso   1.00
C345   C     0.79972   0.72414   0.39122   0.00000  Uiso   1.00
C346   C     0.80085   0.77744   0.10081   0.00000  Uiso   1.00
C347   C     0.86721   0.77608   0.39935   0.00000  Uiso   1.00
C348   C     0.79956   0.77859   0.04970   0.00000  Uiso   1.00
Cl349  Cl    0.90080   0.52155   0.18047   0.00000  Uiso   1.00
Cl350  Cl    0.76693   0.97865   0.16261   0.00000  Uiso   1.00
Cl351  Cl    0.90883   0.68661   0.03354   0.00000  Uiso   1.00
Cl352  Cl    0.75451   0.68982   0.46609   0.00000  Uiso   1.00
Cu353  Cu    0.83333   0.75000   0.29821   0.00000  Uiso   1.00
Cu354  Cu    0.83333   0.75001   0.20178   0.00000  Uiso   1.00
H355   H     0.78123   0.52743   0.30244   0.00000  Uiso   1.00
H356   H     0.98671   0.78498   0.33187   0.00000  Uiso   1.00
H357   H     0.75754   0.64119   0.29442   0.00000  Uiso   1.00
H358   H     0.90909   0.85876   0.31424   0.00000  Uiso   1.00
H359   H     0.76836   0.80570   0.48863   0.00000  Uiso   1.00
H360   H     0.90116   0.80299   0.01169   0.00000  Uiso   1.00
H361   H     0.88534   0.97246   0.31623   0.00000  Uiso   1.00
H362   H     0.88281   0.61253   0.19583   0.00000  Uiso   1.00
H363   H     0.78452   0.88762   0.18272   0.00000  Uiso   1.00
H364   H     0.89095   0.70108   0.13170   0.00000  Uiso   1.00
H365   H     0.77308   0.70358   0.36800   0.00000  Uiso   1.00
H366   H     0.77556   0.79886   0.11787   0.00000  Uiso   1.00
H367   H     0.89359   0.79646   0.38243   0.00000  Uiso   1.00
H368   H     0.67994   0.71497   0.16816   0.00000  Uiso   1.00
N369   N     0.83333   0.75001   0.12934   0.00000  Uiso   1.00
N370   N     0.83333   0.74999   0.37065   0.00000  Uiso   1.00
O371   O     0.83334   0.68573   0.29071   0.00000  Uiso   1.00
O372   O     0.67871   0.77498   0.31084   0.00000  Uiso   1.00
O373   O     0.76795   0.61174   0.30800   0.00000  Uiso   1.00
O374   O     0.89848   0.88812   0.32519   0.00000  Uiso   1.00
O375   O     0.76550   0.80757   0.02385   0.00000  Uiso   1.00
O376   O     0.90412   0.80473   0.47648   0.00000  Uiso   1.00
O377   O     0.83333   0.81428   0.20928   0.00000  Uiso   1.00
O378   O     0.83334   0.68573   0.20928   0.00000  Uiso   1.00
O379   O     0.83333   0.81427   0.29072   0.00000  Uiso   1.00
O380   O     0.75828   0.75000   0.28132   0.00000  Uiso   1.00
O381   O     0.90839   0.75001   0.21868   0.00000  Uiso   1.00
O382   O     0.75828   0.75000   0.19989   0.00000  Uiso   1.00
O383   O     0.90839   0.75000   0.30011   0.00000  Uiso   1.00
O384   O     0.98797   0.72487   0.18925   0.00000  Uiso   1.00
C385   C     0.16528   0.16493   0.74982   0.00000  Uiso   1.00
C386   C     0.20190   0.27717   0.95047   0.00000  Uiso   1.00
C387   C     0.16624   0.25051   0.52725   0.00000  Uiso   1.00
C388   C     0.16710   0.25049   0.97275   0.00000  Uiso   1.00
C389   C     0.06802   0.24892   0.73770   0.00000  Uiso   1.00
C390   C     0.26532   0.25104   0.76231   0.00000  Uiso   1.00
C391   C     0.01299   0.24397   0.73155   0.00000  Uiso   1.00
C392   C     0.32036   0.25594   0.76850   0.00000  Uiso   1.00
C393   C     0.13689   0.04622   0.77943   0.00000  Uiso   1.00
C394   C     0.19653   0.45372   0.78731   0.00000  Uiso   1.00
C395   C     0.13408   0.09229   0.77938   0.00000  Uiso   1.00
C396   C     0.16809   0.33507   0.75018   0.00000  Uiso   1.00
C397   C     0.19925   0.40765   0.78795   0.00000  Uiso   1.00
C398   C     0.16363   0.11660   0.74935   0.00000  Uiso   1.00
C399   C     0.16988   0.38341   0.75012   0.00000  Uiso   1.00
C400   C     0.19337   0.09418   0.71880   0.00000  Uiso   1.00
C401   C     0.14047   0.40591   0.71172   0.00000  Uiso   1.00
C402   C     0.19508   0.04816   0.71844   0.00000  Uiso   1.00
C403   C     0.13888   0.45193   0.71092   0.00000  Uiso   1.00
C404   C     0.16663   0.02416   0.74887   0.00000  Uiso   1.00
C405   C     0.16709   0.47586   0.74890   0.00000  Uiso   1.00
C406   C     0.19941   0.22246   0.55778   0.00000  Uiso   1.00
C407   C     0.13247   0.22385   0.94205   0.00000  Uiso   1.00
C408   C     0.19883   0.22277   0.60861   0.00000  Uiso   1.00
C409   C     0.13306   0.22414   0.89122   0.00000  Uiso   1.00
C410   C     0.13419   0.27744   0.60081   0.00000  Uiso   1.00
C411   C     0.20054   0.27608   0.89935   0.00000  Uiso   1.00
C412   C     0.13289   0.27859   0.54970   0.00000  Uiso   1.00
Cl413  Cl    0.23413   0.02155   0.68047   0.00000  Uiso   1.00
Cl414  Cl    0.10026   0.47865   0.66261   0.00000  Uiso   1.00
Cl415  Cl    0.24216   0.18661   0.53354   0.00000  Uiso   1.00
Cl416  Cl    0.08784   0.18982   0.96609   0.00000  Uiso   1.00
Cu417  Cu    0.16667   0.25000   0.79821   0.00000  Uiso   1.00
Cu418  Cu    0.16667   0.25001   0.70178   0.00000  Uiso   1.00
H419   H     0.11457   0.02743   0.80244   0.00000  Uiso   1.00
H420   H     0.32005   0.28498   0.83187   0.00000  Uiso   1.00
H421   H     0.09087   0.14119   0.79442   0.00000  Uiso   1.00
H422   H     0.24243   0.35876   0.81424   0.00000  Uiso   1.00
H423   H     0.10170   0.30570   0.98863   0.00000  Uiso   1.00
H424   H     0.23449   0.30299   0.51169   0.00000  Uiso   1.00
H425   H     0.21867   0.47246   0.81623   0.00000  Uiso   1.00
H426   H     0.21614   0.11253   0.69583   0.00000  Uiso   1.00
H427   H     0.11786   0.38762   0.68272   0.00000  Uiso   1.00
H428   H     0.22428   0.20108   0.63170   0.00000  Uiso   1.00
H429   H     0.10641   0.20358   0.86800   0.00000  Uiso   1.00
H430   H     0.10889   0.29886   0.61787   0.00000  Uiso   1.00
H431   H     0.22692   0.29646   0.88243   0.00000  Uiso   1.00
H432   H     0.01328   0.21497   0.66816   0.00000  Uiso   1.00
N433   N     0.16667   0.25001   0.62934   0.00000  Uiso   1.00
N434   N     0.16667   0.24999   0.87065   0.00000  Uiso   1.00
O435   O     0.16667   0.18573   0.79071   0.00000  Uiso   1.00
O436   O     0.01204   0.27498   0.81084   0.00000  Uiso   1.00
O437   O     0.10129   0.11174   0.80800   0.00000  Uiso   1.00
O438   O     0.23181   0.38812   0.82519   0.00000  Uiso   1.00
O439   O     0.09883   0.30757   0.52385   0.00000  Uiso   1.00
O440   O     0.23745   0.30473   0.97648   0.00000  Uiso   1.00
O441   O     0.16666   0.31428   0.70928   0.00000  Uiso   1.00
O442   O     0.16667   0.18573   0.70928   0.00000  Uiso   1.00
O443   O     0.16666   0.31427   0.79072   0.00000  Uiso   1.00
O444   O     0.09161   0.25000   0.78132   0.00000  Uiso   1.00
O445   O     0.24172   0.25001   0.71868   0.00000  Uiso   1.00
O446   O     0.09161   0.25000   0.69989   0.00000  Uiso   1.00
O447   O     0.24172   0.25000   0.80011   0.00000  Uiso   1.00
O448   O     0.32130   0.22487   0.68925   0.00000  Uiso   1.00
C449   C     0.49861   0.16493   0.74982   0.00000  Uiso   1.00
C450   C     0.53523   0.27717   0.95047   0.00000  Uiso   1.00
C451   C     0.49957   0.25051   0.52725   0.00000  Uiso   1.00
C452   C     0.50044   0.25049   0.97275   0.00000  Uiso   1.00
C453   C     0.40135   0.24892   0.73770   0.00000  Uiso   1.00
C454   C     0.59865   0.25104   0.76231   0.00000  Uiso   1.00
C455   C     0.34632   0.24397   0.73155   0.00000  Uiso   1.00
C456   C     0.65369   0.25594   0.76850   0.00000  Uiso   1.00
C457   C     0.47022   0.04622   0.77943   0.00000  Uiso   1.00
C458   C     0.52986   0.45372   0.78731   0.00000  Uiso   1.00
C459   C     0.46742   0.09229   0.77938   0.00000  Uiso   1.00
C460   C     0.50143   0.33507   0.75018   0.00000  Uiso   1.00
C461   C     0.53259   0.40765   0.78795   0.00000  Uiso   1.00
C462   C     0.49697   0.11660   0.74935   0.00000  Uiso   1.00
C463   C     0.50321   0.38341   0.75012   0.00000  Uiso   1.00
C464   C     0.52671   0.09418   0.71880   0.00000  Uiso   1.00
C465   C     0.47380   0.40591   0.71172   0.00000  Uiso   1.00
C466   C     0.52841   0.04816   0.71844   0.00000  Uiso   1.00
C467   C     0.47222   0.45193   0.71092   0.00000  Uiso   1.00
C468   C     0.49996   0.02416   0.74887   0.00000  Uiso   1.00
C469   C     0.50042   0.47586   0.74890   0.00000  Uiso   1.00
C470   C     0.53274   0.22246   0.55778   0.00000  Uiso   1.00
C471   C     0.46580   0.22385   0.94205   0.00000  Uiso   1.00
C472   C     0.53216   0.22277   0.60861   0.00000  Uiso   1.00
C473   C     0.46639   0.22414   0.89122   0.00000  Uiso   1.00
C474   C     0.46752   0.27744   0.60081   0.00000  Uiso   1.00
C475   C     0.53388   0.27608   0.89935   0.00000  Uiso   1.00
C476   C     0.46622   0.27859   0.54970   0.00000  Uiso   1.00
Cl477  Cl    0.56747   0.02155   0.68047   0.00000  Uiso   1.00
Cl478  Cl    0.43360   0.47865   0.66261   0.00000  Uiso   1.00
Cl479  Cl    0.57550   0.18661   0.53354   0.00000  Uiso   1.00
Cl480  Cl    0.42117   0.18982   0.96609   0.00000  Uiso   1.00
Cu481  Cu    0.50000   0.25000   0.79821   0.00000  Uiso   1.00
Cu482  Cu    0.50000   0.25001   0.70178   0.00000  Uiso   1.00
H483   H     0.44790   0.02743   0.80244   0.00000  Uiso   1.00
H484   H     0.65338   0.28498   0.83187   0.00000  Uiso   1.00
H485   H     0.42421   0.14119   0.79442   0.00000  Uiso   1.00
H486   H     0.57576   0.35876   0.81424   0.00000  Uiso   1.00
H487   H     0.43503   0.30570   0.98863   0.00000  Uiso   1.00
H488   H     0.56783   0.30299   0.51169   0.00000  Uiso   1.00
H489   H     0.55201   0.47246   0.81623   0.00000  Uiso   1.00
H490   H     0.54948   0.11253   0.69583   0.00000  Uiso   1.00
H491   H     0.45119   0.38762   0.68272   0.00000  Uiso   1.00
H492   H     0.55762   0.20108   0.63170   0.00000  Uiso   1.00
H493   H     0.43974   0.20358   0.86800   0.00000  Uiso   1.00
H494   H     0.44223   0.29886   0.61787   0.00000  Uiso   1.00
H495   H     0.56026   0.29646   0.88243   0.00000  Uiso   1.00
H496   H     0.34661   0.21497   0.66816   0.00000  Uiso   1.00
N497   N     0.50000   0.25001   0.62934   0.00000  Uiso   1.00
N498   N     0.50000   0.24999   0.87065   0.00000  Uiso   1.00
O499   O     0.50000   0.18573   0.79071   0.00000  Uiso   1.00
O500   O     0.34538   0.27498   0.81084   0.00000  Uiso   1.00
O501   O     0.43462   0.11174   0.80800   0.00000  Uiso   1.00
O502   O     0.56515   0.38812   0.82519   0.00000  Uiso   1.00
O503   O     0.43216   0.30757   0.52385   0.00000  Uiso   1.00
O504   O     0.57079   0.30473   0.97648   0.00000  Uiso   1.00
O505   O     0.50000   0.31428   0.70928   0.00000  Uiso   1.00
O506   O     0.50000   0.18573   0.70928   0.00000  Uiso   1.00
O507   O     0.50000   0.31427   0.79072   0.00000  Uiso   1.00
O508   O     0.42495   0.25000   0.78132   0.00000  Uiso   1.00
O509   O     0.57505   0.25001   0.71868   0.00000  Uiso   1.00
O510   O     0.42495   0.25000   0.69989   0.00000  Uiso   1.00
O511   O     0.57505   0.25000   0.80011   0.00000  Uiso   1.00
O512   O     0.65464   0.22487   0.68925   0.00000  Uiso   1.00
C513   C     0.83195   0.16493   0.74982   0.00000  Uiso   1.00
C514   C     0.86857   0.27717   0.95047   0.00000  Uiso   1.00
C515   C     0.83291   0.25051   0.52725   0.00000  Uiso   1.00
C516   C     0.83377   0.25049   0.97275   0.00000  Uiso   1.00
C517   C     0.73469   0.24892   0.73770   0.00000  Uiso   1.00
C518   C     0.93198   0.25104   0.76231   0.00000  Uiso   1.00
C519   C     0.67966   0.24397   0.73155   0.00000  Uiso   1.00
C520   C     0.98702   0.25594   0.76850   0.00000  Uiso   1.00
C521   C     0.80355   0.04622   0.77943   0.00000  Uiso   1.00
C522   C     0.86319   0.45372   0.78731   0.00000  Uiso   1.00
C523   C     0.80075   0.09229   0.77938   0.00000  Uiso   1.00
C524   C     0.83476   0.33507   0.75018   0.00000  Uiso   1.00
C525   C     0.86592   0.40765   0.78795   0.00000  Uiso   1.00
C526   C     0.83030   0.11660   0.74935   0.00000  Uiso   1.00
C527   C     0.83654   0.38341   0.75012   0.00000  Uiso   1.00
C528   C     0.86004   0.09418   0.71880   0.00000  Uiso   1.00
C529   C     0.80713   0.40591   0.71172   0.00000  Uiso   1.00
C530   C     0.86174   0.04816   0.71844   0.00000  Uiso   1.00
C531   C     0.80555   0.45193   0.71092   0.00000  Uiso   1.00
C532   C     0.83330   0.02416   0.74887   0.00000  Uiso   1.00
C533   C     0.83376   0.47586   0.74890   0.00000  Uiso   1.00
C534   C     0.86608   0.22246   0.55778   0.00000  Uiso   1.00
C535   C     0.79913   0.22385   0.94205   0.00000  Uiso   1.00
C536   C     0.86549   0.22277   0.60861   0.00000  Uiso   1.00
C537   C     0.79972   0.22414   0.89122   0.00000  Uiso   1.00
C538   C     0.80085   0.27744   0.60081   0.00000  Uiso   1.00
C539   C     0.86721   0.27608   0.89935   0.00000  Uiso   1.00
C540   C     0.79956   0.27859   0.54970   0.00000  Uiso   1.00
Cl541  Cl    0.90080   0.02155   0.68047   0.00000  Uiso   1.00
Cl542  Cl    0.76693   0.47865   0.66261   0.00000  Uiso   1.00
Cl543  Cl    0.90883   0.18661   0.53354   0.00000  Uiso   1.00
Cl544  Cl    0.75451   0.18982   0.96609   0.00000  Uiso   1.00
Cu545  Cu    0.83333   0.25000   0.79821   0.00000  Uiso   1.00
Cu546  Cu    0.83333   0.25001   0.70178   0.00000  Uiso   1.00
H547   H     0.78123   0.02743   0.80244   0.00000  Uiso   1.00
H548   H     0.98671   0.28498   0.83187   0.00000  Uiso   1.00
H549   H     0.75754   0.14119   0.79442   0.00000  Uiso   1.00
H550   H     0.90909   0.35876   0.81424   0.00000  Uiso   1.00
H551   H     0.76836   0.30570   0.98863   0.00000  Uiso   1.00
H552   H     0.90116   0.30299   0.51169   0.00000  Uiso   1.00
H553   H     0.88534   0.47246   0.81623   0.00000  Uiso   1.00
H554   H     0.88281   0.11253   0.69583   0.00000  Uiso   1.00
H555   H     0.78452   0.38762   0.68272   0.00000  Uiso   1.00
H556   H     0.89095   0.20108   0.63170   0.00000  Uiso   1.00
H557   H     0.77308   0.20358   0.86800   0.00000  Uiso   1.00
H558   H     0.77556   0.29886   0.61787   0.00000  Uiso   1.00
H559   H     0.89359   0.29646   0.88243   0.00000  Uiso   1.00
H560   H     0.67994   0.21497   0.66816   0.00000  Uiso   1.00
N561   N     0.83333   0.25001   0.62934   0.00000  Uiso   1.00
N562   N     0.83333   0.24999   0.87065   0.00000  Uiso   1.00
O563   O     0.83334   0.18573   0.79071   0.00000  Uiso   1.00
O564   O     0.67871   0.27498   0.81084   0.00000  Uiso   1.00
O565   O     0.76795   0.11174   0.80800   0.00000  Uiso   1.00
O566   O     0.89848   0.38812   0.82519   0.00000  Uiso   1.00
O567   O     0.76550   0.30757   0.52385   0.00000  Uiso   1.00
O568   O     0.90412   0.30473   0.97648   0.00000  Uiso   1.00
O569   O     0.83333   0.31428   0.70928   0.00000  Uiso   1.00
O570   O     0.83334   0.18573   0.70928   0.00000  Uiso   1.00
O571   O     0.83333   0.31427   0.79072   0.00000  Uiso   1.00
O572   O     0.75828   0.25000   0.78132   0.00000  Uiso   1.00
O573   O     0.90839   0.25001   0.71868   0.00000  Uiso   1.00
O574   O     0.75828   0.25000   0.69989   0.00000  Uiso   1.00
O575   O     0.90839   0.25000   0.80011   0.00000  Uiso   1.00
O576   O     0.98797   0.22487   0.68925   0.00000  Uiso   1.00
C577   C     0.16528   0.66493   0.74982   0.00000  Uiso   1.00
C578   C     0.20190   0.77717   0.95047   0.00000  Uiso   1.00
C579   C     0.16624   0.75051   0.52725   0.00000  Uiso   1.00
C580   C     0.16710   0.75049   0.97275   0.00000  Uiso   1.00
C581   C     0.06802   0.74892   0.73770   0.00000  Uiso   1.00
C582   C     0.26532   0.75104   0.76231   0.00000  Uiso   1.00
C583   C     0.01299   0.74397   0.73155   0.00000  Uiso   1.00
C584   C     0.32036   0.75594   0.76850   0.00000  Uiso   1.00
C585   C     0.13689   0.54622   0.77943   0.00000  Uiso   1.00
C586   C     0.19653   0.95372   0.78731   0.00000  Uiso   1.00
C587   C     0.13408   0.59229   0.77938   0.00000  Uiso   1.00
C588   C     0.16809   0.83507   0.75018   0.00000  Uiso   1.00
C589   C     0.19925   0.90765   0.78795   0.00000  Uiso   1.00
C590   C     0.16363   0.61660   0.74935   0.00000  Uiso   1.00
C591   C     0.16988   0.88341   0.75012   0.00000  Uiso   1.00
C592   C     0.19337   0.59418   0.71880   0.00000  Uiso   1.00
C593   C     0.14047   0.90591   0.71172   0.00000  Uiso   1.00
C594   C     0.19508   0.54816   0.71844   0.00000  Uiso   1.00
C595   C     0.13888   0.95193   0.71092   0.00000  Uiso   1.00
C596   C     0.16663   0.52416   0.74887   0.00000  Uiso   1.00
C597   C     0.16709   0.97586   0.74890   0.00000  Uiso   1.00
C598   C     0.19941   0.72246   0.55778   0.00000  Uiso   1.00
C599   C     0.13247   0.72385   0.94205   0.00000  Uiso   1.00
C600   C     0.19883   0.72277   0.60861   0.00000  Uiso   1.00
C601   C     0.13306   0.72414   0.89122   0.00000  Uiso   1.00
C602   C     0.13419   0.77744   0.60081   0.00000  Uiso   1.00
C603   C     0.20054   0.77608   0.89935   0.00000  Uiso   1.00
C604   C     0.13289   0.77859   0.54970   0.00000  Uiso   1.00
Cl605  Cl    0.23413   0.52155   0.68047   0.00000  Uiso   1.00
Cl606  Cl    0.10026   0.97865   0.66261   0.00000  Uiso   1.00
Cl607  Cl    0.24216   0.68661   0.53354   0.00000  Uiso   1.00
Cl608  Cl    0.08784   0.68982   0.96609   0.00000  Uiso   1.00
Cu609  Cu    0.16667   0.75000   0.79821   0.00000  Uiso   1.00
Cu610  Cu    0.16667   0.75001   0.70178   0.00000  Uiso   1.00
H611   H     0.11457   0.52743   0.80244   0.00000  Uiso   1.00
H612   H     0.32005   0.78498   0.83187   0.00000  Uiso   1.00
H613   H     0.09087   0.64119   0.79442   0.00000  Uiso   1.00
H614   H     0.24243   0.85876   0.81424   0.00000  Uiso   1.00
H615   H     0.10170   0.80570   0.98863   0.00000  Uiso   1.00
H616   H     0.23449   0.80299   0.51169   0.00000  Uiso   1.00
H617   H     0.21867   0.97246   0.81623   0.00000  Uiso   1.00
H618   H     0.21614   0.61253   0.69583   0.00000  Uiso   1.00
H619   H     0.11786   0.88762   0.68272   0.00000  Uiso   1.00
H620   H     0.22428   0.70108   0.63170   0.00000  Uiso   1.00
H621   H     0.10641   0.70358   0.86800   0.00000  Uiso   1.00
H622   H     0.10889   0.79886   0.61787   0.00000  Uiso   1.00
H623   H     0.22692   0.79646   0.88243   0.00000  Uiso   1.00
H624   H     0.01328   0.71497   0.66816   0.00000  Uiso   1.00
N625   N     0.16667   0.75001   0.62934   0.00000  Uiso   1.00
N626   N     0.16667   0.74999   0.87065   0.00000  Uiso   1.00
O627   O     0.16667   0.68573   0.79071   0.00000  Uiso   1.00
O628   O     0.01204   0.77498   0.81084   0.00000  Uiso   1.00
O629   O     0.10129   0.61174   0.80800   0.00000  Uiso   1.00
O630   O     0.23181   0.88812   0.82519   0.00000  Uiso   1.00
O631   O     0.09883   0.80757   0.52385   0.00000  Uiso   1.00
O632   O     0.23745   0.80473   0.97648   0.00000  Uiso   1.00
O633   O     0.16666   0.81428   0.70928   0.00000  Uiso   1.00
O634   O     0.16667   0.68573   0.70928   0.00000  Uiso   1.00
O635   O     0.16666   0.81427   0.79072   0.00000  Uiso   1.00
O636   O     0.09161   0.75000   0.78132   0.00000  Uiso   1.00
O637   O     0.24172   0.75001   0.71868   0.00000  Uiso   1.00
O638   O     0.09161   0.75000   0.69989   0.00000  Uiso   1.00
O639   O     0.24172   0.75000   0.80011   0.00000  Uiso   1.00
O640   O     0.32130   0.72487   0.68925   0.00000  Uiso   1.00
C641   C     0.49861   0.66493   0.74982   0.00000  Uiso   1.00
C642   C     0.53523   0.77717   0.95047   0.00000  Uiso   1.00
C643   C     0.49957   0.75051   0.52725   0.00000  Uiso   1.00
C644   C     0.50044   0.75049   0.97275   0.00000  Uiso   1.00
C645   C     0.40135   0.74892   0.73770   0.00000  Uiso   1.00
C646   C     0.59865   0.75104   0.76231   0.00000  Uiso   1.00
C647   C     0.34632   0.74397   0.73155   0.00000  Uiso   1.00
C648   C     0.65369   0.75594   0.76850   0.00000  Uiso   1.00
C649   C     0.47022   0.54622   0.77943   0.00000  Uiso   1.00
C650   C     0.52986   0.95372   0.78731   0.00000  Uiso   1.00
C651   C     0.46742   0.59229   0.77938   0.00000  Uiso   1.00
C652   C     0.50143   0.83507   0.75018   0.00000  Uiso   1.00
C653   C     0.53259   0.90765   0.78795   0.00000  Uiso   1.00
C654   C     0.49697   0.61660   0.74935   0.00000  Uiso   1.00
C655   C     0.50321   0.88341   0.75012   0.00000  Uiso   1.00
C656   C     0.52671   0.59418   0.71880   0.00000  Uiso   1.00
C657   C     0.47380   0.90591   0.71172   0.00000  Uiso   1.00
C658   C     0.52841   0.54816   0.71844   0.00000  Uiso   1.00
C659   C     0.47222   0.95193   0.71092   0.00000  Uiso   1.00
C660   C     0.49996   0.52416   0.74887   0.00000  Uiso   1.00
C661   C     0.50042   0.97586   0.74890   0.00000  Uiso   1.00
C662   C     0.53274   0.72246   0.55778   0.00000  Uiso   1.00
C663   C     0.46580   0.72385   0.94205   0.00000  Uiso   1.00
C664   C     0.53216   0.72277   0.60861   0.00000  Uiso   1.00
C665   C     0.46639   0.72414   0.89122   0.00000  Uiso   1.00
C666   C     0.46752   0.77744   0.60081   0.00000  Uiso   1.00
C667   C     0.53388   0.77608   0.89935   0.00000  Uiso   1.00
C668   C     0.46622   0.77859   0.54970   0.00000  Uiso   1.00
Cl669  Cl    0.56747   0.52155   0.68047   0.00000  Uiso   1.00
Cl670  Cl    0.43360   0.97865   0.66261   0.00000  Uiso   1.00
Cl671  Cl    0.57550   0.68661   0.53354   0.00000  Uiso   1.00
Cl672  Cl    0.42117   0.68982   0.96609   0.00000  Uiso   1.00
Cu673  Cu    0.50000   0.75000   0.79821   0.00000  Uiso   1.00
Cu674  Cu    0.50000   0.75001   0.70178   0.00000  Uiso   1.00
H675   H     0.44790   0.52743   0.80244   0.00000  Uiso   1.00
H676   H     0.65338   0.78498   0.83187   0.00000  Uiso   1.00
H677   H     0.42421   0.64119   0.79442   0.00000  Uiso   1.00
H678   H     0.57576   0.85876   0.81424   0.00000  Uiso   1.00
H679   H     0.43503   0.80570   0.98863   0.00000  Uiso   1.00
H680   H     0.56783   0.80299   0.51169   0.00000  Uiso   1.00
H681   H     0.55201   0.97246   0.81623   0.00000  Uiso   1.00
H682   H     0.54948   0.61253   0.69583   0.00000  Uiso   1.00
H683   H     0.45119   0.88762   0.68272   0.00000  Uiso   1.00
H684   H     0.55762   0.70108   0.63170   0.00000  Uiso   1.00
H685   H     0.43974   0.70358   0.86800   0.00000  Uiso   1.00
H686   H     0.44223   0.79886   0.61787   0.00000  Uiso   1.00
H687   H     0.56026   0.79646   0.88243   0.00000  Uiso   1.00
H688   H     0.34661   0.71497   0.66816   0.00000  Uiso   1.00
N689   N     0.50000   0.75001   0.62934   0.00000  Uiso   1.00
N690   N     0.50000   0.74999   0.87065   0.00000  Uiso   1.00
O691   O     0.50000   0.68573   0.79071   0.00000  Uiso   1.00
O692   O     0.34538   0.77498   0.81084   0.00000  Uiso   1.00
O693   O     0.43462   0.61174   0.80800   0.00000  Uiso   1.00
O694   O     0.56515   0.88812   0.82519   0.00000  Uiso   1.00
O695   O     0.43216   0.80757   0.52385   0.00000  Uiso   1.00
O696   O     0.57079   0.80473   0.97648   0.00000  Uiso   1.00
O697   O     0.50000   0.81428   0.70928   0.00000  Uiso   1.00
O698   O     0.50000   0.68573   0.70928   0.00000  Uiso   1.00
O699   O     0.50000   0.81427   0.79072   0.00000  Uiso   1.00
O700   O     0.42495   0.75000   0.78132   0.00000  Uiso   1.00
O701   O     0.57505   0.75001   0.71868   0.00000  Uiso   1.00
O702   O     0.42495   0.75000   0.69989   0.00000  Uiso   1.00
O703   O     0.57505   0.75000   0.80011   0.00000  Uiso   1.00
O704   O     0.65464   0.72487   0.68925   0.00000  Uiso   1.00
C705   C     0.83195   0.66493   0.74982   0.00000  Uiso   1.00
C706   C     0.86857   0.77717   0.95047   0.00000  Uiso   1.00
C707   C     0.83291   0.75051   0.52725   0.00000  Uiso   1.00
C708   C     0.83377   0.75049   0.97275   0.00000  Uiso   1.00
C709   C     0.73469   0.74892   0.73770   0.00000  Uiso   1.00
C710   C     0.93198   0.75104   0.76231   0.00000  Uiso   1.00
C711   C     0.67966   0.74397   0.73155   0.00000  Uiso   1.00
C712   C     0.98702   0.75594   0.76850   0.00000  Uiso   1.00
C713   C     0.80355   0.54622   0.77943   0.00000  Uiso   1.00
C714   C     0.86319   0.95372   0.78731   0.00000  Uiso   1.00
C715   C     0.80075   0.59229   0.77938   0.00000  Uiso   1.00
C716   C     0.83476   0.83507   0.75018   0.00000  Uiso   1.00
C717   C     0.86592   0.90765   0.78795   0.00000  Uiso   1.00
C718   C     0.83030   0.61660   0.74935   0.00000  Uiso   1.00
C719   C     0.83654   0.88341   0.75012   0.00000  Uiso   1.00
C720   C     0.86004   0.59418   0.71880   0.00000  Uiso   1.00
C721   C     0.80713   0.90591   0.71172   0.00000  Uiso   1.00
C722   C     0.86174   0.54816   0.71844   0.00000  Uiso   1.00
C723   C     0.80555   0.95193   0.71092   0.00000  Uiso   1.00
C724   C     0.83330   0.52416   0.74887   0.00000  Uiso   1.00
C725   C     0.83376   0.97586   0.74890   0.00000  Uiso   1.00
C726   C     0.86608   0.72246   0.55778   0.00000  Uiso   1.00
C727   C     0.79913   0.72385   0.94205   0.00000  Uiso   1.00
C728   C     0.86549   0.72277   0.60861   0.00000  Uiso   1.00
C729   C     0.79972   0.72414   0.89122   0.00000  Uiso   1.00
C730   C     0.80085   0.77744   0.60081   0.00000  Uiso   1.00
C731   C     0.86721   0.77608   0.89935   0.00000  Uiso   1.00
C732   C     0.79956   0.77859   0.54970   0.00000  Uiso   1.00
Cl733  Cl    0.90080   0.52155   0.68047   0.00000  Uiso   1.00
Cl734  Cl    0.76693   0.97865   0.66261   0.00000  Uiso   1.00
Cl735  Cl    0.90883   0.68661   0.53354   0.00000  Uiso   1.00
Cl736  Cl    0.75451   0.68982   0.96609   0.00000  Uiso   1.00
Cu737  Cu    0.83333   0.75000   0.79821   0.00000  Uiso   1.00
Cu738  Cu    0.83333   0.75001   0.70178   0.00000  Uiso   1.00
H739   H     0.78123   0.52743   0.80244   0.00000  Uiso   1.00
H740   H     0.98671   0.78498   0.83187   0.00000  Uiso   1.00
H741   H     0.75754   0.64119   0.79442   0.00000  Uiso   1.00
H742   H     0.90909   0.85876   0.81424   0.00000  Uiso   1.00
H743   H     0.76836   0.80570   0.98863   0.00000  Uiso   1.00
H744   H     0.90116   0.80299   0.51169   0.00000  Uiso   1.00
H745   H     0.88534   0.97246   0.81623   0.00000  Uiso   1.00
H746   H     0.88281   0.61253   0.69583   0.00000  Uiso   1.00
H747   H     0.78452   0.88762   0.68272   0.00000  Uiso   1.00
H748   H     0.89095   0.70108   0.63170   0.00000  Uiso   1.00
H749   H     0.77308   0.70358   0.86800   0.00000  Uiso   1.00
H750   H     0.77556   0.79886   0.61787   0.00000  Uiso   1.00
H751   H     0.89359   0.79646   0.88243   0.00000  Uiso   1.00
H752   H     0.67994   0.71497   0.66816   0.00000  Uiso   1.00
N753   N     0.83333   0.75001   0.62934   0.00000  Uiso   1.00
N754   N     0.83333   0.74999   0.87065   0.00000  Uiso   1.00
O755   O     0.83334   0.68573   0.79071   0.00000  Uiso   1.00
O756   O     0.67871   0.77498   0.81084   0.00000  Uiso   1.00
O757   O     0.76795   0.61174   0.80800   0.00000  Uiso   1.00
O758   O     0.89848   0.88812   0.82519   0.00000  Uiso   1.00
O759   O     0.76550   0.80757   0.52385   0.00000  Uiso   1.00
O760   O     0.90412   0.80473   0.97648   0.00000  Uiso   1.00
O761   O     0.83333   0.81428   0.70928   0.00000  Uiso   1.00
O762   O     0.83334   0.68573   0.70928   0.00000  Uiso   1.00
O763   O     0.83333   0.81427   0.79072   0.00000  Uiso   1.00
O764   O     0.75828   0.75000   0.78132   0.00000  Uiso   1.00
O765   O     0.90839   0.75001   0.71868   0.00000  Uiso   1.00
O766   O     0.75828   0.75000   0.69989   0.00000  Uiso   1.00
O767   O     0.90839   0.75000   0.80011   0.00000  Uiso   1.00
O768   O     0.98797   0.72487   0.68925   0.00000  Uiso   1.00
loop_
_geom_bond_atom_site_label_1
_geom_bond_atom_site_label_2
_geom_bond_distance
_geom_bond_site_symmetry_2
_ccdc_geom_bond_type
C1     O58     1.289   .     A
C1     O51     1.290   .     A
C1     C14     1.460   .     S
C2     C4      1.423   .     A
C2     C27     1.410   .     A
C2     O56     1.382   .     S
C3     C28     1.423   .     A
C3     C22     1.412   .     A
C3     C388    1.510   1_554 S
C4     C23     1.412   .     A
C4     C387    1.510   .     S
C5     C7      1.447   .     S
C5     O62     1.288   .     A
C5     O60     1.281   .     A
C6     O63     1.288   .     A
C6     O61     1.281   .     A
C6     C8      1.447   .     S
C7     C136    1.354   1_455 S
C7     O192    1.389   1_455 S
C8     C71     1.354   .     S
C8     O116    1.389   .     S
C9     C11     1.393   .     A
C9     C20     1.398   .     A
C9     H35     1.084   .     S
C10    H41     1.084   .     S
C10    C21     1.398   .     A
C10    C13     1.393   .     A
C11    O53     1.381   .     S
C11    C14     1.419   .     A
C12    C15     1.460   .     S
C12    O59     1.290   .     A
C12    O57     1.290   .     A
C13    C15     1.419   .     A
C13    O54     1.380   .     S
C14    C16     1.402   .     A
C15    C17     1.402   .     A
C16    H42     1.084   .     S
C16    C18     1.390   .     A
C17    H43     1.084   .     S
C17    C19     1.390   .     A
C18    Cl29    1.762   .     S
C18    C20     1.403   .     A
C19    C21     1.403   .     A
C19    Cl30    1.762   .     S
C20    C213    1.458   1_545 S
C21    C212    1.458   .     S
C22    C24     1.408   .     A
C22    Cl31    1.760   .     S
C23    Cl32    1.760   .     S
C23    C25     1.408   .     A
C24    H44     1.082   .     S
C24    N49     1.363   .     A
C25    H45     1.082   .     S
C25    N50     1.363   .     A
C26    C28     1.410   .     A
C26    H46     1.082   .     S
C26    N49     1.363   .     A
C27    N50     1.363   .     A
C27    H47     1.082   .     S
C28    O55     1.382   .     S
Cu33   O51     1.952   .     S
Cu33   O63     1.974   .     S
Cu33   Cu34    2.666   .     S
Cu33   O59     1.952   .     S
Cu33   O60     1.972   .     S
Cu33   N50     2.003   .     S
Cu34   O57     1.952   .     S
Cu34   O58     1.952   .     S
Cu34   O62     1.974   .     S
Cu34   O61     1.972   .     S
Cu34   N49     2.003   .     S
H36    O116    0.991   .     S
H37    O53     0.989   .     S
H38    O54     0.989   .     S
H39    O439    0.989   .     S
H40    O440    0.989   1_554 S
H48    O192    0.991   1_455 S
O52    H164    0.991   1_455 S
O52    C136    1.389   1_455 S
O55    H423    0.989   1_554 S
O56    H424    0.989   .     S
O64    C71     1.389   .     S
O64    H112    0.991   .     S
C65    O122    1.289   .     A
C65    O115    1.290   .     A
C65    C78     1.460   .     S
C66    C68     1.423   .     A
C66    C91     1.410   .     A
C66    O120    1.382   .     S
C67    C92     1.423   .     A
C67    C86     1.412   .     A
C67    C452    1.510   1_554 S
C68    C87     1.412   .     A
C68    C451    1.510   .     S
C69    C71     1.447   .     S
C69    O126    1.288   .     A
C69    O124    1.281   .     A
C70    O127    1.288   .     A
C70    O125    1.281   .     A
C70    C72     1.447   .     S
C72    C135    1.354   .     S
C72    O180    1.389   .     S
C73    C75     1.393   .     A
C73    C84     1.398   .     A
C73    H99     1.084   .     S
C74    H105    1.084   .     S
C74    C85     1.398   .     A
C74    C77     1.393   .     A
C75    O117    1.381   .     S
C75    C78     1.419   .     A
C76    C79     1.460   .     S
C76    O123    1.290   .     A
C76    O121    1.290   .     A
C77    C79     1.419   .     A
C77    O118    1.380   .     S
C78    C80     1.402   .     A
C79    C81     1.402   .     A
C80    H106    1.084   .     S
C80    C82     1.390   .     A
C81    H107    1.084   .     S
C81    C83     1.390   .     A
C82    Cl93    1.762   .     S
C82    C84     1.403   .     A
C83    C85     1.403   .     A
C83    Cl94    1.762   .     S
C84    C277    1.458   1_545 S
C85    C276    1.458   .     S
C86    C88     1.408   .     A
C86    Cl95    1.760   .     S
C87    Cl96    1.760   .     S
C87    C89     1.408   .     A
C88    H108    1.082   .     S
C88    N113    1.363   .     A
C89    H109    1.082   .     S
C89    N114    1.363   .     A
C90    C92     1.410   .     A
C90    H110    1.082   .     S
C90    N113    1.363   .     A
C91    N114    1.363   .     A
C91    H111    1.082   .     S
C92    O119    1.382   .     S
Cu97   O115    1.952   .     S
Cu97   O127    1.974   .     S
Cu97   Cu98    2.666   .     S
Cu97   O123    1.952   .     S
Cu97   O124    1.972   .     S
Cu97   N114    2.003   .     S
Cu98   O121    1.952   .     S
Cu98   O122    1.952   .     S
Cu98   O126    1.974   .     S
Cu98   O125    1.972   .     S
Cu98   N113    2.003   .     S
H100   O180    0.991   .     S
H101   O117    0.989   .     S
H102   O118    0.989   .     S
H103   O503    0.989   .     S
H104   O504    0.989   1_554 S
O119   H487    0.989   1_554 S
O120   H488    0.989   .     S
O128   C135    1.389   .     S
O128   H176    0.991   .     S
C129   O186    1.289   .     A
C129   O179    1.290   .     A
C129   C142    1.460   .     S
C130   C132    1.423   .     A
C130   C155    1.410   .     A
C130   O184    1.382   .     S
C131   C156    1.423   .     A
C131   C150    1.412   .     A
C131   C516    1.510   1_554 S
C132   C151    1.412   .     A
C132   C515    1.510   .     S
C133   C135    1.447   .     S
C133   O190    1.288   .     A
C133   O188    1.281   .     A
C134   O191    1.288   .     A
C134   O189    1.281   .     A
C134   C136    1.447   .     S
C136   C7      1.354   1_655 S
C136   O52     1.389   1_655 S
C137   C139    1.393   .     A
C137   C148    1.398   .     A
C137   H163    1.084   .     S
C138   H169    1.084   .     S
C138   C149    1.398   .     A
C138   C141    1.393   .     A
C139   O181    1.381   .     S
C139   C142    1.419   .     A
C140   C143    1.460   .     S
C140   O187    1.290   .     A
C140   O185    1.290   .     A
C141   C143    1.419   .     A
C141   O182    1.380   .     S
C142   C144    1.402   .     A
C143   C145    1.402   .     A
C144   H170    1.084   .     S
C144   C146    1.390   .     A
C145   H171    1.084   .     S
C145   C147    1.390   .     A
C146   Cl157   1.762   .     S
C146   C148    1.403   .     A
C147   C149    1.403   .     A
C147   Cl158   1.762   .     S
C148   C341    1.458   1_545 S
C149   C340    1.458   .     S
C150   C152    1.408   .     A
C150   Cl159   1.760   .     S
C151   Cl160   1.760   .     S
C151   C153    1.408   .     A
C152   H172    1.082   .     S
C152   N177    1.363   .     A
C153   H173    1.082   .     S
C153   N178    1.363   .     A
C154   C156    1.410   .     A
C154   H174    1.082   .     S
C154   N177    1.363   .     A
C155   N178    1.363   .     A
C155   H175    1.082   .     S
C156   O183    1.382   .     S
Cu161  O179    1.952   .     S
Cu161  O191    1.974   .     S
Cu161  Cu162   2.666   .     S
Cu161  O187    1.952   .     S
Cu161  O188    1.972   .     S
Cu161  N178    2.003   .     S
Cu162  O185    1.952   .     S
Cu162  O186    1.952   .     S
Cu162  O190    1.974   .     S
Cu162  O189    1.972   .     S
Cu162  N177    2.003   .     S
H164   O52     0.991   1_655 S
H165   O181    0.989   .     S
H166   O182    0.989   .     S
H167   O567    0.989   .     S
H168   O568    0.989   1_554 S
O183   H551    0.989   1_554 S
O184   H552    0.989   .     S
O192   C7      1.389   1_655 S
O192   H48     0.991   1_655 S
C193   O250    1.289   .     A
C193   O243    1.290   .     A
C193   C206    1.460   .     S
C194   C196    1.423   .     A
C194   C219    1.410   .     A
C194   O248    1.382   .     S
C195   C220    1.423   .     A
C195   C214    1.412   .     A
C195   C580    1.510   1_554 S
C196   C215    1.412   .     A
C196   C579    1.510   .     S
C197   C199    1.447   .     S
C197   O254    1.288   .     A
C197   O252    1.281   .     A
C198   O255    1.288   .     A
C198   O253    1.281   .     A
C198   C200    1.447   .     S
C199   C328    1.354   1_455 S
C199   O384    1.389   1_455 S
C200   C263    1.354   .     S
C200   O308    1.389   .     S
C201   C203    1.393   .     A
C201   C212    1.398   .     A
C201   H227    1.084   .     S
C202   H233    1.084   .     S
C202   C213    1.398   .     A
C202   C205    1.393   .     A
C203   O245    1.381   .     S
C203   C206    1.419   .     A
C204   C207    1.460   .     S
C204   O251    1.290   .     A
C204   O249    1.290   .     A
C205   C207    1.419   .     A
C205   O246    1.380   .     S
C206   C208    1.402   .     A
C207   C209    1.402   .     A
C208   H234    1.084   .     S
C208   C210    1.390   .     A
C209   H235    1.084   .     S
C209   C211    1.390   .     A
C210   Cl221   1.762   .     S
C210   C212    1.403   .     A
C211   C213    1.403   .     A
C211   Cl222   1.762   .     S
C213   C20     1.458   1_565 S
C214   C216    1.408   .     A
C214   Cl223   1.760   .     S
C215   Cl224   1.760   .     S
C215   C217    1.408   .     A
C216   H236    1.082   .     S
C216   N241    1.363   .     A
C217   H237    1.082   .     S
C217   N242    1.363   .     A
C218   C220    1.410   .     A
C218   H238    1.082   .     S
C218   N241    1.363   .     A
C219   N242    1.363   .     A
C219   H239    1.082   .     S
C220   O247    1.382   .     S
Cu225  O243    1.952   .     S
Cu225  O255    1.974   .     S
Cu225  Cu226   2.666   .     S
Cu225  O251    1.952   .     S
Cu225  O252    1.972   .     S
Cu225  N242    2.003   .     S
Cu226  O249    1.952   .     S
Cu226  O250    1.952   .     S
Cu226  O254    1.974   .     S
Cu226  O253    1.972   .     S
Cu226  N241    2.003   .     S
H228   O308    0.991   .     S
H229   O245    0.989   .     S
H230   O246    0.989   .     S
H231   O631    0.989   .     S
H232   O632    0.989   1_554 S
H240   O384    0.991   1_455 S
O244   H356    0.991   1_455 S
O244   C328    1.389   1_455 S
O247   H615    0.989   1_554 S
O248   H616    0.989   .     S
O256   C263    1.389   .     S
O256   H304    0.991   .     S
C257   O314    1.289   .     A
C257   O307    1.290   .     A
C257   C270    1.460   .     S
C258   C260    1.423   .     A
C258   C283    1.410   .     A
C258   O312    1.382   .     S
C259   C284    1.423   .     A
C259   C278    1.412   .     A
C259   C644    1.510   1_554 S
C260   C279    1.412   .     A
C260   C643    1.510   .     S
C261   C263    1.447   .     S
C261   O318    1.288   .     A
C261   O316    1.281   .     A
C262   O319    1.288   .     A
C262   O317    1.281   .     A
C262   C264    1.447   .     S
C264   C327    1.354   .     S
C264   O372    1.389   .     S
C265   C267    1.393   .     A
C265   C276    1.398   .     A
C265   H291    1.084   .     S
C266   H297    1.084   .     S
C266   C277    1.398   .     A
C266   C269    1.393   .     A
C267   O309    1.381   .     S
C267   C270    1.419   .     A
C268   C271    1.460   .     S
C268   O315    1.290   .     A
C268   O313    1.290   .     A
C269   C271    1.419   .     A
C269   O310    1.380   .     S
C270   C272    1.402   .     A
C271   C273    1.402   .     A
C272   H298    1.084   .     S
C272   C274    1.390   .     A
C273   H299    1.084   .     S
C273   C275    1.390   .     A
C274   Cl285   1.762   .     S
C274   C276    1.403   .     A
C275   C277    1.403   .     A
C275   Cl286   1.762   .     S
C277   C84     1.458   1_565 S
C278   C280    1.408   .     A
C278   Cl287   1.760   .     S
C279   Cl288   1.760   .     S
C279   C281    1.408   .     A
C280   H300    1.082   .     S
C280   N305    1.363   .     A
C281   H301    1.082   .     S
C281   N306    1.363   .     A
C282   C284    1.410   .     A
C282   H302    1.082   .     S
C282   N305    1.363   .     A
C283   N306    1.363   .     A
C283   H303    1.082   .     S
C284   O311    1.382   .     S
Cu289  O307    1.952   .     S
Cu289  O319    1.974   .     S
Cu289  Cu290   2.666   .     S
Cu289  O315    1.952   .     S
Cu289  O316    1.972   .     S
Cu289  N306    2.003   .     S
Cu290  O313    1.952   .     S
Cu290  O314    1.952   .     S
Cu290  O318    1.974   .     S
Cu290  O317    1.972   .     S
Cu290  N305    2.003   .     S
H292   O372    0.991   .     S
H293   O309    0.989   .     S
H294   O310    0.989   .     S
H295   O695    0.989   .     S
H296   O696    0.989   1_554 S
O311   H679    0.989   1_554 S
O312   H680    0.989   .     S
O320   C327    1.389   .     S
O320   H368    0.991   .     S
C321   O378    1.289   .     A
C321   O371    1.290   .     A
C321   C334    1.460   .     S
C322   C324    1.423   .     A
C322   C347    1.410   .     A
C322   O376    1.382   .     S
C323   C348    1.423   .     A
C323   C342    1.412   .     A
C323   C708    1.510   1_554 S
C324   C343    1.412   .     A
C324   C707    1.510   .     S
C325   C327    1.447   .     S
C325   O382    1.288   .     A
C325   O380    1.281   .     A
C326   O383    1.288   .     A
C326   O381    1.281   .     A
C326   C328    1.447   .     S
C328   C199    1.354   1_655 S
C328   O244    1.389   1_655 S
C329   C331    1.393   .     A
C329   C340    1.398   .     A
C329   H355    1.084   .     S
C330   H361    1.084   .     S
C330   C341    1.398   .     A
C330   C333    1.393   .     A
C331   O373    1.381   .     S
C331   C334    1.419   .     A
C332   C335    1.460   .     S
C332   O379    1.290   .     A
C332   O377    1.290   .     A
C333   C335    1.419   .     A
C333   O374    1.380   .     S
C334   C336    1.402   .     A
C335   C337    1.402   .     A
C336   H362    1.084   .     S
C336   C338    1.390   .     A
C337   H363    1.084   .     S
C337   C339    1.390   .     A
C338   Cl349   1.762   .     S
C338   C340    1.403   .     A
C339   C341    1.403   .     A
C339   Cl350   1.762   .     S
C341   C148    1.458   1_565 S
C342   C344    1.408   .     A
C342   Cl351   1.760   .     S
C343   Cl352   1.760   .     S
C343   C345    1.408   .     A
C344   H364    1.082   .     S
C344   N369    1.363   .     A
C345   H365    1.082   .     S
C345   N370    1.363   .     A
C346   C348    1.410   .     A
C346   H366    1.082   .     S
C346   N369    1.363   .     A
C347   N370    1.363   .     A
C347   H367    1.082   .     S
C348   O375    1.382   .     S
Cu353  O371    1.952   .     S
Cu353  O383    1.974   .     S
Cu353  Cu354   2.666   .     S
Cu353  O379    1.952   .     S
Cu353  O380    1.972   .     S
Cu353  N370    2.003   .     S
Cu354  O377    1.952   .     S
Cu354  O378    1.952   .     S
Cu354  O382    1.974   .     S
Cu354  O381    1.972   .     S
Cu354  N369    2.003   .     S
H356   O244    0.991   1_655 S
H357   O373    0.989   .     S
H358   O374    0.989   .     S
H359   O759    0.989   .     S
H360   O760    0.989   1_554 S
O375   H743    0.989   1_554 S
O376   H744    0.989   .     S
O384   C199    1.389   1_655 S
O384   H240    0.991   1_655 S
C385   O442    1.289   .     A
C385   O435    1.290   .     A
C385   C398    1.460   .     S
C386   C388    1.423   .     A
C386   C411    1.410   .     A
C386   O440    1.382   .     S
C387   C412    1.423   .     A
C387   C406    1.412   .     A
C388   C407    1.412   .     A
C388   C3      1.510   1_556 S
C389   C391    1.447   .     S
C389   O446    1.288   .     A
C389   O444    1.281   .     A
C390   O447    1.288   .     A
C390   O445    1.281   .     A
C390   C392    1.447   .     S
C391   C520    1.354   1_455 S
C391   O576    1.389   1_455 S
C392   C455    1.354   .     S
C392   O500    1.389   .     S
C393   C395    1.393   .     A
C393   C404    1.398   .     A
C393   H419    1.084   .     S
C394   H425    1.084   .     S
C394   C405    1.398   .     A
C394   C397    1.393   .     A
C395   O437    1.381   .     S
C395   C398    1.419   .     A
C396   C399    1.460   .     S
C396   O443    1.290   .     A
C396   O441    1.290   .     A
C397   C399    1.419   .     A
C397   O438    1.380   .     S
C398   C400    1.402   .     A
C399   C401    1.402   .     A
C400   H426    1.084   .     S
C400   C402    1.390   .     A
C401   H427    1.084   .     S
C401   C403    1.390   .     A
C402   Cl413   1.762   .     S
C402   C404    1.403   .     A
C403   C405    1.403   .     A
C403   Cl414   1.762   .     S
C404   C597    1.458   1_545 S
C405   C596    1.458   .     S
C406   C408    1.408   .     A
C406   Cl415   1.760   .     S
C407   Cl416   1.760   .     S
C407   C409    1.408   .     A
C408   H428    1.082   .     S
C408   N433    1.363   .     A
C409   H429    1.082   .     S
C409   N434    1.363   .     A
C410   C412    1.410   .     A
C410   H430    1.082   .     S
C410   N433    1.363   .     A
C411   N434    1.363   .     A
C411   H431    1.082   .     S
C412   O439    1.382   .     S
Cu417  O435    1.952   .     S
Cu417  O447    1.974   .     S
Cu417  Cu418   2.666   .     S
Cu417  O443    1.952   .     S
Cu417  O444    1.972   .     S
Cu417  N434    2.003   .     S
Cu418  O441    1.952   .     S
Cu418  O442    1.952   .     S
Cu418  O446    1.974   .     S
Cu418  O445    1.972   .     S
Cu418  N433    2.003   .     S
H420   O500    0.991   .     S
H421   O437    0.989   .     S
H422   O438    0.989   .     S
H423   O55     0.989   1_556 S
H432   O576    0.991   1_455 S
O436   H548    0.991   1_455 S
O436   C520    1.389   1_455 S
O440   H40     0.989   1_556 S
O448   C455    1.389   .     S
O448   H496    0.991   .     S
C449   O506    1.289   .     A
C449   O499    1.290   .     A
C449   C462    1.460   .     S
C450   C452    1.423   .     A
C450   C475    1.410   .     A
C450   O504    1.382   .     S
C451   C476    1.423   .     A
C451   C470    1.412   .     A
C452   C471    1.412   .     A
C452   C67     1.510   1_556 S
C453   C455    1.447   .     S
C453   O510    1.288   .     A
C453   O508    1.281   .     A
C454   O511    1.288   .     A
C454   O509    1.281   .     A
C454   C456    1.447   .     S
C456   C519    1.354   .     S
C456   O564    1.389   .     S
C457   C459    1.393   .     A
C457   C468    1.398   .     A
C457   H483    1.084   .     S
C458   H489    1.084   .     S
C458   C469    1.398   .     A
C458   C461    1.393   .     A
C459   O501    1.381   .     S
C459   C462    1.419   .     A
C460   C463    1.460   .     S
C460   O507    1.290   .     A
C460   O505    1.290   .     A
C461   C463    1.419   .     A
C461   O502    1.380   .     S
C462   C464    1.402   .     A
C463   C465    1.402   .     A
C464   H490    1.084   .     S
C464   C466    1.390   .     A
C465   H491    1.084   .     S
C465   C467    1.390   .     A
C466   Cl477   1.762   .     S
C466   C468    1.403   .     A
C467   C469    1.403   .     A
C467   Cl478   1.762   .     S
C468   C661    1.458   1_545 S
C469   C660    1.458   .     S
C470   C472    1.408   .     A
C470   Cl479   1.760   .     S
C471   Cl480   1.760   .     S
C471   C473    1.408   .     A
C472   H492    1.082   .     S
C472   N497    1.363   .     A
C473   H493    1.082   .     S
C473   N498    1.363   .     A
C474   C476    1.410   .     A
C474   H494    1.082   .     S
C474   N497    1.363   .     A
C475   N498    1.363   .     A
C475   H495    1.082   .     S
C476   O503    1.382   .     S
Cu481  O499    1.952   .     S
Cu481  O511    1.974   .     S
Cu481  Cu482   2.666   .     S
Cu481  O507    1.952   .     S
Cu481  O508    1.972   .     S
Cu481  N498    2.003   .     S
Cu482  O505    1.952   .     S
Cu482  O506    1.952   .     S
Cu482  O510    1.974   .     S
Cu482  O509    1.972   .     S
Cu482  N497    2.003   .     S
H484   O564    0.991   .     S
H485   O501    0.989   .     S
H486   O502    0.989   .     S
H487   O119    0.989   1_556 S
O504   H104    0.989   1_556 S
O512   C519    1.389   .     S
O512   H560    0.991   .     S
C513   O570    1.289   .     A
C513   O563    1.290   .     A
C513   C526    1.460   .     S
C514   C516    1.423   .     A
C514   C539    1.410   .     A
C514   O568    1.382   .     S
C515   C540    1.423   .     A
C515   C534    1.412   .     A
C516   C535    1.412   .     A
C516   C131    1.510   1_556 S
C517   C519    1.447   .     S
C517   O574    1.288   .     A
C517   O572    1.281   .     A
C518   O575    1.288   .     A
C518   O573    1.281   .     A
C518   C520    1.447   .     S
C520   C391    1.354   1_655 S
C520   O436    1.389   1_655 S
C521   C523    1.393   .     A
C521   C532    1.398   .     A
C521   H547    1.084   .     S
C522   H553    1.084   .     S
C522   C533    1.398   .     A
C522   C525    1.393   .     A
C523   O565    1.381   .     S
C523   C526    1.419   .     A
C524   C527    1.460   .     S
C524   O571    1.290   .     A
C524   O569    1.290   .     A
C525   C527    1.419   .     A
C525   O566    1.380   .     S
C526   C528    1.402   .     A
C527   C529    1.402   .     A
C528   H554    1.084   .     S
C528   C530    1.390   .     A
C529   H555    1.084   .     S
C529   C531    1.390   .     A
C530   Cl541   1.762   .     S
C530   C532    1.403   .     A
C531   C533    1.403   .     A
C531   Cl542   1.762   .     S
C532   C725    1.458   1_545 S
C533   C724    1.458   .     S
C534   C536    1.408   .     A
C534   Cl543   1.760   .     S
C535   Cl544   1.760   .     S
C535   C537    1.408   .     A
C536   H556    1.082   .     S
C536   N561    1.363   .     A
C537   H557    1.082   .     S
C537   N562    1.363   .     A
C538   C540    1.410   .     A
C538   H558    1.082   .     S
C538   N561    1.363   .     A
C539   N562    1.363   .     A
C539   H559    1.082   .     S
C540   O567    1.382   .     S
Cu545  O563    1.952   .     S
Cu545  O575    1.974   .     S
Cu545  Cu546   2.666   .     S
Cu545  O571    1.952   .     S
Cu545  O572    1.972   .     S
Cu545  N562    2.003   .     S
Cu546  O569    1.952   .     S
Cu546  O570    1.952   .     S
Cu546  O574    1.974   .     S
Cu546  O573    1.972   .     S
Cu546  N561    2.003   .     S
H548   O436    0.991   1_655 S
H549   O565    0.989   .     S
H550   O566    0.989   .     S
H551   O183    0.989   1_556 S
O568   H168    0.989   1_556 S
O576   C391    1.389   1_655 S
O576   H432    0.991   1_655 S
C577   O634    1.289   .     A
C577   O627    1.290   .     A
C577   C590    1.460   .     S
C578   C580    1.423   .     A
C578   C603    1.410   .     A
C578   O632    1.382   .     S
C579   C604    1.423   .     A
C579   C598    1.412   .     A
C580   C599    1.412   .     A
C580   C195    1.510   1_556 S
C581   C583    1.447   .     S
C581   O638    1.288   .     A
C581   O636    1.281   .     A
C582   O639    1.288   .     A
C582   O637    1.281   .     A
C582   C584    1.447   .     S
C583   C712    1.354   1_455 S
C583   O768    1.389   1_455 S
C584   C647    1.354   .     S
C584   O692    1.389   .     S
C585   C587    1.393   .     A
C585   C596    1.398   .     A
C585   H611    1.084   .     S
C586   H617    1.084   .     S
C586   C597    1.398   .     A
C586   C589    1.393   .     A
C587   O629    1.381   .     S
C587   C590    1.419   .     A
C588   C591    1.460   .     S
C588   O635    1.290   .     A
C588   O633    1.290   .     A
C589   C591    1.419   .     A
C589   O630    1.380   .     S
C590   C592    1.402   .     A
C591   C593    1.402   .     A
C592   H618    1.084   .     S
C592   C594    1.390   .     A
C593   H619    1.084   .     S
C593   C595    1.390   .     A
C594   Cl605   1.762   .     S
C594   C596    1.403   .     A
C595   C597    1.403   .     A
C595   Cl606   1.762   .     S
C597   C404    1.458   1_565 S
C598   C600    1.408   .     A
C598   Cl607   1.760   .     S
C599   Cl608   1.760   .     S
C599   C601    1.408   .     A
C600   H620    1.082   .     S
C600   N625    1.363   .     A
C601   H621    1.082   .     S
C601   N626    1.363   .     A
C602   C604    1.410   .     A
C602   H622    1.082   .     S
C602   N625    1.363   .     A
C603   N626    1.363   .     A
C603   H623    1.082   .     S
C604   O631    1.382   .     S
Cu609  O627    1.952   .     S
Cu609  O639    1.974   .     S
Cu609  Cu610   2.666   .     S
Cu609  O635    1.952   .     S
Cu609  O636    1.972   .     S
Cu609  N626    2.003   .     S
Cu610  O633    1.952   .     S
Cu610  O634    1.952   .     S
Cu610  O638    1.974   .     S
Cu610  O637    1.972   .     S
Cu610  N625    2.003   .     S
H612   O692    0.991   .     S
H613   O629    0.989   .     S
H614   O630    0.989   .     S
H615   O247    0.989   1_556 S
H624   O768    0.991   1_455 S
O628   H740    0.991   1_455 S
O628   C712    1.389   1_455 S
O632   H232    0.989   1_556 S
O640   C647    1.389   .     S
O640   H688    0.991   .     S
C641   O698    1.289   .     A
C641   O691    1.290   .     A
C641   C654    1.460   .     S
C642   C644    1.423   .     A
C642   C667    1.410   .     A
C642   O696    1.382   .     S
C643   C668    1.423   .     A
C643   C662    1.412   .     A
C644   C663    1.412   .     A
C644   C259    1.510   1_556 S
C645   C647    1.447   .     S
C645   O702    1.288   .     A
C645   O700    1.281   .     A
C646   O703    1.288   .     A
C646   O701    1.281   .     A
C646   C648    1.447   .     S
C648   C711    1.354   .     S
C648   O756    1.389   .     S
C649   C651    1.393   .     A
C649   C660    1.398   .     A
C649   H675    1.084   .     S
C650   H681    1.084   .     S
C650   C661    1.398   .     A
C650   C653    1.393   .     A
C651   O693    1.381   .     S
C651   C654    1.419   .     A
C652   C655    1.460   .     S
C652   O699    1.290   .     A
C652   O697    1.290   .     A
C653   C655    1.419   .     A
C653   O694    1.380   .     S
C654   C656    1.402   .     A
C655   C657    1.402   .     A
C656   H682    1.084   .     S
C656   C658    1.390   .     A
C657   H683    1.084   .     S
C657   C659    1.390   .     A
C658   Cl669   1.762   .     S
C658   C660    1.403   .     A
C659   C661    1.403   .     A
C659   Cl670   1.762   .     S
C661   C468    1.458   1_565 S
C662   C664    1.408   .     A
C662   Cl671   1.760   .     S
C663   Cl672   1.760   .     S
C663   C665    1.408   .     A
C664   H684    1.082   .     S
C664   N689    1.363   .     A
C665   H685    1.082   .     S
C665   N690    1.363   .     A
C666   C668    1.410   .     A
C666   H686    1.082   .     S
C666   N689    1.363   .     A
C667   N690    1.363   .     A
C667   H687    1.082   .     S
C668   O695    1.382   .     S
Cu673  O691    1.952   .     S
Cu673  O703    1.974   .     S
Cu673  Cu674   2.666   .     S
Cu673  O699    1.952   .     S
Cu673  O700    1.972   .     S
Cu673  N690    2.003   .     S
Cu674  O697    1.952   .     S
Cu674  O698    1.952   .     S
Cu674  O702    1.974   .     S
Cu674  O701    1.972   .     S
Cu674  N689    2.003   .     S
H676   O756    0.991   .     S
H677   O693    0.989   .     S
H678   O694    0.989   .     S
H679   O311    0.989   1_556 S
O696   H296    0.989   1_556 S
O704   C711    1.389   .     S
O704   H752    0.991   .     S
C705   O762    1.289   .     A
C705   O755    1.290   .     A
C705   C718    1.460   .     S
C706   C708    1.423   .     A
C706   C731    1.410   .     A
C706   O760    1.382   .     S
C707   C732    1.423   .     A
C707   C726    1.412   .     A
C708   C727    1.412   .     A
C708   C323    1.510   1_556 S
C709   C711    1.447   .     S
C709   O766    1.288   .     A
C709   O764    1.281   .     A
C710   O767    1.288   .     A
C710   O765    1.281   .     A
C710   C712    1.447   .     S
C712   C583    1.354   1_655 S
C712   O628    1.389   1_655 S
C713   C715    1.393   .     A
C713   C724    1.398   .     A
C713   H739    1.084   .     S
C714   H745    1.084   .     S
C714   C725    1.398   .     A
C714   C717    1.393   .     A
C715   O757    1.381   .     S
C715   C718    1.419   .     A
C716   C719    1.460   .     S
C716   O763    1.290   .     A
C716   O761    1.290   .     A
C717   C719    1.419   .     A
C717   O758    1.380   .     S
C718   C720    1.402   .     A
C719   C721    1.402   .     A
C720   H746    1.084   .     S
C720   C722    1.390   .     A
C721   H747    1.084   .     S
C721   C723    1.390   .     A
C722   Cl733   1.762   .     S
C722   C724    1.403   .     A
C723   C725    1.403   .     A
C723   Cl734   1.762   .     S
C725   C532    1.458   1_565 S
C726   C728    1.408   .     A
C726   Cl735   1.760   .     S
C727   Cl736   1.760   .     S
C727   C729    1.408   .     A
C728   H748    1.082   .     S
C728   N753    1.363   .     A
C729   H749    1.082   .     S
C729   N754    1.363   .     A
C730   C732    1.410   .     A
C730   H750    1.082   .     S
C730   N753    1.363   .     A
C731   N754    1.363   .     A
C731   H751    1.082   .     S
C732   O759    1.382   .     S
Cu737  O755    1.952   .     S
Cu737  O767    1.974   .     S
Cu737  Cu738   2.666   .     S
Cu737  O763    1.952   .     S
Cu737  O764    1.972   .     S
Cu737  N754    2.003   .     S
Cu738  O761    1.952   .     S
Cu738  O762    1.952   .     S
Cu738  O766    1.974   .     S
Cu738  O765    1.972   .     S
Cu738  N753    2.003   .     S
H740   O628    0.991   1_655 S
H741   O757    0.989   .     S
H742   O758    0.989   .     S
H743   O375    0.989   1_556 S
O760   H360    0.989   1_556 S
O768   C583    1.389   1_655 S
O768   H624    0.991   1_655 S
