data_str_m2_o1_o1_pcu_sym.21
_audit_creation_date              2020-01-03
_audit_creation_method            'Materials Studio'
_symmetry_space_group_name_H-M    'P1'
_symmetry_Int_Tables_number       1
_symmetry_cell_setting            triclinic
loop_
_symmetry_equiv_pos_as_xyz
  x,y,z
_cell_length_a                    31.5976
_cell_length_b                    29.7836
_cell_length_c                    29.0573
_cell_angle_alpha                 90.0078
_cell_angle_beta                  90.0040
_cell_angle_gamma                 90.0063
loop_
_atom_site_label
_atom_site_type_symbol
_atom_site_fract_x
_atom_site_fract_y
_atom_site_fract_z
_atom_site_U_iso_or_equiv
_atom_site_adp_type
_atom_site_occupancy
C1     C     0.06198   0.19363   0.16651   0.00000  Uiso   1.00
C2     C     0.49951   0.28967   0.30869   0.00000  Uiso   1.00
C3     C     0.00051   0.28967   0.02466   0.00000  Uiso   1.00
C4     C     0.00049   0.21033   0.30868   0.00000  Uiso   1.00
C5     C     0.25049   0.46033   0.02464   0.00000  Uiso   1.00
C6     C     0.25052   0.03967   0.30869   0.00000  Uiso   1.00
C7     C     0.24951   0.03967   0.02465   0.00000  Uiso   1.00
C8     C     0.24949   0.46033   0.30868   0.00000  Uiso   1.00
C9     C     0.38429   0.14752   0.12564   0.00000  Uiso   1.00
C10    C     0.11150   0.35759   0.20883   0.00000  Uiso   1.00
C11    C     0.11570   0.35246   0.12564   0.00000  Uiso   1.00
C12    C     0.43802   0.30637   0.16651   0.00000  Uiso   1.00
C13    C     0.38850   0.14243   0.20883   0.00000  Uiso   1.00
C14    C     0.11571   0.14753   0.20769   0.00000  Uiso   1.00
C15    C     0.38849   0.35758   0.12451   0.00000  Uiso   1.00
C16    C     0.38430   0.35249   0.20769   0.00000  Uiso   1.00
C17    C     0.11150   0.14240   0.12451   0.00000  Uiso   1.00
C18    C     0.13850   0.39241   0.12450   0.00000  Uiso   1.00
C19    C     0.36571   0.10248   0.20770   0.00000  Uiso   1.00
C20    C     0.36150   0.10757   0.12450   0.00000  Uiso   1.00
C21    C     0.13430   0.39754   0.20769   0.00000  Uiso   1.00
C22    C     0.36151   0.39242   0.20883   0.00000  Uiso   1.00
C23    C     0.43802   0.19363   0.16682   0.00000  Uiso   1.00
C24    C     0.13429   0.10247   0.12565   0.00000  Uiso   1.00
C25    C     0.13850   0.10760   0.20883   0.00000  Uiso   1.00
C26    C     0.36570   0.39751   0.12564   0.00000  Uiso   1.00
C27    C     0.09824   0.33747   0.16733   0.00000  Uiso   1.00
C28    C     0.40176   0.16253   0.16733   0.00000  Uiso   1.00
C29    C     0.40176   0.33747   0.16600   0.00000  Uiso   1.00
C30    C     0.09824   0.16253   0.16600   0.00000  Uiso   1.00
C31    C     0.34824   0.08747   0.16601   0.00000  Uiso   1.00
C32    C     0.15176   0.41253   0.16600   0.00000  Uiso   1.00
C33    C     0.15176   0.08747   0.16733   0.00000  Uiso   1.00
C34    C     0.06198   0.30637   0.16682   0.00000  Uiso   1.00
C35    C     0.34824   0.41253   0.16733   0.00000  Uiso   1.00
C36    C     0.31198   0.44363   0.16682   0.00000  Uiso   1.00
C37    C     0.18802   0.05637   0.16682   0.00000  Uiso   1.00
C38    C     0.18802   0.44363   0.16651   0.00000  Uiso   1.00
C39    C     0.31198   0.05637   0.16652   0.00000  Uiso   1.00
C40    C     0.49948   0.21033   0.02464   0.00000  Uiso   1.00
Cu41   Cu    0.00000   0.25000   0.21355   0.00000  Uiso   1.00
Cu42   Cu    0.00000   0.25000   0.11978   0.00000  Uiso   1.00
Cu43   Cu    0.25000   0.00000   0.21355   0.00000  Uiso   1.00
Cu44   Cu    0.25000   0.00000   0.11978   0.00000  Uiso   1.00
I45    I     0.49663   0.14631   0.05908   0.00000  Uiso   1.00
I46    I     0.11242   0.32176   0.27228   0.00000  Uiso   1.00
I47    I     0.12122   0.30874   0.06778   0.00000  Uiso   1.00
I48    I     0.38758   0.17829   0.27227   0.00000  Uiso   1.00
I49    I     0.12117   0.19117   0.26558   0.00000  Uiso   1.00
I50    I     0.38761   0.32180   0.06103   0.00000  Uiso   1.00
I51    I     0.37885   0.30888   0.26559   0.00000  Uiso   1.00
I52    I     0.11237   0.17816   0.06102   0.00000  Uiso   1.00
I53    I     0.13758   0.42824   0.06105   0.00000  Uiso   1.00
I54    I     0.37122   0.05878   0.26556   0.00000  Uiso   1.00
I55    I     0.36242   0.07172   0.06106   0.00000  Uiso   1.00
I56    I     0.49670   0.35369   0.27426   0.00000  Uiso   1.00
I57    I     0.12878   0.44126   0.26555   0.00000  Uiso   1.00
I58    I     0.36239   0.42821   0.27230   0.00000  Uiso   1.00
I59    I     0.12883   0.05884   0.06775   0.00000  Uiso   1.00
I60    I     0.13763   0.07184   0.27231   0.00000  Uiso   1.00
I61    I     0.37115   0.44112   0.06774   0.00000  Uiso   1.00
I62    I     0.00335   0.35369   0.05910   0.00000  Uiso   1.00
I63    I     0.00331   0.14631   0.27424   0.00000  Uiso   1.00
I64    I     0.25330   0.39631   0.05907   0.00000  Uiso   1.00
I65    I     0.25337   0.10369   0.27426   0.00000  Uiso   1.00
I66    I     0.24669   0.10369   0.05910   0.00000  Uiso   1.00
I67    I     0.24665   0.39631   0.27423   0.00000  Uiso   1.00
I68    I     0.37878   0.19122   0.06777   0.00000  Uiso   1.00
N69    N     0.00000   0.25000   0.28402   0.00000  Uiso   1.00
N70    N     0.00000   0.25000   0.04931   0.00000  Uiso   1.00
N71    N     0.25000   0.00000   0.28402   0.00000  Uiso   1.00
N72    N     0.25000   0.00000   0.04931   0.00000  Uiso   1.00
O73    O     0.04509   0.20491   0.20625   0.00000  Uiso   1.00
O74    O     0.20492   0.04509   0.12709   0.00000  Uiso   1.00
O75    O     0.20492   0.04509   0.20625   0.00000  Uiso   1.00
O76    O     0.29509   0.45491   0.12709   0.00000  Uiso   1.00
O77    O     0.20492   0.45491   0.12709   0.00000  Uiso   1.00
O78    O     0.29509   0.04509   0.20625   0.00000  Uiso   1.00
O79    O     0.29509   0.04509   0.12709   0.00000  Uiso   1.00
O80    O     0.20492   0.45491   0.20625   0.00000  Uiso   1.00
O81    O     0.45492   0.29509   0.12709   0.00000  Uiso   1.00
O82    O     0.45492   0.29509   0.20625   0.00000  Uiso   1.00
O83    O     0.04509   0.20491   0.12709   0.00000  Uiso   1.00
O84    O     0.45492   0.20491   0.12709   0.00000  Uiso   1.00
O85    O     0.04509   0.29509   0.20625   0.00000  Uiso   1.00
O86    O     0.04509   0.29509   0.12709   0.00000  Uiso   1.00
O87    O     0.45492   0.20491   0.20625   0.00000  Uiso   1.00
O88    O     0.29509   0.45491   0.20625   0.00000  Uiso   1.00
C89    C     0.56198   0.19363   0.16651   0.00000  Uiso   1.00
C90    C     0.99951   0.28967   0.30869   0.00000  Uiso   1.00
C91    C     0.50051   0.28967   0.02466   0.00000  Uiso   1.00
C92    C     0.50049   0.21033   0.30868   0.00000  Uiso   1.00
C93    C     0.75049   0.46033   0.02464   0.00000  Uiso   1.00
C94    C     0.75052   0.03967   0.30869   0.00000  Uiso   1.00
C95    C     0.74951   0.03967   0.02465   0.00000  Uiso   1.00
C96    C     0.74949   0.46033   0.30868   0.00000  Uiso   1.00
C97    C     0.88429   0.14752   0.12564   0.00000  Uiso   1.00
C98    C     0.61150   0.35759   0.20883   0.00000  Uiso   1.00
C99    C     0.61570   0.35246   0.12564   0.00000  Uiso   1.00
C100   C     0.93802   0.30637   0.16651   0.00000  Uiso   1.00
C101   C     0.88850   0.14243   0.20883   0.00000  Uiso   1.00
C102   C     0.61571   0.14753   0.20769   0.00000  Uiso   1.00
C103   C     0.88849   0.35758   0.12451   0.00000  Uiso   1.00
C104   C     0.88430   0.35249   0.20769   0.00000  Uiso   1.00
C105   C     0.61150   0.14240   0.12451   0.00000  Uiso   1.00
C106   C     0.63850   0.39241   0.12450   0.00000  Uiso   1.00
C107   C     0.86571   0.10248   0.20770   0.00000  Uiso   1.00
C108   C     0.86150   0.10757   0.12450   0.00000  Uiso   1.00
C109   C     0.63430   0.39754   0.20769   0.00000  Uiso   1.00
C110   C     0.86151   0.39242   0.20883   0.00000  Uiso   1.00
C111   C     0.93802   0.19363   0.16682   0.00000  Uiso   1.00
C112   C     0.63429   0.10247   0.12565   0.00000  Uiso   1.00
C113   C     0.63850   0.10760   0.20883   0.00000  Uiso   1.00
C114   C     0.86570   0.39751   0.12564   0.00000  Uiso   1.00
C115   C     0.59824   0.33747   0.16733   0.00000  Uiso   1.00
C116   C     0.90176   0.16253   0.16733   0.00000  Uiso   1.00
C117   C     0.90176   0.33747   0.16600   0.00000  Uiso   1.00
C118   C     0.59824   0.16253   0.16600   0.00000  Uiso   1.00
C119   C     0.84824   0.08747   0.16601   0.00000  Uiso   1.00
C120   C     0.65176   0.41253   0.16600   0.00000  Uiso   1.00
C121   C     0.65176   0.08747   0.16733   0.00000  Uiso   1.00
C122   C     0.56198   0.30637   0.16682   0.00000  Uiso   1.00
C123   C     0.84824   0.41253   0.16733   0.00000  Uiso   1.00
C124   C     0.81198   0.44363   0.16682   0.00000  Uiso   1.00
C125   C     0.68802   0.05637   0.16682   0.00000  Uiso   1.00
C126   C     0.68802   0.44363   0.16651   0.00000  Uiso   1.00
C127   C     0.81198   0.05637   0.16652   0.00000  Uiso   1.00
C128   C     0.99948   0.21033   0.02464   0.00000  Uiso   1.00
Cu129  Cu    0.50000   0.25000   0.21355   0.00000  Uiso   1.00
Cu130  Cu    0.50000   0.25000   0.11978   0.00000  Uiso   1.00
Cu131  Cu    0.75000   0.00000   0.21355   0.00000  Uiso   1.00
Cu132  Cu    0.75000   0.00000   0.11978   0.00000  Uiso   1.00
I133   I     0.99663   0.14631   0.05908   0.00000  Uiso   1.00
I134   I     0.61242   0.32176   0.27228   0.00000  Uiso   1.00
I135   I     0.62122   0.30874   0.06778   0.00000  Uiso   1.00
I136   I     0.88758   0.17829   0.27227   0.00000  Uiso   1.00
I137   I     0.62117   0.19117   0.26558   0.00000  Uiso   1.00
I138   I     0.88761   0.32180   0.06103   0.00000  Uiso   1.00
I139   I     0.87885   0.30888   0.26559   0.00000  Uiso   1.00
I140   I     0.61237   0.17816   0.06102   0.00000  Uiso   1.00
I141   I     0.63758   0.42824   0.06105   0.00000  Uiso   1.00
I142   I     0.87122   0.05878   0.26556   0.00000  Uiso   1.00
I143   I     0.86242   0.07172   0.06106   0.00000  Uiso   1.00
I144   I     0.99670   0.35369   0.27426   0.00000  Uiso   1.00
I145   I     0.62878   0.44126   0.26555   0.00000  Uiso   1.00
I146   I     0.86239   0.42821   0.27230   0.00000  Uiso   1.00
I147   I     0.62883   0.05884   0.06775   0.00000  Uiso   1.00
I148   I     0.63763   0.07184   0.27231   0.00000  Uiso   1.00
I149   I     0.87115   0.44112   0.06774   0.00000  Uiso   1.00
I150   I     0.50335   0.35369   0.05910   0.00000  Uiso   1.00
I151   I     0.50331   0.14631   0.27424   0.00000  Uiso   1.00
I152   I     0.75330   0.39631   0.05907   0.00000  Uiso   1.00
I153   I     0.75337   0.10369   0.27426   0.00000  Uiso   1.00
I154   I     0.74669   0.10369   0.05910   0.00000  Uiso   1.00
I155   I     0.74665   0.39631   0.27423   0.00000  Uiso   1.00
I156   I     0.87878   0.19122   0.06777   0.00000  Uiso   1.00
N157   N     0.50000   0.25000   0.28402   0.00000  Uiso   1.00
N158   N     0.50000   0.25000   0.04931   0.00000  Uiso   1.00
N159   N     0.75000   0.00000   0.28402   0.00000  Uiso   1.00
N160   N     0.75000   0.00000   0.04931   0.00000  Uiso   1.00
O161   O     0.54509   0.20491   0.20625   0.00000  Uiso   1.00
O162   O     0.70492   0.04509   0.12709   0.00000  Uiso   1.00
O163   O     0.70492   0.04509   0.20625   0.00000  Uiso   1.00
O164   O     0.79509   0.45491   0.12709   0.00000  Uiso   1.00
O165   O     0.70492   0.45491   0.12709   0.00000  Uiso   1.00
O166   O     0.79509   0.04509   0.20625   0.00000  Uiso   1.00
O167   O     0.79509   0.04509   0.12709   0.00000  Uiso   1.00
O168   O     0.70492   0.45491   0.20625   0.00000  Uiso   1.00
O169   O     0.95492   0.29509   0.12709   0.00000  Uiso   1.00
O170   O     0.95492   0.29509   0.20625   0.00000  Uiso   1.00
O171   O     0.54509   0.20491   0.12709   0.00000  Uiso   1.00
O172   O     0.95492   0.20491   0.12709   0.00000  Uiso   1.00
O173   O     0.54509   0.29509   0.20625   0.00000  Uiso   1.00
O174   O     0.54509   0.29509   0.12709   0.00000  Uiso   1.00
O175   O     0.95492   0.20491   0.20625   0.00000  Uiso   1.00
O176   O     0.79509   0.45491   0.20625   0.00000  Uiso   1.00
C177   C     0.06198   0.69363   0.16651   0.00000  Uiso   1.00
C178   C     0.49951   0.78967   0.30869   0.00000  Uiso   1.00
C179   C     0.00051   0.78967   0.02466   0.00000  Uiso   1.00
C180   C     0.00049   0.71033   0.30868   0.00000  Uiso   1.00
C181   C     0.25049   0.96033   0.02464   0.00000  Uiso   1.00
C182   C     0.25052   0.53967   0.30869   0.00000  Uiso   1.00
C183   C     0.24951   0.53967   0.02465   0.00000  Uiso   1.00
C184   C     0.24949   0.96033   0.30868   0.00000  Uiso   1.00
C185   C     0.38429   0.64752   0.12564   0.00000  Uiso   1.00
C186   C     0.11150   0.85759   0.20883   0.00000  Uiso   1.00
C187   C     0.11570   0.85246   0.12564   0.00000  Uiso   1.00
C188   C     0.43802   0.80637   0.16651   0.00000  Uiso   1.00
C189   C     0.38850   0.64243   0.20883   0.00000  Uiso   1.00
C190   C     0.11571   0.64753   0.20769   0.00000  Uiso   1.00
C191   C     0.38849   0.85758   0.12451   0.00000  Uiso   1.00
C192   C     0.38430   0.85249   0.20769   0.00000  Uiso   1.00
C193   C     0.11150   0.64240   0.12451   0.00000  Uiso   1.00
C194   C     0.13850   0.89241   0.12450   0.00000  Uiso   1.00
C195   C     0.36571   0.60248   0.20770   0.00000  Uiso   1.00
C196   C     0.36150   0.60757   0.12450   0.00000  Uiso   1.00
C197   C     0.13430   0.89754   0.20769   0.00000  Uiso   1.00
C198   C     0.36151   0.89242   0.20883   0.00000  Uiso   1.00
C199   C     0.43802   0.69363   0.16682   0.00000  Uiso   1.00
C200   C     0.13429   0.60247   0.12565   0.00000  Uiso   1.00
C201   C     0.13850   0.60760   0.20883   0.00000  Uiso   1.00
C202   C     0.36570   0.89751   0.12564   0.00000  Uiso   1.00
C203   C     0.09824   0.83747   0.16733   0.00000  Uiso   1.00
C204   C     0.40176   0.66253   0.16733   0.00000  Uiso   1.00
C205   C     0.40176   0.83747   0.16600   0.00000  Uiso   1.00
C206   C     0.09824   0.66253   0.16600   0.00000  Uiso   1.00
C207   C     0.34824   0.58747   0.16601   0.00000  Uiso   1.00
C208   C     0.15176   0.91253   0.16600   0.00000  Uiso   1.00
C209   C     0.15176   0.58747   0.16733   0.00000  Uiso   1.00
C210   C     0.06198   0.80637   0.16682   0.00000  Uiso   1.00
C211   C     0.34824   0.91253   0.16733   0.00000  Uiso   1.00
C212   C     0.31198   0.94363   0.16682   0.00000  Uiso   1.00
C213   C     0.18802   0.55637   0.16682   0.00000  Uiso   1.00
C214   C     0.18802   0.94363   0.16651   0.00000  Uiso   1.00
C215   C     0.31198   0.55637   0.16652   0.00000  Uiso   1.00
C216   C     0.49948   0.71033   0.02464   0.00000  Uiso   1.00
Cu217  Cu    0.00000   0.75000   0.21355   0.00000  Uiso   1.00
Cu218  Cu    0.00000   0.75000   0.11978   0.00000  Uiso   1.00
Cu219  Cu    0.25000   0.50000   0.21355   0.00000  Uiso   1.00
Cu220  Cu    0.25000   0.50000   0.11978   0.00000  Uiso   1.00
I221   I     0.49663   0.64631   0.05908   0.00000  Uiso   1.00
I222   I     0.11242   0.82176   0.27228   0.00000  Uiso   1.00
I223   I     0.12122   0.80874   0.06778   0.00000  Uiso   1.00
I224   I     0.38758   0.67829   0.27227   0.00000  Uiso   1.00
I225   I     0.12117   0.69117   0.26558   0.00000  Uiso   1.00
I226   I     0.38761   0.82180   0.06103   0.00000  Uiso   1.00
I227   I     0.37885   0.80888   0.26559   0.00000  Uiso   1.00
I228   I     0.11237   0.67816   0.06102   0.00000  Uiso   1.00
I229   I     0.13758   0.92824   0.06105   0.00000  Uiso   1.00
I230   I     0.37122   0.55878   0.26556   0.00000  Uiso   1.00
I231   I     0.36242   0.57172   0.06106   0.00000  Uiso   1.00
I232   I     0.49670   0.85369   0.27426   0.00000  Uiso   1.00
I233   I     0.12878   0.94126   0.26555   0.00000  Uiso   1.00
I234   I     0.36239   0.92821   0.27230   0.00000  Uiso   1.00
I235   I     0.12883   0.55884   0.06775   0.00000  Uiso   1.00
I236   I     0.13763   0.57184   0.27231   0.00000  Uiso   1.00
I237   I     0.37115   0.94112   0.06774   0.00000  Uiso   1.00
I238   I     0.00335   0.85369   0.05910   0.00000  Uiso   1.00
I239   I     0.00331   0.64631   0.27424   0.00000  Uiso   1.00
I240   I     0.25330   0.89631   0.05907   0.00000  Uiso   1.00
I241   I     0.25337   0.60369   0.27426   0.00000  Uiso   1.00
I242   I     0.24669   0.60369   0.05910   0.00000  Uiso   1.00
I243   I     0.24665   0.89631   0.27423   0.00000  Uiso   1.00
I244   I     0.37878   0.69122   0.06777   0.00000  Uiso   1.00
N245   N     0.00000   0.75000   0.28402   0.00000  Uiso   1.00
N246   N     0.00000   0.75000   0.04931   0.00000  Uiso   1.00
N247   N     0.25000   0.50000   0.28402   0.00000  Uiso   1.00
N248   N     0.25000   0.50000   0.04931   0.00000  Uiso   1.00
O249   O     0.04509   0.70491   0.20625   0.00000  Uiso   1.00
O250   O     0.20492   0.54509   0.12709   0.00000  Uiso   1.00
O251   O     0.20492   0.54509   0.20625   0.00000  Uiso   1.00
O252   O     0.29509   0.95491   0.12709   0.00000  Uiso   1.00
O253   O     0.20492   0.95491   0.12709   0.00000  Uiso   1.00
O254   O     0.29509   0.54509   0.20625   0.00000  Uiso   1.00
O255   O     0.29509   0.54509   0.12709   0.00000  Uiso   1.00
O256   O     0.20492   0.95491   0.20625   0.00000  Uiso   1.00
O257   O     0.45492   0.79509   0.12709   0.00000  Uiso   1.00
O258   O     0.45492   0.79509   0.20625   0.00000  Uiso   1.00
O259   O     0.04509   0.70491   0.12709   0.00000  Uiso   1.00
O260   O     0.45492   0.70491   0.12709   0.00000  Uiso   1.00
O261   O     0.04509   0.79509   0.20625   0.00000  Uiso   1.00
O262   O     0.04509   0.79509   0.12709   0.00000  Uiso   1.00
O263   O     0.45492   0.70491   0.20625   0.00000  Uiso   1.00
O264   O     0.29509   0.95491   0.20625   0.00000  Uiso   1.00
C265   C     0.56198   0.69363   0.16651   0.00000  Uiso   1.00
C266   C     0.99951   0.78967   0.30869   0.00000  Uiso   1.00
C267   C     0.50051   0.78967   0.02466   0.00000  Uiso   1.00
C268   C     0.50049   0.71033   0.30868   0.00000  Uiso   1.00
C269   C     0.75049   0.96033   0.02464   0.00000  Uiso   1.00
C270   C     0.75052   0.53967   0.30869   0.00000  Uiso   1.00
C271   C     0.74951   0.53967   0.02465   0.00000  Uiso   1.00
C272   C     0.74949   0.96033   0.30868   0.00000  Uiso   1.00
C273   C     0.88429   0.64752   0.12564   0.00000  Uiso   1.00
C274   C     0.61150   0.85759   0.20883   0.00000  Uiso   1.00
C275   C     0.61570   0.85246   0.12564   0.00000  Uiso   1.00
C276   C     0.93802   0.80637   0.16651   0.00000  Uiso   1.00
C277   C     0.88850   0.64243   0.20883   0.00000  Uiso   1.00
C278   C     0.61571   0.64753   0.20769   0.00000  Uiso   1.00
C279   C     0.88849   0.85758   0.12451   0.00000  Uiso   1.00
C280   C     0.88430   0.85249   0.20769   0.00000  Uiso   1.00
C281   C     0.61150   0.64240   0.12451   0.00000  Uiso   1.00
C282   C     0.63850   0.89241   0.12450   0.00000  Uiso   1.00
C283   C     0.86571   0.60248   0.20770   0.00000  Uiso   1.00
C284   C     0.86150   0.60757   0.12450   0.00000  Uiso   1.00
C285   C     0.63430   0.89754   0.20769   0.00000  Uiso   1.00
C286   C     0.86151   0.89242   0.20883   0.00000  Uiso   1.00
C287   C     0.93802   0.69363   0.16682   0.00000  Uiso   1.00
C288   C     0.63429   0.60247   0.12565   0.00000  Uiso   1.00
C289   C     0.63850   0.60760   0.20883   0.00000  Uiso   1.00
C290   C     0.86570   0.89751   0.12564   0.00000  Uiso   1.00
C291   C     0.59824   0.83747   0.16733   0.00000  Uiso   1.00
C292   C     0.90176   0.66253   0.16733   0.00000  Uiso   1.00
C293   C     0.90176   0.83747   0.16600   0.00000  Uiso   1.00
C294   C     0.59824   0.66253   0.16600   0.00000  Uiso   1.00
C295   C     0.84824   0.58747   0.16601   0.00000  Uiso   1.00
C296   C     0.65176   0.91253   0.16600   0.00000  Uiso   1.00
C297   C     0.65176   0.58747   0.16733   0.00000  Uiso   1.00
C298   C     0.56198   0.80637   0.16682   0.00000  Uiso   1.00
C299   C     0.84824   0.91253   0.16733   0.00000  Uiso   1.00
C300   C     0.81198   0.94363   0.16682   0.00000  Uiso   1.00
C301   C     0.68802   0.55637   0.16682   0.00000  Uiso   1.00
C302   C     0.68802   0.94363   0.16651   0.00000  Uiso   1.00
C303   C     0.81198   0.55637   0.16652   0.00000  Uiso   1.00
C304   C     0.99948   0.71033   0.02464   0.00000  Uiso   1.00
Cu305  Cu    0.50000   0.75000   0.21355   0.00000  Uiso   1.00
Cu306  Cu    0.50000   0.75000   0.11978   0.00000  Uiso   1.00
Cu307  Cu    0.75000   0.50000   0.21355   0.00000  Uiso   1.00
Cu308  Cu    0.75000   0.50000   0.11978   0.00000  Uiso   1.00
I309   I     0.99663   0.64631   0.05908   0.00000  Uiso   1.00
I310   I     0.61242   0.82176   0.27228   0.00000  Uiso   1.00
I311   I     0.62122   0.80874   0.06778   0.00000  Uiso   1.00
I312   I     0.88758   0.67829   0.27227   0.00000  Uiso   1.00
I313   I     0.62117   0.69117   0.26558   0.00000  Uiso   1.00
I314   I     0.88761   0.82180   0.06103   0.00000  Uiso   1.00
I315   I     0.87885   0.80888   0.26559   0.00000  Uiso   1.00
I316   I     0.61237   0.67816   0.06102   0.00000  Uiso   1.00
I317   I     0.63758   0.92824   0.06105   0.00000  Uiso   1.00
I318   I     0.87122   0.55878   0.26556   0.00000  Uiso   1.00
I319   I     0.86242   0.57172   0.06106   0.00000  Uiso   1.00
I320   I     0.99670   0.85369   0.27426   0.00000  Uiso   1.00
I321   I     0.62878   0.94126   0.26555   0.00000  Uiso   1.00
I322   I     0.86239   0.92821   0.27230   0.00000  Uiso   1.00
I323   I     0.62883   0.55884   0.06775   0.00000  Uiso   1.00
I324   I     0.63763   0.57184   0.27231   0.00000  Uiso   1.00
I325   I     0.87115   0.94112   0.06774   0.00000  Uiso   1.00
I326   I     0.50335   0.85369   0.05910   0.00000  Uiso   1.00
I327   I     0.50331   0.64631   0.27424   0.00000  Uiso   1.00
I328   I     0.75330   0.89631   0.05907   0.00000  Uiso   1.00
I329   I     0.75337   0.60369   0.27426   0.00000  Uiso   1.00
I330   I     0.74669   0.60369   0.05910   0.00000  Uiso   1.00
I331   I     0.74665   0.89631   0.27423   0.00000  Uiso   1.00
I332   I     0.87878   0.69122   0.06777   0.00000  Uiso   1.00
N333   N     0.50000   0.75000   0.28402   0.00000  Uiso   1.00
N334   N     0.50000   0.75000   0.04931   0.00000  Uiso   1.00
N335   N     0.75000   0.50000   0.28402   0.00000  Uiso   1.00
N336   N     0.75000   0.50000   0.04931   0.00000  Uiso   1.00
O337   O     0.54509   0.70491   0.20625   0.00000  Uiso   1.00
O338   O     0.70492   0.54509   0.12709   0.00000  Uiso   1.00
O339   O     0.70492   0.54509   0.20625   0.00000  Uiso   1.00
O340   O     0.79509   0.95491   0.12709   0.00000  Uiso   1.00
O341   O     0.70492   0.95491   0.12709   0.00000  Uiso   1.00
O342   O     0.79509   0.54509   0.20625   0.00000  Uiso   1.00
O343   O     0.79509   0.54509   0.12709   0.00000  Uiso   1.00
O344   O     0.70492   0.95491   0.20625   0.00000  Uiso   1.00
O345   O     0.95492   0.79509   0.12709   0.00000  Uiso   1.00
O346   O     0.95492   0.79509   0.20625   0.00000  Uiso   1.00
O347   O     0.54509   0.70491   0.12709   0.00000  Uiso   1.00
O348   O     0.95492   0.70491   0.12709   0.00000  Uiso   1.00
O349   O     0.54509   0.79509   0.20625   0.00000  Uiso   1.00
O350   O     0.54509   0.79509   0.12709   0.00000  Uiso   1.00
O351   O     0.95492   0.70491   0.20625   0.00000  Uiso   1.00
O352   O     0.79509   0.95491   0.20625   0.00000  Uiso   1.00
C353   C     0.06198   0.19363   0.49985   0.00000  Uiso   1.00
C354   C     0.49951   0.28967   0.64202   0.00000  Uiso   1.00
C355   C     0.00051   0.28967   0.35799   0.00000  Uiso   1.00
C356   C     0.00049   0.21033   0.64201   0.00000  Uiso   1.00
C357   C     0.25049   0.46033   0.35798   0.00000  Uiso   1.00
C358   C     0.25052   0.03967   0.64202   0.00000  Uiso   1.00
C359   C     0.24951   0.03967   0.35799   0.00000  Uiso   1.00
C360   C     0.24949   0.46033   0.64201   0.00000  Uiso   1.00
C361   C     0.38429   0.14752   0.45897   0.00000  Uiso   1.00
C362   C     0.11150   0.35759   0.54217   0.00000  Uiso   1.00
C363   C     0.11570   0.35246   0.45897   0.00000  Uiso   1.00
C364   C     0.43802   0.30637   0.49985   0.00000  Uiso   1.00
C365   C     0.38850   0.14243   0.54216   0.00000  Uiso   1.00
C366   C     0.11571   0.14753   0.54102   0.00000  Uiso   1.00
C367   C     0.38849   0.35758   0.45784   0.00000  Uiso   1.00
C368   C     0.38430   0.35249   0.54102   0.00000  Uiso   1.00
C369   C     0.11150   0.14240   0.45784   0.00000  Uiso   1.00
C370   C     0.13850   0.39241   0.45783   0.00000  Uiso   1.00
C371   C     0.36571   0.10248   0.54103   0.00000  Uiso   1.00
C372   C     0.36150   0.10757   0.45784   0.00000  Uiso   1.00
C373   C     0.13430   0.39754   0.54103   0.00000  Uiso   1.00
C374   C     0.36151   0.39242   0.54216   0.00000  Uiso   1.00
C375   C     0.43802   0.19363   0.50015   0.00000  Uiso   1.00
C376   C     0.13429   0.10247   0.45898   0.00000  Uiso   1.00
C377   C     0.13850   0.10760   0.54216   0.00000  Uiso   1.00
C378   C     0.36570   0.39751   0.45898   0.00000  Uiso   1.00
C379   C     0.09824   0.33747   0.50067   0.00000  Uiso   1.00
C380   C     0.40176   0.16253   0.50066   0.00000  Uiso   1.00
C381   C     0.40176   0.33747   0.49934   0.00000  Uiso   1.00
C382   C     0.09824   0.16253   0.49934   0.00000  Uiso   1.00
C383   C     0.34824   0.08747   0.49934   0.00000  Uiso   1.00
C384   C     0.15176   0.41253   0.49933   0.00000  Uiso   1.00
C385   C     0.15176   0.08747   0.50066   0.00000  Uiso   1.00
C386   C     0.06198   0.30637   0.50015   0.00000  Uiso   1.00
C387   C     0.34824   0.41253   0.50066   0.00000  Uiso   1.00
C388   C     0.31198   0.44363   0.50015   0.00000  Uiso   1.00
C389   C     0.18802   0.05637   0.50015   0.00000  Uiso   1.00
C390   C     0.18802   0.44363   0.49985   0.00000  Uiso   1.00
C391   C     0.31198   0.05637   0.49985   0.00000  Uiso   1.00
C392   C     0.49948   0.21033   0.35798   0.00000  Uiso   1.00
Cu393  Cu    0.00000   0.25000   0.54689   0.00000  Uiso   1.00
Cu394  Cu    0.00000   0.25000   0.45311   0.00000  Uiso   1.00
Cu395  Cu    0.25000   0.00000   0.54689   0.00000  Uiso   1.00
Cu396  Cu    0.25000   0.00000   0.45311   0.00000  Uiso   1.00
I397   I     0.49663   0.14631   0.39241   0.00000  Uiso   1.00
I398   I     0.11242   0.32176   0.60561   0.00000  Uiso   1.00
I399   I     0.12122   0.30874   0.40112   0.00000  Uiso   1.00
I400   I     0.38758   0.17829   0.60560   0.00000  Uiso   1.00
I401   I     0.12117   0.19117   0.59892   0.00000  Uiso   1.00
I402   I     0.38761   0.32180   0.39437   0.00000  Uiso   1.00
I403   I     0.37885   0.30888   0.59892   0.00000  Uiso   1.00
I404   I     0.11237   0.17816   0.39436   0.00000  Uiso   1.00
I405   I     0.13758   0.42824   0.39439   0.00000  Uiso   1.00
I406   I     0.37122   0.05878   0.59889   0.00000  Uiso   1.00
I407   I     0.36242   0.07172   0.39440   0.00000  Uiso   1.00
I408   I     0.49670   0.35369   0.60759   0.00000  Uiso   1.00
I409   I     0.12878   0.44126   0.59889   0.00000  Uiso   1.00
I410   I     0.36239   0.42821   0.60564   0.00000  Uiso   1.00
I411   I     0.12883   0.05884   0.40108   0.00000  Uiso   1.00
I412   I     0.13763   0.07184   0.60564   0.00000  Uiso   1.00
I413   I     0.37115   0.44112   0.40108   0.00000  Uiso   1.00
I414   I     0.00335   0.35369   0.39244   0.00000  Uiso   1.00
I415   I     0.00331   0.14631   0.60757   0.00000  Uiso   1.00
I416   I     0.25330   0.39631   0.39241   0.00000  Uiso   1.00
I417   I     0.25337   0.10369   0.60759   0.00000  Uiso   1.00
I418   I     0.24669   0.10369   0.39243   0.00000  Uiso   1.00
I419   I     0.24665   0.39631   0.60756   0.00000  Uiso   1.00
I420   I     0.37878   0.19122   0.40111   0.00000  Uiso   1.00
N421   N     0.00000   0.25000   0.61736   0.00000  Uiso   1.00
N422   N     0.00000   0.25000   0.38264   0.00000  Uiso   1.00
N423   N     0.25000   0.00000   0.61736   0.00000  Uiso   1.00
N424   N     0.25000   0.00000   0.38264   0.00000  Uiso   1.00
O425   O     0.04509   0.20491   0.53958   0.00000  Uiso   1.00
O426   O     0.20492   0.04509   0.46042   0.00000  Uiso   1.00
O427   O     0.20492   0.04509   0.53958   0.00000  Uiso   1.00
O428   O     0.29509   0.45491   0.46042   0.00000  Uiso   1.00
O429   O     0.20492   0.45491   0.46042   0.00000  Uiso   1.00
O430   O     0.29509   0.04509   0.53958   0.00000  Uiso   1.00
O431   O     0.29509   0.04509   0.46042   0.00000  Uiso   1.00
O432   O     0.20492   0.45491   0.53958   0.00000  Uiso   1.00
O433   O     0.45492   0.29509   0.46042   0.00000  Uiso   1.00
O434   O     0.45492   0.29509   0.53958   0.00000  Uiso   1.00
O435   O     0.04509   0.20491   0.46042   0.00000  Uiso   1.00
O436   O     0.45492   0.20491   0.46042   0.00000  Uiso   1.00
O437   O     0.04509   0.29509   0.53958   0.00000  Uiso   1.00
O438   O     0.04509   0.29509   0.46042   0.00000  Uiso   1.00
O439   O     0.45492   0.20491   0.53958   0.00000  Uiso   1.00
O440   O     0.29509   0.45491   0.53958   0.00000  Uiso   1.00
C441   C     0.56198   0.19363   0.49985   0.00000  Uiso   1.00
C442   C     0.99951   0.28967   0.64202   0.00000  Uiso   1.00
C443   C     0.50051   0.28967   0.35799   0.00000  Uiso   1.00
C444   C     0.50049   0.21033   0.64201   0.00000  Uiso   1.00
C445   C     0.75049   0.46033   0.35798   0.00000  Uiso   1.00
C446   C     0.75052   0.03967   0.64202   0.00000  Uiso   1.00
C447   C     0.74951   0.03967   0.35799   0.00000  Uiso   1.00
C448   C     0.74949   0.46033   0.64201   0.00000  Uiso   1.00
C449   C     0.88429   0.14752   0.45897   0.00000  Uiso   1.00
C450   C     0.61150   0.35759   0.54217   0.00000  Uiso   1.00
C451   C     0.61570   0.35246   0.45897   0.00000  Uiso   1.00
C452   C     0.93802   0.30637   0.49985   0.00000  Uiso   1.00
C453   C     0.88850   0.14243   0.54216   0.00000  Uiso   1.00
C454   C     0.61571   0.14753   0.54102   0.00000  Uiso   1.00
C455   C     0.88849   0.35758   0.45784   0.00000  Uiso   1.00
C456   C     0.88430   0.35249   0.54102   0.00000  Uiso   1.00
C457   C     0.61150   0.14240   0.45784   0.00000  Uiso   1.00
C458   C     0.63850   0.39241   0.45783   0.00000  Uiso   1.00
C459   C     0.86571   0.10248   0.54103   0.00000  Uiso   1.00
C460   C     0.86150   0.10757   0.45784   0.00000  Uiso   1.00
C461   C     0.63430   0.39754   0.54103   0.00000  Uiso   1.00
C462   C     0.86151   0.39242   0.54216   0.00000  Uiso   1.00
C463   C     0.93802   0.19363   0.50015   0.00000  Uiso   1.00
C464   C     0.63429   0.10247   0.45898   0.00000  Uiso   1.00
C465   C     0.63850   0.10760   0.54216   0.00000  Uiso   1.00
C466   C     0.86570   0.39751   0.45898   0.00000  Uiso   1.00
C467   C     0.59824   0.33747   0.50067   0.00000  Uiso   1.00
C468   C     0.90176   0.16253   0.50066   0.00000  Uiso   1.00
C469   C     0.90176   0.33747   0.49934   0.00000  Uiso   1.00
C470   C     0.59824   0.16253   0.49934   0.00000  Uiso   1.00
C471   C     0.84824   0.08747   0.49934   0.00000  Uiso   1.00
C472   C     0.65176   0.41253   0.49933   0.00000  Uiso   1.00
C473   C     0.65176   0.08747   0.50066   0.00000  Uiso   1.00
C474   C     0.56198   0.30637   0.50015   0.00000  Uiso   1.00
C475   C     0.84824   0.41253   0.50066   0.00000  Uiso   1.00
C476   C     0.81198   0.44363   0.50015   0.00000  Uiso   1.00
C477   C     0.68802   0.05637   0.50015   0.00000  Uiso   1.00
C478   C     0.68802   0.44363   0.49985   0.00000  Uiso   1.00
C479   C     0.81198   0.05637   0.49985   0.00000  Uiso   1.00
C480   C     0.99948   0.21033   0.35798   0.00000  Uiso   1.00
Cu481  Cu    0.50000   0.25000   0.54689   0.00000  Uiso   1.00
Cu482  Cu    0.50000   0.25000   0.45311   0.00000  Uiso   1.00
Cu483  Cu    0.75000   0.00000   0.54689   0.00000  Uiso   1.00
Cu484  Cu    0.75000   0.00000   0.45311   0.00000  Uiso   1.00
I485   I     0.99663   0.14631   0.39241   0.00000  Uiso   1.00
I486   I     0.61242   0.32176   0.60561   0.00000  Uiso   1.00
I487   I     0.62122   0.30874   0.40112   0.00000  Uiso   1.00
I488   I     0.88758   0.17829   0.60560   0.00000  Uiso   1.00
I489   I     0.62117   0.19117   0.59892   0.00000  Uiso   1.00
I490   I     0.88761   0.32180   0.39437   0.00000  Uiso   1.00
I491   I     0.87885   0.30888   0.59892   0.00000  Uiso   1.00
I492   I     0.61237   0.17816   0.39436   0.00000  Uiso   1.00
I493   I     0.63758   0.42824   0.39439   0.00000  Uiso   1.00
I494   I     0.87122   0.05878   0.59889   0.00000  Uiso   1.00
I495   I     0.86242   0.07172   0.39440   0.00000  Uiso   1.00
I496   I     0.99670   0.35369   0.60759   0.00000  Uiso   1.00
I497   I     0.62878   0.44126   0.59889   0.00000  Uiso   1.00
I498   I     0.86239   0.42821   0.60564   0.00000  Uiso   1.00
I499   I     0.62883   0.05884   0.40108   0.00000  Uiso   1.00
I500   I     0.63763   0.07184   0.60564   0.00000  Uiso   1.00
I501   I     0.87115   0.44112   0.40108   0.00000  Uiso   1.00
I502   I     0.50335   0.35369   0.39244   0.00000  Uiso   1.00
I503   I     0.50331   0.14631   0.60757   0.00000  Uiso   1.00
I504   I     0.75330   0.39631   0.39241   0.00000  Uiso   1.00
I505   I     0.75337   0.10369   0.60759   0.00000  Uiso   1.00
I506   I     0.74669   0.10369   0.39243   0.00000  Uiso   1.00
I507   I     0.74665   0.39631   0.60756   0.00000  Uiso   1.00
I508   I     0.87878   0.19122   0.40111   0.00000  Uiso   1.00
N509   N     0.50000   0.25000   0.61736   0.00000  Uiso   1.00
N510   N     0.50000   0.25000   0.38264   0.00000  Uiso   1.00
N511   N     0.75000   0.00000   0.61736   0.00000  Uiso   1.00
N512   N     0.75000   0.00000   0.38264   0.00000  Uiso   1.00
O513   O     0.54509   0.20491   0.53958   0.00000  Uiso   1.00
O514   O     0.70492   0.04509   0.46042   0.00000  Uiso   1.00
O515   O     0.70492   0.04509   0.53958   0.00000  Uiso   1.00
O516   O     0.79509   0.45491   0.46042   0.00000  Uiso   1.00
O517   O     0.70492   0.45491   0.46042   0.00000  Uiso   1.00
O518   O     0.79509   0.04509   0.53958   0.00000  Uiso   1.00
O519   O     0.79509   0.04509   0.46042   0.00000  Uiso   1.00
O520   O     0.70492   0.45491   0.53958   0.00000  Uiso   1.00
O521   O     0.95492   0.29509   0.46042   0.00000  Uiso   1.00
O522   O     0.95492   0.29509   0.53958   0.00000  Uiso   1.00
O523   O     0.54509   0.20491   0.46042   0.00000  Uiso   1.00
O524   O     0.95492   0.20491   0.46042   0.00000  Uiso   1.00
O525   O     0.54509   0.29509   0.53958   0.00000  Uiso   1.00
O526   O     0.54509   0.29509   0.46042   0.00000  Uiso   1.00
O527   O     0.95492   0.20491   0.53958   0.00000  Uiso   1.00
O528   O     0.79509   0.45491   0.53958   0.00000  Uiso   1.00
C529   C     0.06198   0.69363   0.49985   0.00000  Uiso   1.00
C530   C     0.49951   0.78967   0.64202   0.00000  Uiso   1.00
C531   C     0.00051   0.78967   0.35799   0.00000  Uiso   1.00
C532   C     0.00049   0.71033   0.64201   0.00000  Uiso   1.00
C533   C     0.25049   0.96033   0.35798   0.00000  Uiso   1.00
C534   C     0.25052   0.53967   0.64202   0.00000  Uiso   1.00
C535   C     0.24951   0.53967   0.35799   0.00000  Uiso   1.00
C536   C     0.24949   0.96033   0.64201   0.00000  Uiso   1.00
C537   C     0.38429   0.64752   0.45897   0.00000  Uiso   1.00
C538   C     0.11150   0.85759   0.54217   0.00000  Uiso   1.00
C539   C     0.11570   0.85246   0.45897   0.00000  Uiso   1.00
C540   C     0.43802   0.80637   0.49985   0.00000  Uiso   1.00
C541   C     0.38850   0.64243   0.54216   0.00000  Uiso   1.00
C542   C     0.11571   0.64753   0.54102   0.00000  Uiso   1.00
C543   C     0.38849   0.85758   0.45784   0.00000  Uiso   1.00
C544   C     0.38430   0.85249   0.54102   0.00000  Uiso   1.00
C545   C     0.11150   0.64240   0.45784   0.00000  Uiso   1.00
C546   C     0.13850   0.89241   0.45783   0.00000  Uiso   1.00
C547   C     0.36571   0.60248   0.54103   0.00000  Uiso   1.00
C548   C     0.36150   0.60757   0.45784   0.00000  Uiso   1.00
C549   C     0.13430   0.89754   0.54103   0.00000  Uiso   1.00
C550   C     0.36151   0.89242   0.54216   0.00000  Uiso   1.00
C551   C     0.43802   0.69363   0.50015   0.00000  Uiso   1.00
C552   C     0.13429   0.60247   0.45898   0.00000  Uiso   1.00
C553   C     0.13850   0.60760   0.54216   0.00000  Uiso   1.00
C554   C     0.36570   0.89751   0.45898   0.00000  Uiso   1.00
C555   C     0.09824   0.83747   0.50067   0.00000  Uiso   1.00
C556   C     0.40176   0.66253   0.50066   0.00000  Uiso   1.00
C557   C     0.40176   0.83747   0.49934   0.00000  Uiso   1.00
C558   C     0.09824   0.66253   0.49934   0.00000  Uiso   1.00
C559   C     0.34824   0.58747   0.49934   0.00000  Uiso   1.00
C560   C     0.15176   0.91253   0.49933   0.00000  Uiso   1.00
C561   C     0.15176   0.58747   0.50066   0.00000  Uiso   1.00
C562   C     0.06198   0.80637   0.50015   0.00000  Uiso   1.00
C563   C     0.34824   0.91253   0.50066   0.00000  Uiso   1.00
C564   C     0.31198   0.94363   0.50015   0.00000  Uiso   1.00
C565   C     0.18802   0.55637   0.50015   0.00000  Uiso   1.00
C566   C     0.18802   0.94363   0.49985   0.00000  Uiso   1.00
C567   C     0.31198   0.55637   0.49985   0.00000  Uiso   1.00
C568   C     0.49948   0.71033   0.35798   0.00000  Uiso   1.00
Cu569  Cu    0.00000   0.75000   0.54689   0.00000  Uiso   1.00
Cu570  Cu    0.00000   0.75000   0.45311   0.00000  Uiso   1.00
Cu571  Cu    0.25000   0.50000   0.54689   0.00000  Uiso   1.00
Cu572  Cu    0.25000   0.50000   0.45311   0.00000  Uiso   1.00
I573   I     0.49663   0.64631   0.39241   0.00000  Uiso   1.00
I574   I     0.11242   0.82176   0.60561   0.00000  Uiso   1.00
I575   I     0.12122   0.80874   0.40112   0.00000  Uiso   1.00
I576   I     0.38758   0.67829   0.60560   0.00000  Uiso   1.00
I577   I     0.12117   0.69117   0.59892   0.00000  Uiso   1.00
I578   I     0.38761   0.82180   0.39437   0.00000  Uiso   1.00
I579   I     0.37885   0.80888   0.59892   0.00000  Uiso   1.00
I580   I     0.11237   0.67816   0.39436   0.00000  Uiso   1.00
I581   I     0.13758   0.92824   0.39439   0.00000  Uiso   1.00
I582   I     0.37122   0.55878   0.59889   0.00000  Uiso   1.00
I583   I     0.36242   0.57172   0.39440   0.00000  Uiso   1.00
I584   I     0.49670   0.85369   0.60759   0.00000  Uiso   1.00
I585   I     0.12878   0.94126   0.59889   0.00000  Uiso   1.00
I586   I     0.36239   0.92821   0.60564   0.00000  Uiso   1.00
I587   I     0.12883   0.55884   0.40108   0.00000  Uiso   1.00
I588   I     0.13763   0.57184   0.60564   0.00000  Uiso   1.00
I589   I     0.37115   0.94112   0.40108   0.00000  Uiso   1.00
I590   I     0.00335   0.85369   0.39244   0.00000  Uiso   1.00
I591   I     0.00331   0.64631   0.60757   0.00000  Uiso   1.00
I592   I     0.25330   0.89631   0.39241   0.00000  Uiso   1.00
I593   I     0.25337   0.60369   0.60759   0.00000  Uiso   1.00
I594   I     0.24669   0.60369   0.39243   0.00000  Uiso   1.00
I595   I     0.24665   0.89631   0.60756   0.00000  Uiso   1.00
I596   I     0.37878   0.69122   0.40111   0.00000  Uiso   1.00
N597   N     0.00000   0.75000   0.61736   0.00000  Uiso   1.00
N598   N     0.00000   0.75000   0.38264   0.00000  Uiso   1.00
N599   N     0.25000   0.50000   0.61736   0.00000  Uiso   1.00
N600   N     0.25000   0.50000   0.38264   0.00000  Uiso   1.00
O601   O     0.04509   0.70491   0.53958   0.00000  Uiso   1.00
O602   O     0.20492   0.54509   0.46042   0.00000  Uiso   1.00
O603   O     0.20492   0.54509   0.53958   0.00000  Uiso   1.00
O604   O     0.29509   0.95491   0.46042   0.00000  Uiso   1.00
O605   O     0.20492   0.95491   0.46042   0.00000  Uiso   1.00
O606   O     0.29509   0.54509   0.53958   0.00000  Uiso   1.00
O607   O     0.29509   0.54509   0.46042   0.00000  Uiso   1.00
O608   O     0.20492   0.95491   0.53958   0.00000  Uiso   1.00
O609   O     0.45492   0.79509   0.46042   0.00000  Uiso   1.00
O610   O     0.45492   0.79509   0.53958   0.00000  Uiso   1.00
O611   O     0.04509   0.70491   0.46042   0.00000  Uiso   1.00
O612   O     0.45492   0.70491   0.46042   0.00000  Uiso   1.00
O613   O     0.04509   0.79509   0.53958   0.00000  Uiso   1.00
O614   O     0.04509   0.79509   0.46042   0.00000  Uiso   1.00
O615   O     0.45492   0.70491   0.53958   0.00000  Uiso   1.00
O616   O     0.29509   0.95491   0.53958   0.00000  Uiso   1.00
C617   C     0.56198   0.69363   0.49985   0.00000  Uiso   1.00
C618   C     0.99951   0.78967   0.64202   0.00000  Uiso   1.00
C619   C     0.50051   0.78967   0.35799   0.00000  Uiso   1.00
C620   C     0.50049   0.71033   0.64201   0.00000  Uiso   1.00
C621   C     0.75049   0.96033   0.35798   0.00000  Uiso   1.00
C622   C     0.75052   0.53967   0.64202   0.00000  Uiso   1.00
C623   C     0.74951   0.53967   0.35799   0.00000  Uiso   1.00
C624   C     0.74949   0.96033   0.64201   0.00000  Uiso   1.00
C625   C     0.88429   0.64752   0.45897   0.00000  Uiso   1.00
C626   C     0.61150   0.85759   0.54217   0.00000  Uiso   1.00
C627   C     0.61570   0.85246   0.45897   0.00000  Uiso   1.00
C628   C     0.93802   0.80637   0.49985   0.00000  Uiso   1.00
C629   C     0.88850   0.64243   0.54216   0.00000  Uiso   1.00
C630   C     0.61571   0.64753   0.54102   0.00000  Uiso   1.00
C631   C     0.88849   0.85758   0.45784   0.00000  Uiso   1.00
C632   C     0.88430   0.85249   0.54102   0.00000  Uiso   1.00
C633   C     0.61150   0.64240   0.45784   0.00000  Uiso   1.00
C634   C     0.63850   0.89241   0.45783   0.00000  Uiso   1.00
C635   C     0.86571   0.60248   0.54103   0.00000  Uiso   1.00
C636   C     0.86150   0.60757   0.45784   0.00000  Uiso   1.00
C637   C     0.63430   0.89754   0.54103   0.00000  Uiso   1.00
C638   C     0.86151   0.89242   0.54216   0.00000  Uiso   1.00
C639   C     0.93802   0.69363   0.50015   0.00000  Uiso   1.00
C640   C     0.63429   0.60247   0.45898   0.00000  Uiso   1.00
C641   C     0.63850   0.60760   0.54216   0.00000  Uiso   1.00
C642   C     0.86570   0.89751   0.45898   0.00000  Uiso   1.00
C643   C     0.59824   0.83747   0.50067   0.00000  Uiso   1.00
C644   C     0.90176   0.66253   0.50066   0.00000  Uiso   1.00
C645   C     0.90176   0.83747   0.49934   0.00000  Uiso   1.00
C646   C     0.59824   0.66253   0.49934   0.00000  Uiso   1.00
C647   C     0.84824   0.58747   0.49934   0.00000  Uiso   1.00
C648   C     0.65176   0.91253   0.49933   0.00000  Uiso   1.00
C649   C     0.65176   0.58747   0.50066   0.00000  Uiso   1.00
C650   C     0.56198   0.80637   0.50015   0.00000  Uiso   1.00
C651   C     0.84824   0.91253   0.50066   0.00000  Uiso   1.00
C652   C     0.81198   0.94363   0.50015   0.00000  Uiso   1.00
C653   C     0.68802   0.55637   0.50015   0.00000  Uiso   1.00
C654   C     0.68802   0.94363   0.49985   0.00000  Uiso   1.00
C655   C     0.81198   0.55637   0.49985   0.00000  Uiso   1.00
C656   C     0.99948   0.71033   0.35798   0.00000  Uiso   1.00
Cu657  Cu    0.50000   0.75000   0.54689   0.00000  Uiso   1.00
Cu658  Cu    0.50000   0.75000   0.45311   0.00000  Uiso   1.00
Cu659  Cu    0.75000   0.50000   0.54689   0.00000  Uiso   1.00
Cu660  Cu    0.75000   0.50000   0.45311   0.00000  Uiso   1.00
I661   I     0.99663   0.64631   0.39241   0.00000  Uiso   1.00
I662   I     0.61242   0.82176   0.60561   0.00000  Uiso   1.00
I663   I     0.62122   0.80874   0.40112   0.00000  Uiso   1.00
I664   I     0.88758   0.67829   0.60560   0.00000  Uiso   1.00
I665   I     0.62117   0.69117   0.59892   0.00000  Uiso   1.00
I666   I     0.88761   0.82180   0.39437   0.00000  Uiso   1.00
I667   I     0.87885   0.80888   0.59892   0.00000  Uiso   1.00
I668   I     0.61237   0.67816   0.39436   0.00000  Uiso   1.00
I669   I     0.63758   0.92824   0.39439   0.00000  Uiso   1.00
I670   I     0.87122   0.55878   0.59889   0.00000  Uiso   1.00
I671   I     0.86242   0.57172   0.39440   0.00000  Uiso   1.00
I672   I     0.99670   0.85369   0.60759   0.00000  Uiso   1.00
I673   I     0.62878   0.94126   0.59889   0.00000  Uiso   1.00
I674   I     0.86239   0.92821   0.60564   0.00000  Uiso   1.00
I675   I     0.62883   0.55884   0.40108   0.00000  Uiso   1.00
I676   I     0.63763   0.57184   0.60564   0.00000  Uiso   1.00
I677   I     0.87115   0.94112   0.40108   0.00000  Uiso   1.00
I678   I     0.50335   0.85369   0.39244   0.00000  Uiso   1.00
I679   I     0.50331   0.64631   0.60757   0.00000  Uiso   1.00
I680   I     0.75330   0.89631   0.39241   0.00000  Uiso   1.00
I681   I     0.75337   0.60369   0.60759   0.00000  Uiso   1.00
I682   I     0.74669   0.60369   0.39243   0.00000  Uiso   1.00
I683   I     0.74665   0.89631   0.60756   0.00000  Uiso   1.00
I684   I     0.87878   0.69122   0.40111   0.00000  Uiso   1.00
N685   N     0.50000   0.75000   0.61736   0.00000  Uiso   1.00
N686   N     0.50000   0.75000   0.38264   0.00000  Uiso   1.00
N687   N     0.75000   0.50000   0.61736   0.00000  Uiso   1.00
N688   N     0.75000   0.50000   0.38264   0.00000  Uiso   1.00
O689   O     0.54509   0.70491   0.53958   0.00000  Uiso   1.00
O690   O     0.70492   0.54509   0.46042   0.00000  Uiso   1.00
O691   O     0.70492   0.54509   0.53958   0.00000  Uiso   1.00
O692   O     0.79509   0.95491   0.46042   0.00000  Uiso   1.00
O693   O     0.70492   0.95491   0.46042   0.00000  Uiso   1.00
O694   O     0.79509   0.54509   0.53958   0.00000  Uiso   1.00
O695   O     0.79509   0.54509   0.46042   0.00000  Uiso   1.00
O696   O     0.70492   0.95491   0.53958   0.00000  Uiso   1.00
O697   O     0.95492   0.79509   0.46042   0.00000  Uiso   1.00
O698   O     0.95492   0.79509   0.53958   0.00000  Uiso   1.00
O699   O     0.54509   0.70491   0.46042   0.00000  Uiso   1.00
O700   O     0.95492   0.70491   0.46042   0.00000  Uiso   1.00
O701   O     0.54509   0.79509   0.53958   0.00000  Uiso   1.00
O702   O     0.54509   0.79509   0.46042   0.00000  Uiso   1.00
O703   O     0.95492   0.70491   0.53958   0.00000  Uiso   1.00
O704   O     0.79509   0.95491   0.53958   0.00000  Uiso   1.00
C705   C     0.06198   0.19363   0.83318   0.00000  Uiso   1.00
C706   C     0.49951   0.28967   0.97536   0.00000  Uiso   1.00
C707   C     0.00051   0.28967   0.69132   0.00000  Uiso   1.00
C708   C     0.00049   0.21033   0.97535   0.00000  Uiso   1.00
C709   C     0.25049   0.46033   0.69131   0.00000  Uiso   1.00
C710   C     0.25052   0.03967   0.97536   0.00000  Uiso   1.00
C711   C     0.24951   0.03967   0.69132   0.00000  Uiso   1.00
C712   C     0.24949   0.46033   0.97535   0.00000  Uiso   1.00
C713   C     0.38429   0.14752   0.79230   0.00000  Uiso   1.00
C714   C     0.11150   0.35759   0.87550   0.00000  Uiso   1.00
C715   C     0.11570   0.35246   0.79231   0.00000  Uiso   1.00
C716   C     0.43802   0.30637   0.83318   0.00000  Uiso   1.00
C717   C     0.38850   0.14243   0.87550   0.00000  Uiso   1.00
C718   C     0.11571   0.14753   0.87436   0.00000  Uiso   1.00
C719   C     0.38849   0.35758   0.79117   0.00000  Uiso   1.00
C720   C     0.38430   0.35249   0.87436   0.00000  Uiso   1.00
C721   C     0.11150   0.14240   0.79117   0.00000  Uiso   1.00
C722   C     0.13850   0.39241   0.79117   0.00000  Uiso   1.00
C723   C     0.36571   0.10248   0.87436   0.00000  Uiso   1.00
C724   C     0.36150   0.10757   0.79117   0.00000  Uiso   1.00
C725   C     0.13430   0.39754   0.87436   0.00000  Uiso   1.00
C726   C     0.36151   0.39242   0.87549   0.00000  Uiso   1.00
C727   C     0.43802   0.19363   0.83348   0.00000  Uiso   1.00
C728   C     0.13429   0.10247   0.79231   0.00000  Uiso   1.00
C729   C     0.13850   0.10760   0.87549   0.00000  Uiso   1.00
C730   C     0.36570   0.39751   0.79231   0.00000  Uiso   1.00
C731   C     0.09824   0.33747   0.83400   0.00000  Uiso   1.00
C732   C     0.40176   0.16253   0.83399   0.00000  Uiso   1.00
C733   C     0.40176   0.33747   0.83267   0.00000  Uiso   1.00
C734   C     0.09824   0.16253   0.83267   0.00000  Uiso   1.00
C735   C     0.34824   0.08747   0.83267   0.00000  Uiso   1.00
C736   C     0.15176   0.41253   0.83267   0.00000  Uiso   1.00
C737   C     0.15176   0.08747   0.83400   0.00000  Uiso   1.00
C738   C     0.06198   0.30637   0.83349   0.00000  Uiso   1.00
C739   C     0.34824   0.41253   0.83400   0.00000  Uiso   1.00
C740   C     0.31198   0.44363   0.83349   0.00000  Uiso   1.00
C741   C     0.18802   0.05637   0.83349   0.00000  Uiso   1.00
C742   C     0.18802   0.44363   0.83318   0.00000  Uiso   1.00
C743   C     0.31198   0.05637   0.83318   0.00000  Uiso   1.00
C744   C     0.49948   0.21033   0.69131   0.00000  Uiso   1.00
Cu745  Cu    0.00000   0.25000   0.88022   0.00000  Uiso   1.00
Cu746  Cu    0.00000   0.25000   0.78645   0.00000  Uiso   1.00
Cu747  Cu    0.25000   0.00000   0.88022   0.00000  Uiso   1.00
Cu748  Cu    0.25000   0.00000   0.78645   0.00000  Uiso   1.00
I749   I     0.49663   0.14631   0.72574   0.00000  Uiso   1.00
I750   I     0.11242   0.32176   0.93895   0.00000  Uiso   1.00
I751   I     0.12122   0.30874   0.73445   0.00000  Uiso   1.00
I752   I     0.38758   0.17829   0.93894   0.00000  Uiso   1.00
I753   I     0.12117   0.19117   0.93225   0.00000  Uiso   1.00
I754   I     0.38761   0.32180   0.72770   0.00000  Uiso   1.00
I755   I     0.37885   0.30888   0.93226   0.00000  Uiso   1.00
I756   I     0.11237   0.17816   0.72769   0.00000  Uiso   1.00
I757   I     0.13758   0.42824   0.72772   0.00000  Uiso   1.00
I758   I     0.37122   0.05878   0.93223   0.00000  Uiso   1.00
I759   I     0.36242   0.07172   0.72773   0.00000  Uiso   1.00
I760   I     0.49670   0.35369   0.94093   0.00000  Uiso   1.00
I761   I     0.12878   0.44126   0.93222   0.00000  Uiso   1.00
I762   I     0.36239   0.42821   0.93897   0.00000  Uiso   1.00
I763   I     0.12883   0.05884   0.73442   0.00000  Uiso   1.00
I764   I     0.13763   0.07184   0.93898   0.00000  Uiso   1.00
I765   I     0.37115   0.44112   0.73441   0.00000  Uiso   1.00
I766   I     0.00335   0.35369   0.72577   0.00000  Uiso   1.00
I767   I     0.00331   0.14631   0.94090   0.00000  Uiso   1.00
I768   I     0.25330   0.39631   0.72574   0.00000  Uiso   1.00
I769   I     0.25337   0.10369   0.94092   0.00000  Uiso   1.00
I770   I     0.24669   0.10369   0.72577   0.00000  Uiso   1.00
I771   I     0.24665   0.39631   0.94090   0.00000  Uiso   1.00
I772   I     0.37878   0.19122   0.73444   0.00000  Uiso   1.00
N773   N     0.00000   0.25000   0.95069   0.00000  Uiso   1.00
N774   N     0.00000   0.25000   0.71598   0.00000  Uiso   1.00
N775   N     0.25000   0.00000   0.95069   0.00000  Uiso   1.00
N776   N     0.25000   0.00000   0.71598   0.00000  Uiso   1.00
O777   O     0.04509   0.20491   0.87291   0.00000  Uiso   1.00
O778   O     0.20492   0.04509   0.79375   0.00000  Uiso   1.00
O779   O     0.20492   0.04509   0.87291   0.00000  Uiso   1.00
O780   O     0.29509   0.45491   0.79375   0.00000  Uiso   1.00
O781   O     0.20492   0.45491   0.79375   0.00000  Uiso   1.00
O782   O     0.29509   0.04509   0.87291   0.00000  Uiso   1.00
O783   O     0.29509   0.04509   0.79375   0.00000  Uiso   1.00
O784   O     0.20492   0.45491   0.87291   0.00000  Uiso   1.00
O785   O     0.45492   0.29509   0.79375   0.00000  Uiso   1.00
O786   O     0.45492   0.29509   0.87291   0.00000  Uiso   1.00
O787   O     0.04509   0.20491   0.79375   0.00000  Uiso   1.00
O788   O     0.45492   0.20491   0.79375   0.00000  Uiso   1.00
O789   O     0.04509   0.29509   0.87291   0.00000  Uiso   1.00
O790   O     0.04509   0.29509   0.79375   0.00000  Uiso   1.00
O791   O     0.45492   0.20491   0.87291   0.00000  Uiso   1.00
O792   O     0.29509   0.45491   0.87291   0.00000  Uiso   1.00
C793   C     0.56198   0.19363   0.83318   0.00000  Uiso   1.00
C794   C     0.99951   0.28967   0.97536   0.00000  Uiso   1.00
C795   C     0.50051   0.28967   0.69132   0.00000  Uiso   1.00
C796   C     0.50049   0.21033   0.97535   0.00000  Uiso   1.00
C797   C     0.75049   0.46033   0.69131   0.00000  Uiso   1.00
C798   C     0.75052   0.03967   0.97536   0.00000  Uiso   1.00
C799   C     0.74951   0.03967   0.69132   0.00000  Uiso   1.00
C800   C     0.74949   0.46033   0.97535   0.00000  Uiso   1.00
C801   C     0.88429   0.14752   0.79230   0.00000  Uiso   1.00
C802   C     0.61150   0.35759   0.87550   0.00000  Uiso   1.00
C803   C     0.61570   0.35246   0.79231   0.00000  Uiso   1.00
C804   C     0.93802   0.30637   0.83318   0.00000  Uiso   1.00
C805   C     0.88850   0.14243   0.87550   0.00000  Uiso   1.00
C806   C     0.61571   0.14753   0.87436   0.00000  Uiso   1.00
C807   C     0.88849   0.35758   0.79117   0.00000  Uiso   1.00
C808   C     0.88430   0.35249   0.87436   0.00000  Uiso   1.00
C809   C     0.61150   0.14240   0.79117   0.00000  Uiso   1.00
C810   C     0.63850   0.39241   0.79117   0.00000  Uiso   1.00
C811   C     0.86571   0.10248   0.87436   0.00000  Uiso   1.00
C812   C     0.86150   0.10757   0.79117   0.00000  Uiso   1.00
C813   C     0.63430   0.39754   0.87436   0.00000  Uiso   1.00
C814   C     0.86151   0.39242   0.87549   0.00000  Uiso   1.00
C815   C     0.93802   0.19363   0.83348   0.00000  Uiso   1.00
C816   C     0.63429   0.10247   0.79231   0.00000  Uiso   1.00
C817   C     0.63850   0.10760   0.87549   0.00000  Uiso   1.00
C818   C     0.86570   0.39751   0.79231   0.00000  Uiso   1.00
C819   C     0.59824   0.33747   0.83400   0.00000  Uiso   1.00
C820   C     0.90176   0.16253   0.83399   0.00000  Uiso   1.00
C821   C     0.90176   0.33747   0.83267   0.00000  Uiso   1.00
C822   C     0.59824   0.16253   0.83267   0.00000  Uiso   1.00
C823   C     0.84824   0.08747   0.83267   0.00000  Uiso   1.00
C824   C     0.65176   0.41253   0.83267   0.00000  Uiso   1.00
C825   C     0.65176   0.08747   0.83400   0.00000  Uiso   1.00
C826   C     0.56198   0.30637   0.83349   0.00000  Uiso   1.00
C827   C     0.84824   0.41253   0.83400   0.00000  Uiso   1.00
C828   C     0.81198   0.44363   0.83349   0.00000  Uiso   1.00
C829   C     0.68802   0.05637   0.83349   0.00000  Uiso   1.00
C830   C     0.68802   0.44363   0.83318   0.00000  Uiso   1.00
C831   C     0.81198   0.05637   0.83318   0.00000  Uiso   1.00
C832   C     0.99948   0.21033   0.69131   0.00000  Uiso   1.00
Cu833  Cu    0.50000   0.25000   0.88022   0.00000  Uiso   1.00
Cu834  Cu    0.50000   0.25000   0.78645   0.00000  Uiso   1.00
Cu835  Cu    0.75000   0.00000   0.88022   0.00000  Uiso   1.00
Cu836  Cu    0.75000   0.00000   0.78645   0.00000  Uiso   1.00
I837   I     0.99663   0.14631   0.72574   0.00000  Uiso   1.00
I838   I     0.61242   0.32176   0.93895   0.00000  Uiso   1.00
I839   I     0.62122   0.30874   0.73445   0.00000  Uiso   1.00
I840   I     0.88758   0.17829   0.93894   0.00000  Uiso   1.00
I841   I     0.62117   0.19117   0.93225   0.00000  Uiso   1.00
I842   I     0.88761   0.32180   0.72770   0.00000  Uiso   1.00
I843   I     0.87885   0.30888   0.93226   0.00000  Uiso   1.00
I844   I     0.61237   0.17816   0.72769   0.00000  Uiso   1.00
I845   I     0.63758   0.42824   0.72772   0.00000  Uiso   1.00
I846   I     0.87122   0.05878   0.93223   0.00000  Uiso   1.00
I847   I     0.86242   0.07172   0.72773   0.00000  Uiso   1.00
I848   I     0.99670   0.35369   0.94093   0.00000  Uiso   1.00
I849   I     0.62878   0.44126   0.93222   0.00000  Uiso   1.00
I850   I     0.86239   0.42821   0.93897   0.00000  Uiso   1.00
I851   I     0.62883   0.05884   0.73442   0.00000  Uiso   1.00
I852   I     0.63763   0.07184   0.93898   0.00000  Uiso   1.00
I853   I     0.87115   0.44112   0.73441   0.00000  Uiso   1.00
I854   I     0.50335   0.35369   0.72577   0.00000  Uiso   1.00
I855   I     0.50331   0.14631   0.94090   0.00000  Uiso   1.00
I856   I     0.75330   0.39631   0.72574   0.00000  Uiso   1.00
I857   I     0.75337   0.10369   0.94092   0.00000  Uiso   1.00
I858   I     0.74669   0.10369   0.72577   0.00000  Uiso   1.00
I859   I     0.74665   0.39631   0.94090   0.00000  Uiso   1.00
I860   I     0.87878   0.19122   0.73444   0.00000  Uiso   1.00
N861   N     0.50000   0.25000   0.95069   0.00000  Uiso   1.00
N862   N     0.50000   0.25000   0.71598   0.00000  Uiso   1.00
N863   N     0.75000   0.00000   0.95069   0.00000  Uiso   1.00
N864   N     0.75000   0.00000   0.71598   0.00000  Uiso   1.00
O865   O     0.54509   0.20491   0.87291   0.00000  Uiso   1.00
O866   O     0.70492   0.04509   0.79375   0.00000  Uiso   1.00
O867   O     0.70492   0.04509   0.87291   0.00000  Uiso   1.00
O868   O     0.79509   0.45491   0.79375   0.00000  Uiso   1.00
O869   O     0.70492   0.45491   0.79375   0.00000  Uiso   1.00
O870   O     0.79509   0.04509   0.87291   0.00000  Uiso   1.00
O871   O     0.79509   0.04509   0.79375   0.00000  Uiso   1.00
O872   O     0.70492   0.45491   0.87291   0.00000  Uiso   1.00
O873   O     0.95492   0.29509   0.79375   0.00000  Uiso   1.00
O874   O     0.95492   0.29509   0.87291   0.00000  Uiso   1.00
O875   O     0.54509   0.20491   0.79375   0.00000  Uiso   1.00
O876   O     0.95492   0.20491   0.79375   0.00000  Uiso   1.00
O877   O     0.54509   0.29509   0.87291   0.00000  Uiso   1.00
O878   O     0.54509   0.29509   0.79375   0.00000  Uiso   1.00
O879   O     0.95492   0.20491   0.87291   0.00000  Uiso   1.00
O880   O     0.79509   0.45491   0.87291   0.00000  Uiso   1.00
C881   C     0.06198   0.69363   0.83318   0.00000  Uiso   1.00
C882   C     0.49951   0.78967   0.97536   0.00000  Uiso   1.00
C883   C     0.00051   0.78967   0.69132   0.00000  Uiso   1.00
C884   C     0.00049   0.71033   0.97535   0.00000  Uiso   1.00
C885   C     0.25049   0.96033   0.69131   0.00000  Uiso   1.00
C886   C     0.25052   0.53967   0.97536   0.00000  Uiso   1.00
C887   C     0.24951   0.53967   0.69132   0.00000  Uiso   1.00
C888   C     0.24949   0.96033   0.97535   0.00000  Uiso   1.00
C889   C     0.38429   0.64752   0.79230   0.00000  Uiso   1.00
C890   C     0.11150   0.85759   0.87550   0.00000  Uiso   1.00
C891   C     0.11570   0.85246   0.79231   0.00000  Uiso   1.00
C892   C     0.43802   0.80637   0.83318   0.00000  Uiso   1.00
C893   C     0.38850   0.64243   0.87550   0.00000  Uiso   1.00
C894   C     0.11571   0.64753   0.87436   0.00000  Uiso   1.00
C895   C     0.38849   0.85758   0.79117   0.00000  Uiso   1.00
C896   C     0.38430   0.85249   0.87436   0.00000  Uiso   1.00
C897   C     0.11150   0.64240   0.79117   0.00000  Uiso   1.00
C898   C     0.13850   0.89241   0.79117   0.00000  Uiso   1.00
C899   C     0.36571   0.60248   0.87436   0.00000  Uiso   1.00
C900   C     0.36150   0.60757   0.79117   0.00000  Uiso   1.00
C901   C     0.13430   0.89754   0.87436   0.00000  Uiso   1.00
C902   C     0.36151   0.89242   0.87549   0.00000  Uiso   1.00
C903   C     0.43802   0.69363   0.83348   0.00000  Uiso   1.00
C904   C     0.13429   0.60247   0.79231   0.00000  Uiso   1.00
C905   C     0.13850   0.60760   0.87549   0.00000  Uiso   1.00
C906   C     0.36570   0.89751   0.79231   0.00000  Uiso   1.00
C907   C     0.09824   0.83747   0.83400   0.00000  Uiso   1.00
C908   C     0.40176   0.66253   0.83399   0.00000  Uiso   1.00
C909   C     0.40176   0.83747   0.83267   0.00000  Uiso   1.00
C910   C     0.09824   0.66253   0.83267   0.00000  Uiso   1.00
C911   C     0.34824   0.58747   0.83267   0.00000  Uiso   1.00
C912   C     0.15176   0.91253   0.83267   0.00000  Uiso   1.00
C913   C     0.15176   0.58747   0.83400   0.00000  Uiso   1.00
C914   C     0.06198   0.80637   0.83349   0.00000  Uiso   1.00
C915   C     0.34824   0.91253   0.83400   0.00000  Uiso   1.00
C916   C     0.31198   0.94363   0.83349   0.00000  Uiso   1.00
C917   C     0.18802   0.55637   0.83349   0.00000  Uiso   1.00
C918   C     0.18802   0.94363   0.83318   0.00000  Uiso   1.00
C919   C     0.31198   0.55637   0.83318   0.00000  Uiso   1.00
C920   C     0.49948   0.71033   0.69131   0.00000  Uiso   1.00
Cu921  Cu    0.00000   0.75000   0.88022   0.00000  Uiso   1.00
Cu922  Cu    0.00000   0.75000   0.78645   0.00000  Uiso   1.00
Cu923  Cu    0.25000   0.50000   0.88022   0.00000  Uiso   1.00
Cu924  Cu    0.25000   0.50000   0.78645   0.00000  Uiso   1.00
I925   I     0.49663   0.64631   0.72574   0.00000  Uiso   1.00
I926   I     0.11242   0.82176   0.93895   0.00000  Uiso   1.00
I927   I     0.12122   0.80874   0.73445   0.00000  Uiso   1.00
I928   I     0.38758   0.67829   0.93894   0.00000  Uiso   1.00
I929   I     0.12117   0.69117   0.93225   0.00000  Uiso   1.00
I930   I     0.38761   0.82180   0.72770   0.00000  Uiso   1.00
I931   I     0.37885   0.80888   0.93226   0.00000  Uiso   1.00
I932   I     0.11237   0.67816   0.72769   0.00000  Uiso   1.00
I933   I     0.13758   0.92824   0.72772   0.00000  Uiso   1.00
I934   I     0.37122   0.55878   0.93223   0.00000  Uiso   1.00
I935   I     0.36242   0.57172   0.72773   0.00000  Uiso   1.00
I936   I     0.49670   0.85369   0.94093   0.00000  Uiso   1.00
I937   I     0.12878   0.94126   0.93222   0.00000  Uiso   1.00
I938   I     0.36239   0.92821   0.93897   0.00000  Uiso   1.00
I939   I     0.12883   0.55884   0.73442   0.00000  Uiso   1.00
I940   I     0.13763   0.57184   0.93898   0.00000  Uiso   1.00
I941   I     0.37115   0.94112   0.73441   0.00000  Uiso   1.00
I942   I     0.00335   0.85369   0.72577   0.00000  Uiso   1.00
I943   I     0.00331   0.64631   0.94090   0.00000  Uiso   1.00
I944   I     0.25330   0.89631   0.72574   0.00000  Uiso   1.00
I945   I     0.25337   0.60369   0.94092   0.00000  Uiso   1.00
I946   I     0.24669   0.60369   0.72577   0.00000  Uiso   1.00
I947   I     0.24665   0.89631   0.94090   0.00000  Uiso   1.00
I948   I     0.37878   0.69122   0.73444   0.00000  Uiso   1.00
N949   N     0.00000   0.75000   0.95069   0.00000  Uiso   1.00
N950   N     0.00000   0.75000   0.71598   0.00000  Uiso   1.00
N951   N     0.25000   0.50000   0.95069   0.00000  Uiso   1.00
N952   N     0.25000   0.50000   0.71598   0.00000  Uiso   1.00
O953   O     0.04509   0.70491   0.87291   0.00000  Uiso   1.00
O954   O     0.20492   0.54509   0.79375   0.00000  Uiso   1.00
O955   O     0.20492   0.54509   0.87291   0.00000  Uiso   1.00
O956   O     0.29509   0.95491   0.79375   0.00000  Uiso   1.00
O957   O     0.20492   0.95491   0.79375   0.00000  Uiso   1.00
O958   O     0.29509   0.54509   0.87291   0.00000  Uiso   1.00
O959   O     0.29509   0.54509   0.79375   0.00000  Uiso   1.00
O960   O     0.20492   0.95491   0.87291   0.00000  Uiso   1.00
O961   O     0.45492   0.79509   0.79375   0.00000  Uiso   1.00
O962   O     0.45492   0.79509   0.87291   0.00000  Uiso   1.00
O963   O     0.04509   0.70491   0.79375   0.00000  Uiso   1.00
O964   O     0.45492   0.70491   0.79375   0.00000  Uiso   1.00
O965   O     0.04509   0.79509   0.87291   0.00000  Uiso   1.00
O966   O     0.04509   0.79509   0.79375   0.00000  Uiso   1.00
O967   O     0.45492   0.70491   0.87291   0.00000  Uiso   1.00
O968   O     0.29509   0.95491   0.87291   0.00000  Uiso   1.00
C969   C     0.56198   0.69363   0.83318   0.00000  Uiso   1.00
C970   C     0.99951   0.78967   0.97536   0.00000  Uiso   1.00
C971   C     0.50051   0.78967   0.69132   0.00000  Uiso   1.00
C972   C     0.50049   0.71033   0.97535   0.00000  Uiso   1.00
C973   C     0.75049   0.96033   0.69131   0.00000  Uiso   1.00
C974   C     0.75052   0.53967   0.97536   0.00000  Uiso   1.00
C975   C     0.74951   0.53967   0.69132   0.00000  Uiso   1.00
C976   C     0.74949   0.96033   0.97535   0.00000  Uiso   1.00
C977   C     0.88429   0.64752   0.79230   0.00000  Uiso   1.00
C978   C     0.61150   0.85759   0.87550   0.00000  Uiso   1.00
C979   C     0.61570   0.85246   0.79231   0.00000  Uiso   1.00
C980   C     0.93802   0.80637   0.83318   0.00000  Uiso   1.00
C981   C     0.88850   0.64243   0.87550   0.00000  Uiso   1.00
C982   C     0.61571   0.64753   0.87436   0.00000  Uiso   1.00
C983   C     0.88849   0.85758   0.79117   0.00000  Uiso   1.00
C984   C     0.88430   0.85249   0.87436   0.00000  Uiso   1.00
C985   C     0.61150   0.64240   0.79117   0.00000  Uiso   1.00
C986   C     0.63850   0.89241   0.79117   0.00000  Uiso   1.00
C987   C     0.86571   0.60248   0.87436   0.00000  Uiso   1.00
C988   C     0.86150   0.60757   0.79117   0.00000  Uiso   1.00
C989   C     0.63430   0.89754   0.87436   0.00000  Uiso   1.00
C990   C     0.86151   0.89242   0.87549   0.00000  Uiso   1.00
C991   C     0.93802   0.69363   0.83348   0.00000  Uiso   1.00
C992   C     0.63429   0.60247   0.79231   0.00000  Uiso   1.00
C993   C     0.63850   0.60760   0.87549   0.00000  Uiso   1.00
C994   C     0.86570   0.89751   0.79231   0.00000  Uiso   1.00
C995   C     0.59824   0.83747   0.83400   0.00000  Uiso   1.00
C996   C     0.90176   0.66253   0.83399   0.00000  Uiso   1.00
C997   C     0.90176   0.83747   0.83267   0.00000  Uiso   1.00
C998   C     0.59824   0.66253   0.83267   0.00000  Uiso   1.00
C999   C     0.84824   0.58747   0.83267   0.00000  Uiso   1.00
C1000  C     0.65176   0.91253   0.83267   0.00000  Uiso   1.00
C1001  C     0.65176   0.58747   0.83400   0.00000  Uiso   1.00
C1002  C     0.56198   0.80637   0.83349   0.00000  Uiso   1.00
C1003  C     0.84824   0.91253   0.83400   0.00000  Uiso   1.00
C1004  C     0.81198   0.94363   0.83349   0.00000  Uiso   1.00
C1005  C     0.68802   0.55637   0.83349   0.00000  Uiso   1.00
C1006  C     0.68802   0.94363   0.83318   0.00000  Uiso   1.00
C1007  C     0.81198   0.55637   0.83318   0.00000  Uiso   1.00
C1008  C     0.99948   0.71033   0.69131   0.00000  Uiso   1.00
Cu1009 Cu    0.50000   0.75000   0.88022   0.00000  Uiso   1.00
Cu1010 Cu    0.50000   0.75000   0.78645   0.00000  Uiso   1.00
Cu1011 Cu    0.75000   0.50000   0.88022   0.00000  Uiso   1.00
Cu1012 Cu    0.75000   0.50000   0.78645   0.00000  Uiso   1.00
I1013  I     0.99663   0.64631   0.72574   0.00000  Uiso   1.00
I1014  I     0.61242   0.82176   0.93895   0.00000  Uiso   1.00
I1015  I     0.62122   0.80874   0.73445   0.00000  Uiso   1.00
I1016  I     0.88758   0.67829   0.93894   0.00000  Uiso   1.00
I1017  I     0.62117   0.69117   0.93225   0.00000  Uiso   1.00
I1018  I     0.88761   0.82180   0.72770   0.00000  Uiso   1.00
I1019  I     0.87885   0.80888   0.93226   0.00000  Uiso   1.00
I1020  I     0.61237   0.67816   0.72769   0.00000  Uiso   1.00
I1021  I     0.63758   0.92824   0.72772   0.00000  Uiso   1.00
I1022  I     0.87122   0.55878   0.93223   0.00000  Uiso   1.00
I1023  I     0.86242   0.57172   0.72773   0.00000  Uiso   1.00
I1024  I     0.99670   0.85369   0.94093   0.00000  Uiso   1.00
I1025  I     0.62878   0.94126   0.93222   0.00000  Uiso   1.00
I1026  I     0.86239   0.92821   0.93897   0.00000  Uiso   1.00
I1027  I     0.62883   0.55884   0.73442   0.00000  Uiso   1.00
I1028  I     0.63763   0.57184   0.93898   0.00000  Uiso   1.00
I1029  I     0.87115   0.94112   0.73441   0.00000  Uiso   1.00
I1030  I     0.50335   0.85369   0.72577   0.00000  Uiso   1.00
I1031  I     0.50331   0.64631   0.94090   0.00000  Uiso   1.00
I1032  I     0.75330   0.89631   0.72574   0.00000  Uiso   1.00
I1033  I     0.75337   0.60369   0.94092   0.00000  Uiso   1.00
I1034  I     0.74669   0.60369   0.72577   0.00000  Uiso   1.00
I1035  I     0.74665   0.89631   0.94090   0.00000  Uiso   1.00
I1036  I     0.87878   0.69122   0.73444   0.00000  Uiso   1.00
N1037  N     0.50000   0.75000   0.95069   0.00000  Uiso   1.00
N1038  N     0.50000   0.75000   0.71598   0.00000  Uiso   1.00
N1039  N     0.75000   0.50000   0.95069   0.00000  Uiso   1.00
N1040  N     0.75000   0.50000   0.71598   0.00000  Uiso   1.00
O1041  O     0.54509   0.70491   0.87291   0.00000  Uiso   1.00
O1042  O     0.70492   0.54509   0.79375   0.00000  Uiso   1.00
O1043  O     0.70492   0.54509   0.87291   0.00000  Uiso   1.00
O1044  O     0.79509   0.95491   0.79375   0.00000  Uiso   1.00
O1045  O     0.70492   0.95491   0.79375   0.00000  Uiso   1.00
O1046  O     0.79509   0.54509   0.87291   0.00000  Uiso   1.00
O1047  O     0.79509   0.54509   0.79375   0.00000  Uiso   1.00
O1048  O     0.70492   0.95491   0.87291   0.00000  Uiso   1.00
O1049  O     0.95492   0.79509   0.79375   0.00000  Uiso   1.00
O1050  O     0.95492   0.79509   0.87291   0.00000  Uiso   1.00
O1051  O     0.54509   0.70491   0.79375   0.00000  Uiso   1.00
O1052  O     0.95492   0.70491   0.79375   0.00000  Uiso   1.00
O1053  O     0.54509   0.79509   0.87291   0.00000  Uiso   1.00
O1054  O     0.54509   0.79509   0.79375   0.00000  Uiso   1.00
O1055  O     0.95492   0.70491   0.87291   0.00000  Uiso   1.00
O1056  O     0.79509   0.95491   0.87291   0.00000  Uiso   1.00
loop_
_geom_bond_atom_site_label_1
_geom_bond_atom_site_label_2
_geom_bond_distance
_geom_bond_site_symmetry_2
_ccdc_geom_bond_type
C1     O83     1.308   .     A
C1     O73     1.316   .     A
C1     C30     1.473   .     S
C2     I56     2.155   .     S
C2     C443    1.433   .     S
C2     N157    1.382   .     S
C3     I62     2.155   .     S
C3     C794    1.433   1_454 S
C3     N70     1.382   .     S
C4     I63     2.155   .     S
C4     N69     1.382   .     A
C4     C480    1.433   1_455 S
C5     I64     2.155   .     S
C5     C712    1.433   1_554 S
C5     N248    1.382   .     S
C6     I65     2.155   .     S
C6     N71     1.382   .     A
C6     C359    1.433   .     S
C7     N72     1.382   .     A
C7     I66     2.155   .     S
C7     C710    1.433   1_554 S
C8     I67     2.155   .     S
C8     C357    1.433   .     S
C8     N247    1.382   .     S
C9     C20     1.391   .     A
C9     I68     2.134   .     S
C9     C28     1.404   .     A
C10    C27     1.410   .     A
C10    I46     2.130   .     S
C10    C21     1.391   .     A
C11    C18     1.391   .     A
C11    I47     2.134   .     S
C11    C27     1.404   .     A
C12    C29     1.473   .     S
C12    O82     1.316   .     A
C12    O81     1.308   .     A
C13    C28     1.410   .     A
C13    C19     1.391   .     A
C13    I48     2.131   .     S
C14    I49     2.133   .     S
C14    C30     1.404   .     A
C14    C25     1.391   .     A
C15    I50     2.130   .     S
C15    C29     1.410   .     A
C15    C26     1.391   .     A
C16    I51     2.133   .     S
C16    C22     1.391   .     A
C16    C29     1.404   .     A
C17    C30     1.410   .     A
C17    I52     2.130   .     S
C17    C24     1.391   .     A
C18    I53     2.130   .     S
C18    C32     1.410   .     A
C19    C31     1.404   .     A
C19    I54     2.134   .     S
C20    I55     2.131   .     S
C20    C31     1.410   .     A
C21    C32     1.404   .     A
C21    I57     2.134   .     S
C22    C35     1.410   .     A
C22    I58     2.130   .     S
C23    O87     1.308   .     A
C23    O84     1.316   .     A
C23    C28     1.473   .     S
C24    C33     1.404   .     A
C24    I59     2.133   .     S
C25    I60     2.130   .     S
C25    C33     1.410   .     A
C26    I61     2.133   .     S
C26    C35     1.404   .     A
C27    C34     1.473   .     S
C31    C39     1.473   .     S
C32    C38     1.473   .     S
C33    C37     1.473   .     S
C34    O86     1.316   .     A
C34    O85     1.308   .     A
C35    C36     1.473   .     S
C36    O88     1.308   .     A
C36    O76     1.316   .     A
C37    O74     1.316   .     A
C37    O75     1.308   .     A
C38    O77     1.308   .     A
C38    O80     1.316   .     A
C39    O78     1.316   .     A
C39    O79     1.308   .     A
C40    N158    1.382   .     A
C40    I45     2.155   .     S
C40    C796    1.433   1_554 S
Cu41   Cu42    2.725   .     S
Cu41   N69     2.048   .     S
Cu41   O85     1.969   .     S
Cu41   O73     1.969   .     S
Cu41   O170    1.969   1_455 S
Cu41   O175    1.969   1_455 S
Cu42   O86     1.969   .     S
Cu42   O83     1.969   .     S
Cu42   N70     2.048   .     S
Cu42   O169    1.969   1_455 S
Cu42   O172    1.969   1_455 S
Cu43   O78     1.969   .     S
Cu43   N71     2.048   .     S
Cu43   O75     1.969   .     S
Cu43   Cu44    2.725   .     S
Cu43   O256    1.969   1_545 S
Cu43   O264    1.969   1_545 S
Cu44   O74     1.969   .     S
Cu44   O79     1.969   .     S
Cu44   N72     2.048   .     S
Cu44   O252    1.969   1_545 S
Cu44   O253    1.969   1_545 S
N69    C90     1.382   1_455 S
N70    C128    1.382   1_455 A
N71    C184    1.382   1_545 S
N72    C181    1.382   1_545 S
O76    Cu220   1.969   .     S
O77    Cu220   1.969   .     S
O80    Cu219   1.969   .     S
O81    Cu130   1.969   .     S
O82    Cu129   1.969   .     S
O84    Cu130   1.969   .     S
O87    Cu129   1.969   .     S
O88    Cu219   1.969   .     S
C89    O171    1.308   .     A
C89    O161    1.316   .     A
C89    C118    1.473   .     S
C90    I144    2.155   .     S
C90    C355    1.433   1_655 S
C90    N69     1.382   1_655 S
C91    I150    2.155   .     S
C91    C706    1.433   1_554 S
C91    N158    1.382   .     S
C92    I151    2.155   .     S
C92    N157    1.382   .     A
C92    C392    1.433   .     S
C93    I152    2.155   .     S
C93    C800    1.433   1_554 S
C93    N336    1.382   .     S
C94    I153    2.155   .     S
C94    N159    1.382   .     A
C94    C447    1.433   .     S
C95    N160    1.382   .     A
C95    I154    2.155   .     S
C95    C798    1.433   1_554 S
C96    I155    2.155   .     S
C96    C445    1.433   .     S
C96    N335    1.382   .     S
C97    C108    1.391   .     A
C97    I156    2.134   .     S
C97    C116    1.404   .     A
C98    C115    1.410   .     A
C98    I134    2.130   .     S
C98    C109    1.391   .     A
C99    C106    1.391   .     A
C99    I135    2.134   .     S
C99    C115    1.404   .     A
C100   C117    1.473   .     S
C100   O170    1.316   .     A
C100   O169    1.308   .     A
C101   C116    1.410   .     A
C101   C107    1.391   .     A
C101   I136    2.131   .     S
C102   I137    2.133   .     S
C102   C118    1.404   .     A
C102   C113    1.391   .     A
C103   I138    2.130   .     S
C103   C117    1.410   .     A
C103   C114    1.391   .     A
C104   I139    2.133   .     S
C104   C110    1.391   .     A
C104   C117    1.404   .     A
C105   C118    1.410   .     A
C105   I140    2.130   .     S
C105   C112    1.391   .     A
C106   I141    2.130   .     S
C106   C120    1.410   .     A
C107   C119    1.404   .     A
C107   I142    2.134   .     S
C108   I143    2.131   .     S
C108   C119    1.410   .     A
C109   C120    1.404   .     A
C109   I145    2.134   .     S
C110   C123    1.410   .     A
C110   I146    2.130   .     S
C111   O175    1.308   .     A
C111   O172    1.316   .     A
C111   C116    1.473   .     S
C112   C121    1.404   .     A
C112   I147    2.133   .     S
C113   I148    2.130   .     S
C113   C121    1.410   .     A
C114   I149    2.133   .     S
C114   C123    1.404   .     A
C115   C122    1.473   .     S
C119   C127    1.473   .     S
C120   C126    1.473   .     S
C121   C125    1.473   .     S
C122   O174    1.316   .     A
C122   O173    1.308   .     A
C123   C124    1.473   .     S
C124   O176    1.308   .     A
C124   O164    1.316   .     A
C125   O162    1.316   .     A
C125   O163    1.308   .     A
C126   O165    1.308   .     A
C126   O168    1.316   .     A
C127   O166    1.316   .     A
C127   O167    1.308   .     A
C128   N70     1.382   1_655 A
C128   I133    2.155   .     S
C128   C708    1.433   1_654 S
Cu129  Cu130   2.725   .     S
Cu129  N157    2.048   .     S
Cu129  O173    1.969   .     S
Cu129  O161    1.969   .     S
Cu130  O174    1.969   .     S
Cu130  O171    1.969   .     S
Cu130  N158    2.048   .     S
Cu131  O166    1.969   .     S
Cu131  N159    2.048   .     S
Cu131  O163    1.969   .     S
Cu131  Cu132   2.725   .     S
Cu131  O344    1.969   1_545 S
Cu131  O352    1.969   1_545 S
Cu132  O162    1.969   .     S
Cu132  O167    1.969   .     S
Cu132  N160    2.048   .     S
Cu132  O340    1.969   1_545 S
Cu132  O341    1.969   1_545 S
N159   C272    1.382   1_545 S
N160   C269    1.382   1_545 S
O164   Cu308   1.969   .     S
O165   Cu308   1.969   .     S
O168   Cu307   1.969   .     S
O169   Cu42    1.969   1_655 S
O170   Cu41    1.969   1_655 S
O172   Cu42    1.969   1_655 S
O175   Cu41    1.969   1_655 S
O176   Cu307   1.969   .     S
C177   O259    1.308   .     A
C177   O249    1.316   .     A
C177   C206    1.473   .     S
C178   I232    2.155   .     S
C178   C619    1.433   .     S
C178   N333    1.382   .     S
C179   I238    2.155   .     S
C179   C970    1.433   1_454 S
C179   N246    1.382   .     S
C180   I239    2.155   .     S
C180   N245    1.382   .     A
C180   C656    1.433   1_455 S
C181   I240    2.155   .     S
C181   C888    1.433   1_554 S
C181   N72     1.382   1_565 S
C182   I241    2.155   .     S
C182   N247    1.382   .     A
C182   C535    1.433   .     S
C183   N248    1.382   .     A
C183   I242    2.155   .     S
C183   C886    1.433   1_554 S
C184   I243    2.155   .     S
C184   C533    1.433   .     S
C184   N71     1.382   1_565 S
C185   C196    1.391   .     A
C185   I244    2.134   .     S
C185   C204    1.404   .     A
C186   C203    1.410   .     A
C186   I222    2.130   .     S
C186   C197    1.391   .     A
C187   C194    1.391   .     A
C187   I223    2.134   .     S
C187   C203    1.404   .     A
C188   C205    1.473   .     S
C188   O258    1.316   .     A
C188   O257    1.308   .     A
C189   C204    1.410   .     A
C189   C195    1.391   .     A
C189   I224    2.131   .     S
C190   I225    2.133   .     S
C190   C206    1.404   .     A
C190   C201    1.391   .     A
C191   I226    2.130   .     S
C191   C205    1.410   .     A
C191   C202    1.391   .     A
C192   I227    2.133   .     S
C192   C198    1.391   .     A
C192   C205    1.404   .     A
C193   C206    1.410   .     A
C193   I228    2.130   .     S
C193   C200    1.391   .     A
C194   I229    2.130   .     S
C194   C208    1.410   .     A
C195   C207    1.404   .     A
C195   I230    2.134   .     S
C196   I231    2.131   .     S
C196   C207    1.410   .     A
C197   C208    1.404   .     A
C197   I233    2.134   .     S
C198   C211    1.410   .     A
C198   I234    2.130   .     S
C199   O263    1.308   .     A
C199   O260    1.316   .     A
C199   C204    1.473   .     S
C200   C209    1.404   .     A
C200   I235    2.133   .     S
C201   I236    2.130   .     S
C201   C209    1.410   .     A
C202   I237    2.133   .     S
C202   C211    1.404   .     A
C203   C210    1.473   .     S
C207   C215    1.473   .     S
C208   C214    1.473   .     S
C209   C213    1.473   .     S
C210   O262    1.316   .     A
C210   O261    1.308   .     A
C211   C212    1.473   .     S
C212   O264    1.308   .     A
C212   O252    1.316   .     A
C213   O250    1.316   .     A
C213   O251    1.308   .     A
C214   O253    1.308   .     A
C214   O256    1.316   .     A
C215   O254    1.316   .     A
C215   O255    1.308   .     A
C216   N334    1.382   .     A
C216   I221    2.155   .     S
C216   C972    1.433   1_554 S
Cu217  Cu218   2.725   .     S
Cu217  N245    2.048   .     S
Cu217  O261    1.969   .     S
Cu217  O249    1.969   .     S
Cu217  O346    1.969   1_455 S
Cu217  O351    1.969   1_455 S
Cu218  O262    1.969   .     S
Cu218  O259    1.969   .     S
Cu218  N246    2.048   .     S
Cu218  O345    1.969   1_455 S
Cu218  O348    1.969   1_455 S
Cu219  O254    1.969   .     S
Cu219  N247    2.048   .     S
Cu219  O251    1.969   .     S
Cu219  Cu220   2.725   .     S
Cu220  O250    1.969   .     S
Cu220  O255    1.969   .     S
Cu220  N248    2.048   .     S
N245   C266    1.382   1_455 S
N246   C304    1.382   1_455 A
O252   Cu44    1.969   1_565 S
O253   Cu44    1.969   1_565 S
O256   Cu43    1.969   1_565 S
O257   Cu306   1.969   .     S
O258   Cu305   1.969   .     S
O260   Cu306   1.969   .     S
O263   Cu305   1.969   .     S
O264   Cu43    1.969   1_565 S
C265   O347    1.308   .     A
C265   O337    1.316   .     A
C265   C294    1.473   .     S
C266   I320    2.155   .     S
C266   C531    1.433   1_655 S
C266   N245    1.382   1_655 S
C267   I326    2.155   .     S
C267   C882    1.433   1_554 S
C267   N334    1.382   .     S
C268   I327    2.155   .     S
C268   N333    1.382   .     A
C268   C568    1.433   .     S
C269   I328    2.155   .     S
C269   C976    1.433   1_554 S
C269   N160    1.382   1_565 S
C270   I329    2.155   .     S
C270   N335    1.382   .     A
C270   C623    1.433   .     S
C271   N336    1.382   .     A
C271   I330    2.155   .     S
C271   C974    1.433   1_554 S
C272   I331    2.155   .     S
C272   C621    1.433   .     S
C272   N159    1.382   1_565 S
C273   C284    1.391   .     A
C273   I332    2.134   .     S
C273   C292    1.404   .     A
C274   C291    1.410   .     A
C274   I310    2.130   .     S
C274   C285    1.391   .     A
C275   C282    1.391   .     A
C275   I311    2.134   .     S
C275   C291    1.404   .     A
C276   C293    1.473   .     S
C276   O346    1.316   .     A
C276   O345    1.308   .     A
C277   C292    1.410   .     A
C277   C283    1.391   .     A
C277   I312    2.131   .     S
C278   I313    2.133   .     S
C278   C294    1.404   .     A
C278   C289    1.391   .     A
C279   I314    2.130   .     S
C279   C293    1.410   .     A
C279   C290    1.391   .     A
C280   I315    2.133   .     S
C280   C286    1.391   .     A
C280   C293    1.404   .     A
C281   C294    1.410   .     A
C281   I316    2.130   .     S
C281   C288    1.391   .     A
C282   I317    2.130   .     S
C282   C296    1.410   .     A
C283   C295    1.404   .     A
C283   I318    2.134   .     S
C284   I319    2.131   .     S
C284   C295    1.410   .     A
C285   C296    1.404   .     A
C285   I321    2.134   .     S
C286   C299    1.410   .     A
C286   I322    2.130   .     S
C287   O351    1.308   .     A
C287   O348    1.316   .     A
C287   C292    1.473   .     S
C288   C297    1.404   .     A
C288   I323    2.133   .     S
C289   I324    2.130   .     S
C289   C297    1.410   .     A
C290   I325    2.133   .     S
C290   C299    1.404   .     A
C291   C298    1.473   .     S
C295   C303    1.473   .     S
C296   C302    1.473   .     S
C297   C301    1.473   .     S
C298   O350    1.316   .     A
C298   O349    1.308   .     A
C299   C300    1.473   .     S
C300   O352    1.308   .     A
C300   O340    1.316   .     A
C301   O338    1.316   .     A
C301   O339    1.308   .     A
C302   O341    1.308   .     A
C302   O344    1.316   .     A
C303   O342    1.316   .     A
C303   O343    1.308   .     A
C304   N246    1.382   1_655 A
C304   I309    2.155   .     S
C304   C884    1.433   1_654 S
Cu305  Cu306   2.725   .     S
Cu305  N333    2.048   .     S
Cu305  O349    1.969   .     S
Cu305  O337    1.969   .     S
Cu306  O350    1.969   .     S
Cu306  O347    1.969   .     S
Cu306  N334    2.048   .     S
Cu307  O342    1.969   .     S
Cu307  N335    2.048   .     S
Cu307  O339    1.969   .     S
Cu307  Cu308   2.725   .     S
Cu308  O338    1.969   .     S
Cu308  O343    1.969   .     S
Cu308  N336    2.048   .     S
O340   Cu132   1.969   1_565 S
O341   Cu132   1.969   1_565 S
O344   Cu131   1.969   1_565 S
O345   Cu218   1.969   1_655 S
O346   Cu217   1.969   1_655 S
O348   Cu218   1.969   1_655 S
O351   Cu217   1.969   1_655 S
O352   Cu131   1.969   1_565 S
C353   O435    1.308   .     A
C353   O425    1.316   .     A
C353   C382    1.473   .     S
C354   I408    2.155   .     S
C354   C795    1.433   .     S
C354   N509    1.382   .     S
C355   I414    2.155   .     S
C355   C90     1.433   1_455 S
C355   N422    1.382   .     S
C356   I415    2.155   .     S
C356   N421    1.382   .     A
C356   C832    1.433   1_455 S
C357   I416    2.155   .     S
C357   N600    1.382   .     S
C358   I417    2.155   .     S
C358   N423    1.382   .     A
C358   C711    1.433   .     S
C359   N424    1.382   .     A
C359   I418    2.155   .     S
C360   I419    2.155   .     S
C360   C709    1.433   .     S
C360   N599    1.382   .     S
C361   C372    1.391   .     A
C361   I420    2.134   .     S
C361   C380    1.404   .     A
C362   C379    1.410   .     A
C362   I398    2.130   .     S
C362   C373    1.391   .     A
C363   C370    1.391   .     A
C363   I399    2.134   .     S
C363   C379    1.404   .     A
C364   C381    1.473   .     S
C364   O434    1.316   .     A
C364   O433    1.308   .     A
C365   C380    1.410   .     A
C365   C371    1.391   .     A
C365   I400    2.131   .     S
C366   I401    2.133   .     S
C366   C382    1.404   .     A
C366   C377    1.391   .     A
C367   I402    2.130   .     S
C367   C381    1.410   .     A
C367   C378    1.391   .     A
C368   I403    2.133   .     S
C368   C374    1.391   .     A
C368   C381    1.404   .     A
C369   C382    1.410   .     A
C369   I404    2.130   .     S
C369   C376    1.391   .     A
C370   I405    2.130   .     S
C370   C384    1.410   .     A
C371   C383    1.404   .     A
C371   I406    2.134   .     S
C372   I407    2.131   .     S
C372   C383    1.410   .     A
C373   C384    1.404   .     A
C373   I409    2.134   .     S
C374   C387    1.410   .     A
C374   I410    2.130   .     S
C375   O439    1.308   .     A
C375   O436    1.316   .     A
C375   C380    1.473   .     S
C376   C385    1.404   .     A
C376   I411    2.133   .     S
C377   I412    2.130   .     S
C377   C385    1.410   .     A
C378   I413    2.133   .     S
C378   C387    1.404   .     A
C379   C386    1.473   .     S
C383   C391    1.473   .     S
C384   C390    1.473   .     S
C385   C389    1.473   .     S
C386   O438    1.316   .     A
C386   O437    1.308   .     A
C387   C388    1.473   .     S
C388   O440    1.308   .     A
C388   O428    1.316   .     A
C389   O426    1.316   .     A
C389   O427    1.308   .     A
C390   O429    1.308   .     A
C390   O432    1.316   .     A
C391   O430    1.316   .     A
C391   O431    1.308   .     A
C392   N510    1.382   .     A
C392   I397    2.155   .     S
Cu393  Cu394   2.725   .     S
Cu393  N421    2.048   .     S
Cu393  O437    1.969   .     S
Cu393  O425    1.969   .     S
Cu393  O522    1.969   1_455 S
Cu393  O527    1.969   1_455 S
Cu394  O438    1.969   .     S
Cu394  O435    1.969   .     S
Cu394  N422    2.048   .     S
Cu394  O521    1.969   1_455 S
Cu394  O524    1.969   1_455 S
Cu395  O430    1.969   .     S
Cu395  N423    2.048   .     S
Cu395  O427    1.969   .     S
Cu395  Cu396   2.725   .     S
Cu395  O608    1.969   1_545 S
Cu395  O616    1.969   1_545 S
Cu396  O426    1.969   .     S
Cu396  O431    1.969   .     S
Cu396  N424    2.048   .     S
Cu396  O604    1.969   1_545 S
Cu396  O605    1.969   1_545 S
N421   C442    1.382   1_455 S
N422   C480    1.382   1_455 A
N423   C536    1.382   1_545 S
N424   C533    1.382   1_545 S
O428   Cu572   1.969   .     S
O429   Cu572   1.969   .     S
O432   Cu571   1.969   .     S
O433   Cu482   1.969   .     S
O434   Cu481   1.969   .     S
O436   Cu482   1.969   .     S
O439   Cu481   1.969   .     S
O440   Cu571   1.969   .     S
C441   O523    1.308   .     A
C441   O513    1.316   .     A
C441   C470    1.473   .     S
C442   I496    2.155   .     S
C442   C707    1.433   1_655 S
C442   N421    1.382   1_655 S
C443   I502    2.155   .     S
C443   N510    1.382   .     S
C444   I503    2.155   .     S
C444   N509    1.382   .     A
C444   C744    1.433   .     S
C445   I504    2.155   .     S
C445   N688    1.382   .     S
C446   I505    2.155   .     S
C446   N511    1.382   .     A
C446   C799    1.433   .     S
C447   N512    1.382   .     A
C447   I506    2.155   .     S
C448   I507    2.155   .     S
C448   C797    1.433   .     S
C448   N687    1.382   .     S
C449   C460    1.391   .     A
C449   I508    2.134   .     S
C449   C468    1.404   .     A
C450   C467    1.410   .     A
C450   I486    2.130   .     S
C450   C461    1.391   .     A
C451   C458    1.391   .     A
C451   I487    2.134   .     S
C451   C467    1.404   .     A
C452   C469    1.473   .     S
C452   O522    1.316   .     A
C452   O521    1.308   .     A
C453   C468    1.410   .     A
C453   C459    1.391   .     A
C453   I488    2.131   .     S
C454   I489    2.133   .     S
C454   C470    1.404   .     A
C454   C465    1.391   .     A
C455   I490    2.130   .     S
C455   C469    1.410   .     A
C455   C466    1.391   .     A
C456   I491    2.133   .     S
C456   C462    1.391   .     A
C456   C469    1.404   .     A
C457   C470    1.410   .     A
C457   I492    2.130   .     S
C457   C464    1.391   .     A
C458   I493    2.130   .     S
C458   C472    1.410   .     A
C459   C471    1.404   .     A
C459   I494    2.134   .     S
C460   I495    2.131   .     S
C460   C471    1.410   .     A
C461   C472    1.404   .     A
C461   I497    2.134   .     S
C462   C475    1.410   .     A
C462   I498    2.130   .     S
C463   O527    1.308   .     A
C463   O524    1.316   .     A
C463   C468    1.473   .     S
C464   C473    1.404   .     A
C464   I499    2.133   .     S
C465   I500    2.130   .     S
C465   C473    1.410   .     A
C466   I501    2.133   .     S
C466   C475    1.404   .     A
C467   C474    1.473   .     S
C471   C479    1.473   .     S
C472   C478    1.473   .     S
C473   C477    1.473   .     S
C474   O526    1.316   .     A
C474   O525    1.308   .     A
C475   C476    1.473   .     S
C476   O528    1.308   .     A
C476   O516    1.316   .     A
C477   O514    1.316   .     A
C477   O515    1.308   .     A
C478   O517    1.308   .     A
C478   O520    1.316   .     A
C479   O518    1.316   .     A
C479   O519    1.308   .     A
C480   N422    1.382   1_655 A
C480   I485    2.155   .     S
C480   C4      1.433   1_655 S
Cu481  Cu482   2.725   .     S
Cu481  N509    2.048   .     S
Cu481  O525    1.969   .     S
Cu481  O513    1.969   .     S
Cu482  O526    1.969   .     S
Cu482  O523    1.969   .     S
Cu482  N510    2.048   .     S
Cu483  O518    1.969   .     S
Cu483  N511    2.048   .     S
Cu483  O515    1.969   .     S
Cu483  Cu484   2.725   .     S
Cu483  O696    1.969   1_545 S
Cu483  O704    1.969   1_545 S
Cu484  O514    1.969   .     S
Cu484  O519    1.969   .     S
Cu484  N512    2.048   .     S
Cu484  O692    1.969   1_545 S
Cu484  O693    1.969   1_545 S
N511   C624    1.382   1_545 S
N512   C621    1.382   1_545 S
O516   Cu660   1.969   .     S
O517   Cu660   1.969   .     S
O520   Cu659   1.969   .     S
O521   Cu394   1.969   1_655 S
O522   Cu393   1.969   1_655 S
O524   Cu394   1.969   1_655 S
O527   Cu393   1.969   1_655 S
O528   Cu659   1.969   .     S
C529   O611    1.308   .     A
C529   O601    1.316   .     A
C529   C558    1.473   .     S
C530   I584    2.155   .     S
C530   C971    1.433   .     S
C530   N685    1.382   .     S
C531   I590    2.155   .     S
C531   C266    1.433   1_455 S
C531   N598    1.382   .     S
C532   I591    2.155   .     S
C532   N597    1.382   .     A
C532   C1008   1.433   1_455 S
C533   I592    2.155   .     S
C533   N424    1.382   1_565 S
C534   I593    2.155   .     S
C534   N599    1.382   .     A
C534   C887    1.433   .     S
C535   N600    1.382   .     A
C535   I594    2.155   .     S
C536   I595    2.155   .     S
C536   C885    1.433   .     S
C536   N423    1.382   1_565 S
C537   C548    1.391   .     A
C537   I596    2.134   .     S
C537   C556    1.404   .     A
C538   C555    1.410   .     A
C538   I574    2.130   .     S
C538   C549    1.391   .     A
C539   C546    1.391   .     A
C539   I575    2.134   .     S
C539   C555    1.404   .     A
C540   C557    1.473   .     S
C540   O610    1.316   .     A
C540   O609    1.308   .     A
C541   C556    1.410   .     A
C541   C547    1.391   .     A
C541   I576    2.131   .     S
C542   I577    2.133   .     S
C542   C558    1.404   .     A
C542   C553    1.391   .     A
C543   I578    2.130   .     S
C543   C557    1.410   .     A
C543   C554    1.391   .     A
C544   I579    2.133   .     S
C544   C550    1.391   .     A
C544   C557    1.404   .     A
C545   C558    1.410   .     A
C545   I580    2.130   .     S
C545   C552    1.391   .     A
C546   I581    2.130   .     S
C546   C560    1.410   .     A
C547   C559    1.404   .     A
C547   I582    2.134   .     S
C548   I583    2.131   .     S
C548   C559    1.410   .     A
C549   C560    1.404   .     A
C549   I585    2.134   .     S
C550   C563    1.410   .     A
C550   I586    2.130   .     S
C551   O615    1.308   .     A
C551   O612    1.316   .     A
C551   C556    1.473   .     S
C552   C561    1.404   .     A
C552   I587    2.133   .     S
C553   I588    2.130   .     S
C553   C561    1.410   .     A
C554   I589    2.133   .     S
C554   C563    1.404   .     A
C555   C562    1.473   .     S
C559   C567    1.473   .     S
C560   C566    1.473   .     S
C561   C565    1.473   .     S
C562   O614    1.316   .     A
C562   O613    1.308   .     A
C563   C564    1.473   .     S
C564   O616    1.308   .     A
C564   O604    1.316   .     A
C565   O602    1.316   .     A
C565   O603    1.308   .     A
C566   O605    1.308   .     A
C566   O608    1.316   .     A
C567   O606    1.316   .     A
C567   O607    1.308   .     A
C568   N686    1.382   .     A
C568   I573    2.155   .     S
Cu569  Cu570   2.725   .     S
Cu569  N597    2.048   .     S
Cu569  O613    1.969   .     S
Cu569  O601    1.969   .     S
Cu569  O698    1.969   1_455 S
Cu569  O703    1.969   1_455 S
Cu570  O614    1.969   .     S
Cu570  O611    1.969   .     S
Cu570  N598    2.048   .     S
Cu570  O697    1.969   1_455 S
Cu570  O700    1.969   1_455 S
Cu571  O606    1.969   .     S
Cu571  N599    2.048   .     S
Cu571  O603    1.969   .     S
Cu571  Cu572   2.725   .     S
Cu572  O602    1.969   .     S
Cu572  O607    1.969   .     S
Cu572  N600    2.048   .     S
N597   C618    1.382   1_455 S
N598   C656    1.382   1_455 A
O604   Cu396   1.969   1_565 S
O605   Cu396   1.969   1_565 S
O608   Cu395   1.969   1_565 S
O609   Cu658   1.969   .     S
O610   Cu657   1.969   .     S
O612   Cu658   1.969   .     S
O615   Cu657   1.969   .     S
O616   Cu395   1.969   1_565 S
C617   O699    1.308   .     A
C617   O689    1.316   .     A
C617   C646    1.473   .     S
C618   I672    2.155   .     S
C618   C883    1.433   1_655 S
C618   N597    1.382   1_655 S
C619   I678    2.155   .     S
C619   N686    1.382   .     S
C620   I679    2.155   .     S
C620   N685    1.382   .     A
C620   C920    1.433   .     S
C621   I680    2.155   .     S
C621   N512    1.382   1_565 S
C622   I681    2.155   .     S
C622   N687    1.382   .     A
C622   C975    1.433   .     S
C623   N688    1.382   .     A
C623   I682    2.155   .     S
C624   I683    2.155   .     S
C624   C973    1.433   .     S
C624   N511    1.382   1_565 S
C625   C636    1.391   .     A
C625   I684    2.134   .     S
C625   C644    1.404   .     A
C626   C643    1.410   .     A
C626   I662    2.130   .     S
C626   C637    1.391   .     A
C627   C634    1.391   .     A
C627   I663    2.134   .     S
C627   C643    1.404   .     A
C628   C645    1.473   .     S
C628   O698    1.316   .     A
C628   O697    1.308   .     A
C629   C644    1.410   .     A
C629   C635    1.391   .     A
C629   I664    2.131   .     S
C630   I665    2.133   .     S
C630   C646    1.404   .     A
C630   C641    1.391   .     A
C631   I666    2.130   .     S
C631   C645    1.410   .     A
C631   C642    1.391   .     A
C632   I667    2.133   .     S
C632   C638    1.391   .     A
C632   C645    1.404   .     A
C633   C646    1.410   .     A
C633   I668    2.130   .     S
C633   C640    1.391   .     A
C634   I669    2.130   .     S
C634   C648    1.410   .     A
C635   C647    1.404   .     A
C635   I670    2.134   .     S
C636   I671    2.131   .     S
C636   C647    1.410   .     A
C637   C648    1.404   .     A
C637   I673    2.134   .     S
C638   C651    1.410   .     A
C638   I674    2.130   .     S
C639   O703    1.308   .     A
C639   O700    1.316   .     A
C639   C644    1.473   .     S
C640   C649    1.404   .     A
C640   I675    2.133   .     S
C641   I676    2.130   .     S
C641   C649    1.410   .     A
C642   I677    2.133   .     S
C642   C651    1.404   .     A
C643   C650    1.473   .     S
C647   C655    1.473   .     S
C648   C654    1.473   .     S
C649   C653    1.473   .     S
C650   O702    1.316   .     A
C650   O701    1.308   .     A
C651   C652    1.473   .     S
C652   O704    1.308   .     A
C652   O692    1.316   .     A
C653   O690    1.316   .     A
C653   O691    1.308   .     A
C654   O693    1.308   .     A
C654   O696    1.316   .     A
C655   O694    1.316   .     A
C655   O695    1.308   .     A
C656   N598    1.382   1_655 A
C656   I661    2.155   .     S
C656   C180    1.433   1_655 S
Cu657  Cu658   2.725   .     S
Cu657  N685    2.048   .     S
Cu657  O701    1.969   .     S
Cu657  O689    1.969   .     S
Cu658  O702    1.969   .     S
Cu658  O699    1.969   .     S
Cu658  N686    2.048   .     S
Cu659  O694    1.969   .     S
Cu659  N687    2.048   .     S
Cu659  O691    1.969   .     S
Cu659  Cu660   2.725   .     S
Cu660  O690    1.969   .     S
Cu660  O695    1.969   .     S
Cu660  N688    2.048   .     S
O692   Cu484   1.969   1_565 S
O693   Cu484   1.969   1_565 S
O696   Cu483   1.969   1_565 S
O697   Cu570   1.969   1_655 S
O698   Cu569   1.969   1_655 S
O700   Cu570   1.969   1_655 S
O703   Cu569   1.969   1_655 S
O704   Cu483   1.969   1_565 S
C705   O787    1.308   .     A
C705   O777    1.316   .     A
C705   C734    1.473   .     S
C706   I760    2.155   .     S
C706   C91     1.433   1_556 S
C706   N861    1.382   .     S
C707   I766    2.155   .     S
C707   C442    1.433   1_455 S
C707   N774    1.382   .     S
C708   I767    2.155   .     S
C708   N773    1.382   .     A
C708   C128    1.433   1_456 S
C709   I768    2.155   .     S
C709   N952    1.382   .     S
C710   I769    2.155   .     S
C710   N775    1.382   .     A
C710   C7      1.433   1_556 S
C711   N776    1.382   .     A
C711   I770    2.155   .     S
C712   I771    2.155   .     S
C712   C5      1.433   1_556 S
C712   N951    1.382   .     S
C713   C724    1.391   .     A
C713   I772    2.134   .     S
C713   C732    1.404   .     A
C714   C731    1.410   .     A
C714   I750    2.130   .     S
C714   C725    1.391   .     A
C715   C722    1.391   .     A
C715   I751    2.134   .     S
C715   C731    1.404   .     A
C716   C733    1.473   .     S
C716   O786    1.316   .     A
C716   O785    1.308   .     A
C717   C732    1.410   .     A
C717   C723    1.391   .     A
C717   I752    2.131   .     S
C718   I753    2.133   .     S
C718   C734    1.404   .     A
C718   C729    1.391   .     A
C719   I754    2.130   .     S
C719   C733    1.410   .     A
C719   C730    1.391   .     A
C720   I755    2.133   .     S
C720   C726    1.391   .     A
C720   C733    1.404   .     A
C721   C734    1.410   .     A
C721   I756    2.130   .     S
C721   C728    1.391   .     A
C722   I757    2.130   .     S
C722   C736    1.410   .     A
C723   C735    1.404   .     A
C723   I758    2.134   .     S
C724   I759    2.131   .     S
C724   C735    1.410   .     A
C725   C736    1.404   .     A
C725   I761    2.134   .     S
C726   C739    1.410   .     A
C726   I762    2.130   .     S
C727   O791    1.308   .     A
C727   O788    1.316   .     A
C727   C732    1.473   .     S
C728   C737    1.404   .     A
C728   I763    2.133   .     S
C729   I764    2.130   .     S
C729   C737    1.410   .     A
C730   I765    2.133   .     S
C730   C739    1.404   .     A
C731   C738    1.473   .     S
C735   C743    1.473   .     S
C736   C742    1.473   .     S
C737   C741    1.473   .     S
C738   O790    1.316   .     A
C738   O789    1.308   .     A
C739   C740    1.473   .     S
C740   O792    1.308   .     A
C740   O780    1.316   .     A
C741   O778    1.316   .     A
C741   O779    1.308   .     A
C742   O781    1.308   .     A
C742   O784    1.316   .     A
C743   O782    1.316   .     A
C743   O783    1.308   .     A
C744   N862    1.382   .     A
C744   I749    2.155   .     S
Cu745  Cu746   2.725   .     S
Cu745  N773    2.048   .     S
Cu745  O789    1.969   .     S
Cu745  O777    1.969   .     S
Cu745  O874    1.969   1_455 S
Cu745  O879    1.969   1_455 S
Cu746  O790    1.969   .     S
Cu746  O787    1.969   .     S
Cu746  N774    2.048   .     S
Cu746  O873    1.969   1_455 S
Cu746  O876    1.969   1_455 S
Cu747  O782    1.969   .     S
Cu747  N775    2.048   .     S
Cu747  O779    1.969   .     S
Cu747  Cu748   2.725   .     S
Cu747  O960    1.969   1_545 S
Cu747  O968    1.969   1_545 S
Cu748  O778    1.969   .     S
Cu748  O783    1.969   .     S
Cu748  N776    2.048   .     S
Cu748  O956    1.969   1_545 S
Cu748  O957    1.969   1_545 S
N773   C794    1.382   1_455 S
N774   C832    1.382   1_455 A
N775   C888    1.382   1_545 S
N776   C885    1.382   1_545 S
O780   Cu924   1.969   .     S
O781   Cu924   1.969   .     S
O784   Cu923   1.969   .     S
O785   Cu834   1.969   .     S
O786   Cu833   1.969   .     S
O788   Cu834   1.969   .     S
O791   Cu833   1.969   .     S
O792   Cu923   1.969   .     S
C793   O875    1.308   .     A
C793   O865    1.316   .     A
C793   C822    1.473   .     S
C794   I848    2.155   .     S
C794   C3      1.433   1_656 S
C794   N773    1.382   1_655 S
C795   I854    2.155   .     S
C795   N862    1.382   .     S
C796   I855    2.155   .     S
C796   N861    1.382   .     A
C796   C40     1.433   1_556 S
C797   I856    2.155   .     S
C797   N1040   1.382   .     S
C798   I857    2.155   .     S
C798   N863    1.382   .     A
C798   C95     1.433   1_556 S
C799   N864    1.382   .     A
C799   I858    2.155   .     S
C800   I859    2.155   .     S
C800   C93     1.433   1_556 S
C800   N1039   1.382   .     S
C801   C812    1.391   .     A
C801   I860    2.134   .     S
C801   C820    1.404   .     A
C802   C819    1.410   .     A
C802   I838    2.130   .     S
C802   C813    1.391   .     A
C803   C810    1.391   .     A
C803   I839    2.134   .     S
C803   C819    1.404   .     A
C804   C821    1.473   .     S
C804   O874    1.316   .     A
C804   O873    1.308   .     A
C805   C820    1.410   .     A
C805   C811    1.391   .     A
C805   I840    2.131   .     S
C806   I841    2.133   .     S
C806   C822    1.404   .     A
C806   C817    1.391   .     A
C807   I842    2.130   .     S
C807   C821    1.410   .     A
C807   C818    1.391   .     A
C808   I843    2.133   .     S
C808   C814    1.391   .     A
C808   C821    1.404   .     A
C809   C822    1.410   .     A
C809   I844    2.130   .     S
C809   C816    1.391   .     A
C810   I845    2.130   .     S
C810   C824    1.410   .     A
C811   C823    1.404   .     A
C811   I846    2.134   .     S
C812   I847    2.131   .     S
C812   C823    1.410   .     A
C813   C824    1.404   .     A
C813   I849    2.134   .     S
C814   C827    1.410   .     A
C814   I850    2.130   .     S
C815   O879    1.308   .     A
C815   O876    1.316   .     A
C815   C820    1.473   .     S
C816   C825    1.404   .     A
C816   I851    2.133   .     S
C817   I852    2.130   .     S
C817   C825    1.410   .     A
C818   I853    2.133   .     S
C818   C827    1.404   .     A
C819   C826    1.473   .     S
C823   C831    1.473   .     S
C824   C830    1.473   .     S
C825   C829    1.473   .     S
C826   O878    1.316   .     A
C826   O877    1.308   .     A
C827   C828    1.473   .     S
C828   O880    1.308   .     A
C828   O868    1.316   .     A
C829   O866    1.316   .     A
C829   O867    1.308   .     A
C830   O869    1.308   .     A
C830   O872    1.316   .     A
C831   O870    1.316   .     A
C831   O871    1.308   .     A
C832   N774    1.382   1_655 A
C832   I837    2.155   .     S
C832   C356    1.433   1_655 S
Cu833  Cu834   2.725   .     S
Cu833  N861    2.048   .     S
Cu833  O877    1.969   .     S
Cu833  O865    1.969   .     S
Cu834  O878    1.969   .     S
Cu834  O875    1.969   .     S
Cu834  N862    2.048   .     S
Cu835  O870    1.969   .     S
Cu835  N863    2.048   .     S
Cu835  O867    1.969   .     S
Cu835  Cu836   2.725   .     S
Cu835  O1048   1.969   1_545 S
Cu835  O1056   1.969   1_545 S
Cu836  O866    1.969   .     S
Cu836  O871    1.969   .     S
Cu836  N864    2.048   .     S
Cu836  O1044   1.969   1_545 S
Cu836  O1045   1.969   1_545 S
N863   C976    1.382   1_545 S
N864   C973    1.382   1_545 S
O868   Cu1012  1.969   .     S
O869   Cu1012  1.969   .     S
O872   Cu1011  1.969   .     S
O873   Cu746   1.969   1_655 S
O874   Cu745   1.969   1_655 S
O876   Cu746   1.969   1_655 S
O879   Cu745   1.969   1_655 S
O880   Cu1011  1.969   .     S
C881   O963    1.308   .     A
C881   O953    1.316   .     A
C881   C910    1.473   .     S
C882   I936    2.155   .     S
C882   C267    1.433   1_556 S
C882   N1037   1.382   .     S
C883   I942    2.155   .     S
C883   C618    1.433   1_455 S
C883   N950    1.382   .     S
C884   I943    2.155   .     S
C884   N949    1.382   .     A
C884   C304    1.433   1_456 S
C885   I944    2.155   .     S
C885   N776    1.382   1_565 S
C886   I945    2.155   .     S
C886   N951    1.382   .     A
C886   C183    1.433   1_556 S
C887   N952    1.382   .     A
C887   I946    2.155   .     S
C888   I947    2.155   .     S
C888   C181    1.433   1_556 S
C888   N775    1.382   1_565 S
C889   C900    1.391   .     A
C889   I948    2.134   .     S
C889   C908    1.404   .     A
C890   C907    1.410   .     A
C890   I926    2.130   .     S
C890   C901    1.391   .     A
C891   C898    1.391   .     A
C891   I927    2.134   .     S
C891   C907    1.404   .     A
C892   C909    1.473   .     S
C892   O962    1.316   .     A
C892   O961    1.308   .     A
C893   C908    1.410   .     A
C893   C899    1.391   .     A
C893   I928    2.131   .     S
C894   I929    2.133   .     S
C894   C910    1.404   .     A
C894   C905    1.391   .     A
C895   I930    2.130   .     S
C895   C909    1.410   .     A
C895   C906    1.391   .     A
C896   I931    2.133   .     S
C896   C902    1.391   .     A
C896   C909    1.404   .     A
C897   C910    1.410   .     A
C897   I932    2.130   .     S
C897   C904    1.391   .     A
C898   I933    2.130   .     S
C898   C912    1.410   .     A
C899   C911    1.404   .     A
C899   I934    2.134   .     S
C900   I935    2.131   .     S
C900   C911    1.410   .     A
C901   C912    1.404   .     A
C901   I937    2.134   .     S
C902   C915    1.410   .     A
C902   I938    2.130   .     S
C903   O967    1.308   .     A
C903   O964    1.316   .     A
C903   C908    1.473   .     S
C904   C913    1.404   .     A
C904   I939    2.133   .     S
C905   I940    2.130   .     S
C905   C913    1.410   .     A
C906   I941    2.133   .     S
C906   C915    1.404   .     A
C907   C914    1.473   .     S
C911   C919    1.473   .     S
C912   C918    1.473   .     S
C913   C917    1.473   .     S
C914   O966    1.316   .     A
C914   O965    1.308   .     A
C915   C916    1.473   .     S
C916   O968    1.308   .     A
C916   O956    1.316   .     A
C917   O954    1.316   .     A
C917   O955    1.308   .     A
C918   O957    1.308   .     A
C918   O960    1.316   .     A
C919   O958    1.316   .     A
C919   O959    1.308   .     A
C920   N1038   1.382   .     A
C920   I925    2.155   .     S
Cu921  Cu922   2.725   .     S
Cu921  N949    2.048   .     S
Cu921  O965    1.969   .     S
Cu921  O953    1.969   .     S
Cu921  O1050   1.969   1_455 S
Cu921  O1055   1.969   1_455 S
Cu922  O966    1.969   .     S
Cu922  O963    1.969   .     S
Cu922  N950    2.048   .     S
Cu922  O1049   1.969   1_455 S
Cu922  O1052   1.969   1_455 S
Cu923  O958    1.969   .     S
Cu923  N951    2.048   .     S
Cu923  O955    1.969   .     S
Cu923  Cu924   2.725   .     S
Cu924  O954    1.969   .     S
Cu924  O959    1.969   .     S
Cu924  N952    2.048   .     S
N949   C970    1.382   1_455 S
N950   C1008   1.382   1_455 A
O956   Cu748   1.969   1_565 S
O957   Cu748   1.969   1_565 S
O960   Cu747   1.969   1_565 S
O961   Cu1010  1.969   .     S
O962   Cu1009  1.969   .     S
O964   Cu1010  1.969   .     S
O967   Cu1009  1.969   .     S
O968   Cu747   1.969   1_565 S
C969   O1051   1.308   .     A
C969   O1041   1.316   .     A
C969   C998    1.473   .     S
C970   I1024   2.155   .     S
C970   C179    1.433   1_656 S
C970   N949    1.382   1_655 S
C971   I1030   2.155   .     S
C971   N1038   1.382   .     S
C972   I1031   2.155   .     S
C972   N1037   1.382   .     A
C972   C216    1.433   1_556 S
C973   I1032   2.155   .     S
C973   N864    1.382   1_565 S
C974   I1033   2.155   .     S
C974   N1039   1.382   .     A
C974   C271    1.433   1_556 S
C975   N1040   1.382   .     A
C975   I1034   2.155   .     S
C976   I1035   2.155   .     S
C976   C269    1.433   1_556 S
C976   N863    1.382   1_565 S
C977   C988    1.391   .     A
C977   I1036   2.134   .     S
C977   C996    1.404   .     A
C978   C995    1.410   .     A
C978   I1014   2.130   .     S
C978   C989    1.391   .     A
C979   C986    1.391   .     A
C979   I1015   2.134   .     S
C979   C995    1.404   .     A
C980   C997    1.473   .     S
C980   O1050   1.316   .     A
C980   O1049   1.308   .     A
C981   C996    1.410   .     A
C981   C987    1.391   .     A
C981   I1016   2.131   .     S
C982   I1017   2.133   .     S
C982   C998    1.404   .     A
C982   C993    1.391   .     A
C983   I1018   2.130   .     S
C983   C997    1.410   .     A
C983   C994    1.391   .     A
C984   I1019   2.133   .     S
C984   C990    1.391   .     A
C984   C997    1.404   .     A
C985   C998    1.410   .     A
C985   I1020   2.130   .     S
C985   C992    1.391   .     A
C986   I1021   2.130   .     S
C986   C1000   1.410   .     A
C987   C999    1.404   .     A
C987   I1022   2.134   .     S
C988   I1023   2.131   .     S
C988   C999    1.410   .     A
C989   C1000   1.404   .     A
C989   I1025   2.134   .     S
C990   C1003   1.410   .     A
C990   I1026   2.130   .     S
C991   O1055   1.308   .     A
C991   O1052   1.316   .     A
C991   C996    1.473   .     S
C992   C1001   1.404   .     A
C992   I1027   2.133   .     S
C993   I1028   2.130   .     S
C993   C1001   1.410   .     A
C994   I1029   2.133   .     S
C994   C1003   1.404   .     A
C995   C1002   1.473   .     S
C999   C1007   1.473   .     S
C1000  C1006   1.473   .     S
C1001  C1005   1.473   .     S
C1002  O1054   1.316   .     A
C1002  O1053   1.308   .     A
C1003  C1004   1.473   .     S
C1004  O1056   1.308   .     A
C1004  O1044   1.316   .     A
C1005  O1042   1.316   .     A
C1005  O1043   1.308   .     A
C1006  O1045   1.308   .     A
C1006  O1048   1.316   .     A
C1007  O1046   1.316   .     A
C1007  O1047   1.308   .     A
C1008  N950    1.382   1_655 A
C1008  I1013   2.155   .     S
C1008  C532    1.433   1_655 S
Cu1009 Cu1010  2.725   .     S
Cu1009 N1037   2.048   .     S
Cu1009 O1053   1.969   .     S
Cu1009 O1041   1.969   .     S
Cu1010 O1054   1.969   .     S
Cu1010 O1051   1.969   .     S
Cu1010 N1038   2.048   .     S
Cu1011 O1046   1.969   .     S
Cu1011 N1039   2.048   .     S
Cu1011 O1043   1.969   .     S
Cu1011 Cu1012  2.725   .     S
Cu1012 O1042   1.969   .     S
Cu1012 O1047   1.969   .     S
Cu1012 N1040   2.048   .     S
O1044  Cu836   1.969   1_565 S
O1045  Cu836   1.969   1_565 S
O1048  Cu835   1.969   1_565 S
O1049  Cu922   1.969   1_655 S
O1050  Cu921   1.969   1_655 S
O1052  Cu922   1.969   1_655 S
O1055  Cu921   1.969   1_655 S
O1056  Cu835   1.969   1_565 S
