data_str_m3_o2_o10_pcu_sym.133
_audit_creation_date              2020-01-03
_audit_creation_method            'Materials Studio'
_symmetry_space_group_name_H-M    'P1'
_symmetry_Int_Tables_number       1
_symmetry_cell_setting            triclinic
loop_
_symmetry_equiv_pos_as_xyz
  x,y,z
_cell_length_a                    25.7227
_cell_length_b                    29.8720
_cell_length_c                    28.4742
_cell_angle_alpha                 89.8205
_cell_angle_beta                  98.0792
_cell_angle_gamma                 90.9922
loop_
_atom_site_label
_atom_site_type_symbol
_atom_site_fract_x
_atom_site_fract_y
_atom_site_fract_z
_atom_site_U_iso_or_equiv
_atom_site_adp_type
_atom_site_occupancy
O1     O     0.16667   0.18454   0.28974   0.00000  Uiso   1.00
O2     O     0.16666   0.31547   0.21026   0.00000  Uiso   1.00
O3     O     0.16667   0.18453   0.21026   0.00000  Uiso   1.00
O4     O     0.16666   0.31547   0.28974   0.00000  Uiso   1.00
C5     C     0.16808   0.16384   0.25013   0.00000  Uiso   1.00
C6     C     0.16630   0.33584   0.24991   0.00000  Uiso   1.00
O7     O     0.09058   0.25000   0.28044   0.00000  Uiso   1.00
O8     O     0.24275   0.25000   0.21956   0.00000  Uiso   1.00
O9     O     0.09058   0.24999   0.20097   0.00000  Uiso   1.00
O10    O     0.24275   0.25001   0.29904   0.00000  Uiso   1.00
C11    C     0.06713   0.24894   0.23774   0.00000  Uiso   1.00
C12    C     0.26622   0.24997   0.26233   0.00000  Uiso   1.00
Zn13   Zn    0.16667   0.25001   0.30307   0.00000  Uiso   1.00
Zn14   Zn    0.16667   0.25000   0.19693   0.00000  Uiso   1.00
C15    C     0.01222   0.24624   0.23138   0.00000  Uiso   1.00
C16    C     0.32119   0.25073   0.26908   0.00000  Uiso   1.00
H17    H     0.32527   0.24014   0.19588   0.00000  Uiso   1.00
H18    H     0.00812   0.25594   0.30488   0.00000  Uiso   1.00
C19    C     0.20123   0.04536   0.28374   0.00000  Uiso   1.00
C20    C     0.12702   0.45447   0.23773   0.00000  Uiso   1.00
H21    H     0.22082   0.02608   0.31316   0.00000  Uiso   1.00
H22    H     0.09191   0.47449   0.23225   0.00000  Uiso   1.00
C23    C     0.20003   0.09168   0.28714   0.00000  Uiso   1.00
C24    C     0.12223   0.40833   0.24101   0.00000  Uiso   1.00
C25    C     0.17204   0.11569   0.24931   0.00000  Uiso   1.00
C26    C     0.16840   0.38348   0.24994   0.00000  Uiso   1.00
C27    C     0.14906   0.09365   0.20796   0.00000  Uiso   1.00
C28    C     0.21805   0.40394   0.25512   0.00000  Uiso   1.00
H29    H     0.12858   0.11246   0.17861   0.00000  Uiso   1.00
H30    H     0.25297   0.38367   0.26087   0.00000  Uiso   1.00
C31    C     0.15326   0.04775   0.20335   0.00000  Uiso   1.00
C32    C     0.22293   0.45008   0.25093   0.00000  Uiso   1.00
C33    C     0.17849   0.02360   0.24227   0.00000  Uiso   1.00
C34    C     0.17670   0.47523   0.24249   0.00000  Uiso   1.00
C35    C     0.12413   0.22988   0.04769   0.00000  Uiso   1.00
C36    C     0.18772   0.28645   0.44984   0.00000  Uiso   1.00
H37    H     0.09067   0.21433   0.02621   0.00000  Uiso   1.00
H38    H     0.20448   0.31544   0.46946   0.00000  Uiso   1.00
C39    C     0.12599   0.22988   0.09752   0.00000  Uiso   1.00
C40    C     0.18844   0.28522   0.40041   0.00000  Uiso   1.00
H41    H     0.09447   0.21393   0.11316   0.00000  Uiso   1.00
H42    H     0.20616   0.31280   0.38334   0.00000  Uiso   1.00
N43    N     0.16667   0.24999   0.12624   0.00000  Uiso   1.00
N44    N     0.16667   0.25001   0.37377   0.00000  Uiso   1.00
C45    C     0.20669   0.27038   0.10607   0.00000  Uiso   1.00
C46    C     0.14378   0.21511   0.39555   0.00000  Uiso   1.00
C47    C     0.20623   0.27022   0.05656   0.00000  Uiso   1.00
C48    C     0.14330   0.21500   0.44495   0.00000  Uiso   1.00
H49    H     0.23875   0.28578   0.04197   0.00000  Uiso   1.00
H50    H     0.12590   0.18660   0.46105   0.00000  Uiso   1.00
C51    C     0.16471   0.25046   0.02627   0.00000  Uiso   1.00
C52    C     0.16490   0.25089   0.47312   0.00000  Uiso   1.00
N53    N     0.22956   0.11350   0.32757   0.00000  Uiso   1.00
O54    O     0.26044   0.14736   0.32150   0.00000  Uiso   1.00
O55    O     0.23384   0.09439   0.36904   0.00000  Uiso   1.00
N56    N     0.07084   0.38749   0.23494   0.00000  Uiso   1.00
O57    O     0.06075   0.35326   0.26073   0.00000  Uiso   1.00
O58    O     0.03251   0.40534   0.20676   0.00000  Uiso   1.00
N59    N     0.13221   0.02633   0.15931   0.00000  Uiso   1.00
O60    O     0.15552   0.49213   0.14389   0.00000  Uiso   1.00
O61    O     0.09303   0.04388   0.13190   0.00000  Uiso   1.00
N62    N     0.27440   0.47058   0.25444   0.00000  Uiso   1.00
O63    O     0.28311   0.00465   0.22786   0.00000  Uiso   1.00
O64    O     0.31391   0.45267   0.28107   0.00000  Uiso   1.00
N65    N     0.24979   0.29270   0.13438   0.00000  Uiso   1.00
O66    O     0.24098   0.32737   0.15931   0.00000  Uiso   1.00
O67    O     0.29703   0.28754   0.12406   0.00000  Uiso   1.00
N68    N     0.11932   0.17821   0.36870   0.00000  Uiso   1.00
O69    O     0.07596   0.18435   0.34020   0.00000  Uiso   1.00
O70    O     0.13169   0.13760   0.38199   0.00000  Uiso   1.00
O71    O     0.50000   0.18454   0.28974   0.00000  Uiso   1.00
O72    O     0.50000   0.31547   0.21026   0.00000  Uiso   1.00
O73    O     0.50000   0.18453   0.21026   0.00000  Uiso   1.00
O74    O     0.50000   0.31547   0.28974   0.00000  Uiso   1.00
C75    C     0.50142   0.16384   0.25013   0.00000  Uiso   1.00
C76    C     0.49964   0.33584   0.24991   0.00000  Uiso   1.00
O77    O     0.42392   0.25000   0.28044   0.00000  Uiso   1.00
O78    O     0.57608   0.25000   0.21956   0.00000  Uiso   1.00
O79    O     0.42392   0.24999   0.20097   0.00000  Uiso   1.00
O80    O     0.57608   0.25001   0.29904   0.00000  Uiso   1.00
C81    C     0.40046   0.24894   0.23774   0.00000  Uiso   1.00
C82    C     0.59955   0.24997   0.26233   0.00000  Uiso   1.00
Zn83   Zn    0.50000   0.25001   0.30307   0.00000  Uiso   1.00
Zn84   Zn    0.50000   0.25000   0.19693   0.00000  Uiso   1.00
C85    C     0.34555   0.24624   0.23138   0.00000  Uiso   1.00
C86    C     0.65452   0.25073   0.26908   0.00000  Uiso   1.00
H87    H     0.65861   0.24014   0.19588   0.00000  Uiso   1.00
H88    H     0.34146   0.25594   0.30488   0.00000  Uiso   1.00
C89    C     0.53456   0.04536   0.28374   0.00000  Uiso   1.00
C90    C     0.46035   0.45447   0.23773   0.00000  Uiso   1.00
H91    H     0.55415   0.02608   0.31316   0.00000  Uiso   1.00
H92    H     0.42525   0.47449   0.23225   0.00000  Uiso   1.00
C93    C     0.53337   0.09168   0.28714   0.00000  Uiso   1.00
C94    C     0.45556   0.40833   0.24101   0.00000  Uiso   1.00
C95    C     0.50537   0.11569   0.24931   0.00000  Uiso   1.00
C96    C     0.50173   0.38348   0.24994   0.00000  Uiso   1.00
C97    C     0.48240   0.09365   0.20796   0.00000  Uiso   1.00
C98    C     0.55138   0.40394   0.25512   0.00000  Uiso   1.00
H99    H     0.46191   0.11246   0.17861   0.00000  Uiso   1.00
H100   H     0.58630   0.38367   0.26087   0.00000  Uiso   1.00
C101   C     0.48659   0.04775   0.20335   0.00000  Uiso   1.00
C102   C     0.55627   0.45008   0.25093   0.00000  Uiso   1.00
C103   C     0.51183   0.02360   0.24227   0.00000  Uiso   1.00
C104   C     0.51003   0.47523   0.24249   0.00000  Uiso   1.00
C105   C     0.45746   0.22988   0.04769   0.00000  Uiso   1.00
C106   C     0.52105   0.28645   0.44984   0.00000  Uiso   1.00
H107   H     0.42401   0.21433   0.02621   0.00000  Uiso   1.00
H108   H     0.53781   0.31544   0.46946   0.00000  Uiso   1.00
C109   C     0.45932   0.22988   0.09752   0.00000  Uiso   1.00
C110   C     0.52177   0.28522   0.40041   0.00000  Uiso   1.00
H111   H     0.42780   0.21393   0.11316   0.00000  Uiso   1.00
H112   H     0.53949   0.31280   0.38334   0.00000  Uiso   1.00
N113   N     0.50000   0.24999   0.12624   0.00000  Uiso   1.00
N114   N     0.50000   0.25001   0.37377   0.00000  Uiso   1.00
C115   C     0.54003   0.27038   0.10607   0.00000  Uiso   1.00
C116   C     0.47712   0.21511   0.39555   0.00000  Uiso   1.00
C117   C     0.53956   0.27022   0.05656   0.00000  Uiso   1.00
C118   C     0.47663   0.21500   0.44495   0.00000  Uiso   1.00
H119   H     0.57208   0.28578   0.04197   0.00000  Uiso   1.00
H120   H     0.45924   0.18660   0.46105   0.00000  Uiso   1.00
C121   C     0.49804   0.25046   0.02627   0.00000  Uiso   1.00
C122   C     0.49823   0.25089   0.47312   0.00000  Uiso   1.00
N123   N     0.56289   0.11350   0.32757   0.00000  Uiso   1.00
O124   O     0.59377   0.14736   0.32150   0.00000  Uiso   1.00
O125   O     0.56717   0.09439   0.36904   0.00000  Uiso   1.00
N126   N     0.40418   0.38749   0.23494   0.00000  Uiso   1.00
O127   O     0.39409   0.35326   0.26073   0.00000  Uiso   1.00
O128   O     0.36584   0.40534   0.20676   0.00000  Uiso   1.00
N129   N     0.46554   0.02633   0.15931   0.00000  Uiso   1.00
O130   O     0.48885   0.49213   0.14389   0.00000  Uiso   1.00
O131   O     0.42637   0.04388   0.13190   0.00000  Uiso   1.00
N132   N     0.60773   0.47058   0.25444   0.00000  Uiso   1.00
O133   O     0.61644   0.00465   0.22786   0.00000  Uiso   1.00
O134   O     0.64725   0.45267   0.28107   0.00000  Uiso   1.00
N135   N     0.58313   0.29270   0.13438   0.00000  Uiso   1.00
O136   O     0.57431   0.32737   0.15931   0.00000  Uiso   1.00
O137   O     0.63037   0.28754   0.12406   0.00000  Uiso   1.00
N138   N     0.45265   0.17821   0.36870   0.00000  Uiso   1.00
O139   O     0.40929   0.18435   0.34020   0.00000  Uiso   1.00
O140   O     0.46502   0.13760   0.38199   0.00000  Uiso   1.00
O141   O     0.83334   0.18454   0.28974   0.00000  Uiso   1.00
O142   O     0.83333   0.31547   0.21026   0.00000  Uiso   1.00
O143   O     0.83334   0.18453   0.21026   0.00000  Uiso   1.00
O144   O     0.83333   0.31547   0.28974   0.00000  Uiso   1.00
C145   C     0.83475   0.16384   0.25013   0.00000  Uiso   1.00
C146   C     0.83297   0.33584   0.24991   0.00000  Uiso   1.00
O147   O     0.75725   0.25000   0.28044   0.00000  Uiso   1.00
O148   O     0.90942   0.25000   0.21956   0.00000  Uiso   1.00
O149   O     0.75725   0.24999   0.20097   0.00000  Uiso   1.00
O150   O     0.90942   0.25001   0.29904   0.00000  Uiso   1.00
C151   C     0.73380   0.24894   0.23774   0.00000  Uiso   1.00
C152   C     0.93289   0.24997   0.26233   0.00000  Uiso   1.00
Zn153  Zn    0.83333   0.25001   0.30307   0.00000  Uiso   1.00
Zn154  Zn    0.83333   0.25000   0.19693   0.00000  Uiso   1.00
C155   C     0.67888   0.24624   0.23138   0.00000  Uiso   1.00
C156   C     0.98785   0.25073   0.26908   0.00000  Uiso   1.00
H157   H     0.99194   0.24014   0.19588   0.00000  Uiso   1.00
H158   H     0.67479   0.25594   0.30488   0.00000  Uiso   1.00
C159   C     0.86789   0.04536   0.28374   0.00000  Uiso   1.00
C160   C     0.79368   0.45447   0.23773   0.00000  Uiso   1.00
H161   H     0.88748   0.02608   0.31316   0.00000  Uiso   1.00
H162   H     0.75858   0.47449   0.23225   0.00000  Uiso   1.00
C163   C     0.86670   0.09168   0.28714   0.00000  Uiso   1.00
C164   C     0.78890   0.40833   0.24101   0.00000  Uiso   1.00
C165   C     0.83870   0.11569   0.24931   0.00000  Uiso   1.00
C166   C     0.83506   0.38348   0.24994   0.00000  Uiso   1.00
C167   C     0.81573   0.09365   0.20796   0.00000  Uiso   1.00
C168   C     0.88472   0.40394   0.25512   0.00000  Uiso   1.00
H169   H     0.79524   0.11246   0.17861   0.00000  Uiso   1.00
H170   H     0.91963   0.38367   0.26087   0.00000  Uiso   1.00
C171   C     0.81993   0.04775   0.20335   0.00000  Uiso   1.00
C172   C     0.88960   0.45008   0.25093   0.00000  Uiso   1.00
C173   C     0.84516   0.02360   0.24227   0.00000  Uiso   1.00
C174   C     0.84337   0.47523   0.24249   0.00000  Uiso   1.00
C175   C     0.79079   0.22988   0.04769   0.00000  Uiso   1.00
C176   C     0.85439   0.28645   0.44984   0.00000  Uiso   1.00
H177   H     0.75734   0.21433   0.02621   0.00000  Uiso   1.00
H178   H     0.87114   0.31544   0.46946   0.00000  Uiso   1.00
C179   C     0.79266   0.22988   0.09752   0.00000  Uiso   1.00
C180   C     0.85510   0.28522   0.40041   0.00000  Uiso   1.00
H181   H     0.76113   0.21393   0.11316   0.00000  Uiso   1.00
H182   H     0.87283   0.31280   0.38334   0.00000  Uiso   1.00
N183   N     0.83333   0.24999   0.12624   0.00000  Uiso   1.00
N184   N     0.83333   0.25001   0.37377   0.00000  Uiso   1.00
C185   C     0.87336   0.27038   0.10607   0.00000  Uiso   1.00
C186   C     0.81045   0.21511   0.39555   0.00000  Uiso   1.00
C187   C     0.87289   0.27022   0.05656   0.00000  Uiso   1.00
C188   C     0.80996   0.21500   0.44495   0.00000  Uiso   1.00
H189   H     0.90541   0.28578   0.04197   0.00000  Uiso   1.00
H190   H     0.79257   0.18660   0.46105   0.00000  Uiso   1.00
C191   C     0.83137   0.25046   0.02627   0.00000  Uiso   1.00
C192   C     0.83156   0.25089   0.47312   0.00000  Uiso   1.00
N193   N     0.89623   0.11350   0.32757   0.00000  Uiso   1.00
O194   O     0.92711   0.14736   0.32150   0.00000  Uiso   1.00
O195   O     0.90051   0.09439   0.36904   0.00000  Uiso   1.00
N196   N     0.73751   0.38749   0.23494   0.00000  Uiso   1.00
O197   O     0.72742   0.35326   0.26073   0.00000  Uiso   1.00
O198   O     0.69917   0.40534   0.20676   0.00000  Uiso   1.00
N199   N     0.79888   0.02633   0.15931   0.00000  Uiso   1.00
O200   O     0.82219   0.49213   0.14389   0.00000  Uiso   1.00
O201   O     0.75970   0.04388   0.13190   0.00000  Uiso   1.00
N202   N     0.94107   0.47058   0.25444   0.00000  Uiso   1.00
O203   O     0.94978   0.00465   0.22786   0.00000  Uiso   1.00
O204   O     0.98058   0.45267   0.28107   0.00000  Uiso   1.00
N205   N     0.91646   0.29270   0.13438   0.00000  Uiso   1.00
O206   O     0.90764   0.32737   0.15931   0.00000  Uiso   1.00
O207   O     0.96370   0.28754   0.12406   0.00000  Uiso   1.00
N208   N     0.78598   0.17821   0.36870   0.00000  Uiso   1.00
O209   O     0.74263   0.18435   0.34020   0.00000  Uiso   1.00
O210   O     0.79835   0.13760   0.38199   0.00000  Uiso   1.00
O211   O     0.16667   0.68454   0.28974   0.00000  Uiso   1.00
O212   O     0.16666   0.81547   0.21026   0.00000  Uiso   1.00
O213   O     0.16667   0.68453   0.21026   0.00000  Uiso   1.00
O214   O     0.16666   0.81547   0.28974   0.00000  Uiso   1.00
C215   C     0.16808   0.66384   0.25013   0.00000  Uiso   1.00
C216   C     0.16630   0.83584   0.24991   0.00000  Uiso   1.00
O217   O     0.09058   0.75000   0.28044   0.00000  Uiso   1.00
O218   O     0.24275   0.75000   0.21956   0.00000  Uiso   1.00
O219   O     0.09058   0.74999   0.20097   0.00000  Uiso   1.00
O220   O     0.24275   0.75001   0.29904   0.00000  Uiso   1.00
C221   C     0.06713   0.74894   0.23774   0.00000  Uiso   1.00
C222   C     0.26622   0.74997   0.26233   0.00000  Uiso   1.00
Zn223  Zn    0.16667   0.75001   0.30307   0.00000  Uiso   1.00
Zn224  Zn    0.16667   0.75000   0.19693   0.00000  Uiso   1.00
C225   C     0.01222   0.74624   0.23138   0.00000  Uiso   1.00
C226   C     0.32119   0.75073   0.26908   0.00000  Uiso   1.00
H227   H     0.32527   0.74014   0.19588   0.00000  Uiso   1.00
H228   H     0.00812   0.75594   0.30488   0.00000  Uiso   1.00
C229   C     0.20123   0.54536   0.28374   0.00000  Uiso   1.00
C230   C     0.12702   0.95447   0.23773   0.00000  Uiso   1.00
H231   H     0.22082   0.52608   0.31316   0.00000  Uiso   1.00
H232   H     0.09191   0.97449   0.23225   0.00000  Uiso   1.00
C233   C     0.20003   0.59168   0.28714   0.00000  Uiso   1.00
C234   C     0.12223   0.90833   0.24101   0.00000  Uiso   1.00
C235   C     0.17204   0.61569   0.24931   0.00000  Uiso   1.00
C236   C     0.16840   0.88348   0.24994   0.00000  Uiso   1.00
C237   C     0.14906   0.59365   0.20796   0.00000  Uiso   1.00
C238   C     0.21805   0.90394   0.25512   0.00000  Uiso   1.00
H239   H     0.12858   0.61246   0.17861   0.00000  Uiso   1.00
H240   H     0.25297   0.88367   0.26087   0.00000  Uiso   1.00
C241   C     0.15326   0.54775   0.20335   0.00000  Uiso   1.00
C242   C     0.22293   0.95008   0.25093   0.00000  Uiso   1.00
C243   C     0.17849   0.52360   0.24227   0.00000  Uiso   1.00
C244   C     0.17670   0.97523   0.24249   0.00000  Uiso   1.00
C245   C     0.12413   0.72988   0.04769   0.00000  Uiso   1.00
C246   C     0.18772   0.78645   0.44984   0.00000  Uiso   1.00
H247   H     0.09067   0.71433   0.02621   0.00000  Uiso   1.00
H248   H     0.20448   0.81544   0.46946   0.00000  Uiso   1.00
C249   C     0.12599   0.72988   0.09752   0.00000  Uiso   1.00
C250   C     0.18844   0.78522   0.40041   0.00000  Uiso   1.00
H251   H     0.09447   0.71393   0.11316   0.00000  Uiso   1.00
H252   H     0.20616   0.81280   0.38334   0.00000  Uiso   1.00
N253   N     0.16667   0.74999   0.12624   0.00000  Uiso   1.00
N254   N     0.16667   0.75001   0.37377   0.00000  Uiso   1.00
C255   C     0.20669   0.77038   0.10607   0.00000  Uiso   1.00
C256   C     0.14378   0.71511   0.39555   0.00000  Uiso   1.00
C257   C     0.20623   0.77022   0.05656   0.00000  Uiso   1.00
C258   C     0.14330   0.71500   0.44495   0.00000  Uiso   1.00
H259   H     0.23875   0.78578   0.04197   0.00000  Uiso   1.00
H260   H     0.12590   0.68660   0.46105   0.00000  Uiso   1.00
C261   C     0.16471   0.75046   0.02627   0.00000  Uiso   1.00
C262   C     0.16490   0.75089   0.47312   0.00000  Uiso   1.00
N263   N     0.22956   0.61350   0.32757   0.00000  Uiso   1.00
O264   O     0.26044   0.64736   0.32150   0.00000  Uiso   1.00
O265   O     0.23384   0.59439   0.36904   0.00000  Uiso   1.00
N266   N     0.07084   0.88749   0.23494   0.00000  Uiso   1.00
O267   O     0.06075   0.85326   0.26073   0.00000  Uiso   1.00
O268   O     0.03251   0.90534   0.20676   0.00000  Uiso   1.00
N269   N     0.13221   0.52633   0.15931   0.00000  Uiso   1.00
O270   O     0.15552   0.99213   0.14389   0.00000  Uiso   1.00
O271   O     0.09303   0.54388   0.13190   0.00000  Uiso   1.00
N272   N     0.27440   0.97058   0.25444   0.00000  Uiso   1.00
O273   O     0.28311   0.50465   0.22786   0.00000  Uiso   1.00
O274   O     0.31391   0.95267   0.28107   0.00000  Uiso   1.00
N275   N     0.24979   0.79270   0.13438   0.00000  Uiso   1.00
O276   O     0.24098   0.82737   0.15931   0.00000  Uiso   1.00
O277   O     0.29703   0.78754   0.12406   0.00000  Uiso   1.00
N278   N     0.11932   0.67821   0.36870   0.00000  Uiso   1.00
O279   O     0.07596   0.68435   0.34020   0.00000  Uiso   1.00
O280   O     0.13169   0.63760   0.38199   0.00000  Uiso   1.00
O281   O     0.50000   0.68454   0.28974   0.00000  Uiso   1.00
O282   O     0.50000   0.81547   0.21026   0.00000  Uiso   1.00
O283   O     0.50000   0.68453   0.21026   0.00000  Uiso   1.00
O284   O     0.50000   0.81547   0.28974   0.00000  Uiso   1.00
C285   C     0.50142   0.66384   0.25013   0.00000  Uiso   1.00
C286   C     0.49964   0.83584   0.24991   0.00000  Uiso   1.00
O287   O     0.42392   0.75000   0.28044   0.00000  Uiso   1.00
O288   O     0.57608   0.75000   0.21956   0.00000  Uiso   1.00
O289   O     0.42392   0.74999   0.20097   0.00000  Uiso   1.00
O290   O     0.57608   0.75001   0.29904   0.00000  Uiso   1.00
C291   C     0.40046   0.74894   0.23774   0.00000  Uiso   1.00
C292   C     0.59955   0.74997   0.26233   0.00000  Uiso   1.00
Zn293  Zn    0.50000   0.75001   0.30307   0.00000  Uiso   1.00
Zn294  Zn    0.50000   0.75000   0.19693   0.00000  Uiso   1.00
C295   C     0.34555   0.74624   0.23138   0.00000  Uiso   1.00
C296   C     0.65452   0.75073   0.26908   0.00000  Uiso   1.00
H297   H     0.65861   0.74014   0.19588   0.00000  Uiso   1.00
H298   H     0.34146   0.75594   0.30488   0.00000  Uiso   1.00
C299   C     0.53456   0.54536   0.28374   0.00000  Uiso   1.00
C300   C     0.46035   0.95447   0.23773   0.00000  Uiso   1.00
H301   H     0.55415   0.52608   0.31316   0.00000  Uiso   1.00
H302   H     0.42525   0.97449   0.23225   0.00000  Uiso   1.00
C303   C     0.53337   0.59168   0.28714   0.00000  Uiso   1.00
C304   C     0.45556   0.90833   0.24101   0.00000  Uiso   1.00
C305   C     0.50537   0.61569   0.24931   0.00000  Uiso   1.00
C306   C     0.50173   0.88348   0.24994   0.00000  Uiso   1.00
C307   C     0.48240   0.59365   0.20796   0.00000  Uiso   1.00
C308   C     0.55138   0.90394   0.25512   0.00000  Uiso   1.00
H309   H     0.46191   0.61246   0.17861   0.00000  Uiso   1.00
H310   H     0.58630   0.88367   0.26087   0.00000  Uiso   1.00
C311   C     0.48659   0.54775   0.20335   0.00000  Uiso   1.00
C312   C     0.55627   0.95008   0.25093   0.00000  Uiso   1.00
C313   C     0.51183   0.52360   0.24227   0.00000  Uiso   1.00
C314   C     0.51003   0.97523   0.24249   0.00000  Uiso   1.00
C315   C     0.45746   0.72988   0.04769   0.00000  Uiso   1.00
C316   C     0.52105   0.78645   0.44984   0.00000  Uiso   1.00
H317   H     0.42401   0.71433   0.02621   0.00000  Uiso   1.00
H318   H     0.53781   0.81544   0.46946   0.00000  Uiso   1.00
C319   C     0.45932   0.72988   0.09752   0.00000  Uiso   1.00
C320   C     0.52177   0.78522   0.40041   0.00000  Uiso   1.00
H321   H     0.42780   0.71393   0.11316   0.00000  Uiso   1.00
H322   H     0.53949   0.81280   0.38334   0.00000  Uiso   1.00
N323   N     0.50000   0.74999   0.12624   0.00000  Uiso   1.00
N324   N     0.50000   0.75001   0.37377   0.00000  Uiso   1.00
C325   C     0.54003   0.77038   0.10607   0.00000  Uiso   1.00
C326   C     0.47712   0.71511   0.39555   0.00000  Uiso   1.00
C327   C     0.53956   0.77022   0.05656   0.00000  Uiso   1.00
C328   C     0.47663   0.71500   0.44495   0.00000  Uiso   1.00
H329   H     0.57208   0.78578   0.04197   0.00000  Uiso   1.00
H330   H     0.45924   0.68660   0.46105   0.00000  Uiso   1.00
C331   C     0.49804   0.75046   0.02627   0.00000  Uiso   1.00
C332   C     0.49823   0.75089   0.47312   0.00000  Uiso   1.00
N333   N     0.56289   0.61350   0.32757   0.00000  Uiso   1.00
O334   O     0.59377   0.64736   0.32150   0.00000  Uiso   1.00
O335   O     0.56717   0.59439   0.36904   0.00000  Uiso   1.00
N336   N     0.40418   0.88749   0.23494   0.00000  Uiso   1.00
O337   O     0.39409   0.85326   0.26073   0.00000  Uiso   1.00
O338   O     0.36584   0.90534   0.20676   0.00000  Uiso   1.00
N339   N     0.46554   0.52633   0.15931   0.00000  Uiso   1.00
O340   O     0.48885   0.99213   0.14389   0.00000  Uiso   1.00
O341   O     0.42637   0.54388   0.13190   0.00000  Uiso   1.00
N342   N     0.60773   0.97058   0.25444   0.00000  Uiso   1.00
O343   O     0.61644   0.50465   0.22786   0.00000  Uiso   1.00
O344   O     0.64725   0.95267   0.28107   0.00000  Uiso   1.00
N345   N     0.58313   0.79270   0.13438   0.00000  Uiso   1.00
O346   O     0.57431   0.82737   0.15931   0.00000  Uiso   1.00
O347   O     0.63037   0.78754   0.12406   0.00000  Uiso   1.00
N348   N     0.45265   0.67821   0.36870   0.00000  Uiso   1.00
O349   O     0.40929   0.68435   0.34020   0.00000  Uiso   1.00
O350   O     0.46502   0.63760   0.38199   0.00000  Uiso   1.00
O351   O     0.83334   0.68454   0.28974   0.00000  Uiso   1.00
O352   O     0.83333   0.81547   0.21026   0.00000  Uiso   1.00
O353   O     0.83334   0.68453   0.21026   0.00000  Uiso   1.00
O354   O     0.83333   0.81547   0.28974   0.00000  Uiso   1.00
C355   C     0.83475   0.66384   0.25013   0.00000  Uiso   1.00
C356   C     0.83297   0.83584   0.24991   0.00000  Uiso   1.00
O357   O     0.75725   0.75000   0.28044   0.00000  Uiso   1.00
O358   O     0.90942   0.75000   0.21956   0.00000  Uiso   1.00
O359   O     0.75725   0.74999   0.20097   0.00000  Uiso   1.00
O360   O     0.90942   0.75001   0.29904   0.00000  Uiso   1.00
C361   C     0.73380   0.74894   0.23774   0.00000  Uiso   1.00
C362   C     0.93289   0.74997   0.26233   0.00000  Uiso   1.00
Zn363  Zn    0.83333   0.75001   0.30307   0.00000  Uiso   1.00
Zn364  Zn    0.83333   0.75000   0.19693   0.00000  Uiso   1.00
C365   C     0.67888   0.74624   0.23138   0.00000  Uiso   1.00
C366   C     0.98785   0.75073   0.26908   0.00000  Uiso   1.00
H367   H     0.99194   0.74014   0.19588   0.00000  Uiso   1.00
H368   H     0.67479   0.75594   0.30488   0.00000  Uiso   1.00
C369   C     0.86789   0.54536   0.28374   0.00000  Uiso   1.00
C370   C     0.79368   0.95447   0.23773   0.00000  Uiso   1.00
H371   H     0.88748   0.52608   0.31316   0.00000  Uiso   1.00
H372   H     0.75858   0.97449   0.23225   0.00000  Uiso   1.00
C373   C     0.86670   0.59168   0.28714   0.00000  Uiso   1.00
C374   C     0.78890   0.90833   0.24101   0.00000  Uiso   1.00
C375   C     0.83870   0.61569   0.24931   0.00000  Uiso   1.00
C376   C     0.83506   0.88348   0.24994   0.00000  Uiso   1.00
C377   C     0.81573   0.59365   0.20796   0.00000  Uiso   1.00
C378   C     0.88472   0.90394   0.25512   0.00000  Uiso   1.00
H379   H     0.79524   0.61246   0.17861   0.00000  Uiso   1.00
H380   H     0.91963   0.88367   0.26087   0.00000  Uiso   1.00
C381   C     0.81993   0.54775   0.20335   0.00000  Uiso   1.00
C382   C     0.88960   0.95008   0.25093   0.00000  Uiso   1.00
C383   C     0.84516   0.52360   0.24227   0.00000  Uiso   1.00
C384   C     0.84337   0.97523   0.24249   0.00000  Uiso   1.00
C385   C     0.79079   0.72988   0.04769   0.00000  Uiso   1.00
C386   C     0.85439   0.78645   0.44984   0.00000  Uiso   1.00
H387   H     0.75734   0.71433   0.02621   0.00000  Uiso   1.00
H388   H     0.87114   0.81544   0.46946   0.00000  Uiso   1.00
C389   C     0.79266   0.72988   0.09752   0.00000  Uiso   1.00
C390   C     0.85510   0.78522   0.40041   0.00000  Uiso   1.00
H391   H     0.76113   0.71393   0.11316   0.00000  Uiso   1.00
H392   H     0.87283   0.81280   0.38334   0.00000  Uiso   1.00
N393   N     0.83333   0.74999   0.12624   0.00000  Uiso   1.00
N394   N     0.83333   0.75001   0.37377   0.00000  Uiso   1.00
C395   C     0.87336   0.77038   0.10607   0.00000  Uiso   1.00
C396   C     0.81045   0.71511   0.39555   0.00000  Uiso   1.00
C397   C     0.87289   0.77022   0.05656   0.00000  Uiso   1.00
C398   C     0.80996   0.71500   0.44495   0.00000  Uiso   1.00
H399   H     0.90541   0.78578   0.04197   0.00000  Uiso   1.00
H400   H     0.79257   0.68660   0.46105   0.00000  Uiso   1.00
C401   C     0.83137   0.75046   0.02627   0.00000  Uiso   1.00
C402   C     0.83156   0.75089   0.47312   0.00000  Uiso   1.00
N403   N     0.89623   0.61350   0.32757   0.00000  Uiso   1.00
O404   O     0.92711   0.64736   0.32150   0.00000  Uiso   1.00
O405   O     0.90051   0.59439   0.36904   0.00000  Uiso   1.00
N406   N     0.73751   0.88749   0.23494   0.00000  Uiso   1.00
O407   O     0.72742   0.85326   0.26073   0.00000  Uiso   1.00
O408   O     0.69917   0.90534   0.20676   0.00000  Uiso   1.00
N409   N     0.79888   0.52633   0.15931   0.00000  Uiso   1.00
O410   O     0.82219   0.99213   0.14389   0.00000  Uiso   1.00
O411   O     0.75970   0.54388   0.13190   0.00000  Uiso   1.00
N412   N     0.94107   0.97058   0.25444   0.00000  Uiso   1.00
O413   O     0.94978   0.50465   0.22786   0.00000  Uiso   1.00
O414   O     0.98058   0.95267   0.28107   0.00000  Uiso   1.00
N415   N     0.91646   0.79270   0.13438   0.00000  Uiso   1.00
O416   O     0.90764   0.82737   0.15931   0.00000  Uiso   1.00
O417   O     0.96370   0.78754   0.12406   0.00000  Uiso   1.00
N418   N     0.78598   0.67821   0.36870   0.00000  Uiso   1.00
O419   O     0.74263   0.68435   0.34020   0.00000  Uiso   1.00
O420   O     0.79835   0.63760   0.38199   0.00000  Uiso   1.00
O421   O     0.16667   0.18454   0.78974   0.00000  Uiso   1.00
O422   O     0.16666   0.31547   0.71026   0.00000  Uiso   1.00
O423   O     0.16667   0.18453   0.71026   0.00000  Uiso   1.00
O424   O     0.16666   0.31547   0.78974   0.00000  Uiso   1.00
C425   C     0.16808   0.16384   0.75013   0.00000  Uiso   1.00
C426   C     0.16630   0.33584   0.74991   0.00000  Uiso   1.00
O427   O     0.09058   0.25000   0.78044   0.00000  Uiso   1.00
O428   O     0.24275   0.25000   0.71956   0.00000  Uiso   1.00
O429   O     0.09058   0.24999   0.70097   0.00000  Uiso   1.00
O430   O     0.24275   0.25001   0.79904   0.00000  Uiso   1.00
C431   C     0.06713   0.24894   0.73774   0.00000  Uiso   1.00
C432   C     0.26622   0.24997   0.76233   0.00000  Uiso   1.00
Zn433  Zn    0.16667   0.25001   0.80307   0.00000  Uiso   1.00
Zn434  Zn    0.16667   0.25000   0.69693   0.00000  Uiso   1.00
C435   C     0.01222   0.24624   0.73138   0.00000  Uiso   1.00
C436   C     0.32119   0.25073   0.76908   0.00000  Uiso   1.00
H437   H     0.32527   0.24014   0.69588   0.00000  Uiso   1.00
H438   H     0.00812   0.25594   0.80488   0.00000  Uiso   1.00
C439   C     0.20123   0.04536   0.78374   0.00000  Uiso   1.00
C440   C     0.12702   0.45447   0.73773   0.00000  Uiso   1.00
H441   H     0.22082   0.02608   0.81316   0.00000  Uiso   1.00
H442   H     0.09191   0.47449   0.73225   0.00000  Uiso   1.00
C443   C     0.20003   0.09168   0.78714   0.00000  Uiso   1.00
C444   C     0.12223   0.40833   0.74101   0.00000  Uiso   1.00
C445   C     0.17204   0.11569   0.74931   0.00000  Uiso   1.00
C446   C     0.16840   0.38348   0.74994   0.00000  Uiso   1.00
C447   C     0.14906   0.09365   0.70796   0.00000  Uiso   1.00
C448   C     0.21805   0.40394   0.75512   0.00000  Uiso   1.00
H449   H     0.12858   0.11246   0.67861   0.00000  Uiso   1.00
H450   H     0.25297   0.38367   0.76087   0.00000  Uiso   1.00
C451   C     0.15326   0.04775   0.70335   0.00000  Uiso   1.00
C452   C     0.22293   0.45008   0.75093   0.00000  Uiso   1.00
C453   C     0.17849   0.02360   0.74227   0.00000  Uiso   1.00
C454   C     0.17670   0.47523   0.74249   0.00000  Uiso   1.00
C455   C     0.12413   0.22988   0.54769   0.00000  Uiso   1.00
C456   C     0.18772   0.28645   0.94984   0.00000  Uiso   1.00
H457   H     0.09067   0.21433   0.52621   0.00000  Uiso   1.00
H458   H     0.20448   0.31544   0.96946   0.00000  Uiso   1.00
C459   C     0.12599   0.22988   0.59752   0.00000  Uiso   1.00
C460   C     0.18844   0.28522   0.90041   0.00000  Uiso   1.00
H461   H     0.09447   0.21393   0.61316   0.00000  Uiso   1.00
H462   H     0.20616   0.31280   0.88334   0.00000  Uiso   1.00
N463   N     0.16667   0.24999   0.62624   0.00000  Uiso   1.00
N464   N     0.16667   0.25001   0.87377   0.00000  Uiso   1.00
C465   C     0.20669   0.27038   0.60607   0.00000  Uiso   1.00
C466   C     0.14378   0.21511   0.89555   0.00000  Uiso   1.00
C467   C     0.20623   0.27022   0.55656   0.00000  Uiso   1.00
C468   C     0.14330   0.21500   0.94495   0.00000  Uiso   1.00
H469   H     0.23875   0.28578   0.54197   0.00000  Uiso   1.00
H470   H     0.12590   0.18660   0.96105   0.00000  Uiso   1.00
C471   C     0.16471   0.25046   0.52627   0.00000  Uiso   1.00
C472   C     0.16490   0.25089   0.97312   0.00000  Uiso   1.00
N473   N     0.22956   0.11350   0.82757   0.00000  Uiso   1.00
O474   O     0.26044   0.14736   0.82150   0.00000  Uiso   1.00
O475   O     0.23384   0.09439   0.86904   0.00000  Uiso   1.00
N476   N     0.07084   0.38749   0.73494   0.00000  Uiso   1.00
O477   O     0.06075   0.35326   0.76073   0.00000  Uiso   1.00
O478   O     0.03251   0.40534   0.70676   0.00000  Uiso   1.00
N479   N     0.13221   0.02633   0.65931   0.00000  Uiso   1.00
O480   O     0.15552   0.49213   0.64389   0.00000  Uiso   1.00
O481   O     0.09303   0.04388   0.63190   0.00000  Uiso   1.00
N482   N     0.27440   0.47058   0.75444   0.00000  Uiso   1.00
O483   O     0.28311   0.00465   0.72786   0.00000  Uiso   1.00
O484   O     0.31391   0.45267   0.78107   0.00000  Uiso   1.00
N485   N     0.24979   0.29270   0.63438   0.00000  Uiso   1.00
O486   O     0.24098   0.32737   0.65931   0.00000  Uiso   1.00
O487   O     0.29703   0.28754   0.62406   0.00000  Uiso   1.00
N488   N     0.11932   0.17821   0.86870   0.00000  Uiso   1.00
O489   O     0.07596   0.18435   0.84020   0.00000  Uiso   1.00
O490   O     0.13169   0.13760   0.88199   0.00000  Uiso   1.00
O491   O     0.50000   0.18454   0.78974   0.00000  Uiso   1.00
O492   O     0.50000   0.31547   0.71026   0.00000  Uiso   1.00
O493   O     0.50000   0.18453   0.71026   0.00000  Uiso   1.00
O494   O     0.50000   0.31547   0.78974   0.00000  Uiso   1.00
C495   C     0.50142   0.16384   0.75013   0.00000  Uiso   1.00
C496   C     0.49964   0.33584   0.74991   0.00000  Uiso   1.00
O497   O     0.42392   0.25000   0.78044   0.00000  Uiso   1.00
O498   O     0.57608   0.25000   0.71956   0.00000  Uiso   1.00
O499   O     0.42392   0.24999   0.70097   0.00000  Uiso   1.00
O500   O     0.57608   0.25001   0.79904   0.00000  Uiso   1.00
C501   C     0.40046   0.24894   0.73774   0.00000  Uiso   1.00
C502   C     0.59955   0.24997   0.76233   0.00000  Uiso   1.00
Zn503  Zn    0.50000   0.25001   0.80307   0.00000  Uiso   1.00
Zn504  Zn    0.50000   0.25000   0.69693   0.00000  Uiso   1.00
C505   C     0.34555   0.24624   0.73138   0.00000  Uiso   1.00
C506   C     0.65452   0.25073   0.76908   0.00000  Uiso   1.00
H507   H     0.65861   0.24014   0.69588   0.00000  Uiso   1.00
H508   H     0.34146   0.25594   0.80488   0.00000  Uiso   1.00
C509   C     0.53456   0.04536   0.78374   0.00000  Uiso   1.00
C510   C     0.46035   0.45447   0.73773   0.00000  Uiso   1.00
H511   H     0.55415   0.02608   0.81316   0.00000  Uiso   1.00
H512   H     0.42525   0.47449   0.73225   0.00000  Uiso   1.00
C513   C     0.53337   0.09168   0.78714   0.00000  Uiso   1.00
C514   C     0.45556   0.40833   0.74101   0.00000  Uiso   1.00
C515   C     0.50537   0.11569   0.74931   0.00000  Uiso   1.00
C516   C     0.50173   0.38348   0.74994   0.00000  Uiso   1.00
C517   C     0.48240   0.09365   0.70796   0.00000  Uiso   1.00
C518   C     0.55138   0.40394   0.75512   0.00000  Uiso   1.00
H519   H     0.46191   0.11246   0.67861   0.00000  Uiso   1.00
H520   H     0.58630   0.38367   0.76087   0.00000  Uiso   1.00
C521   C     0.48659   0.04775   0.70335   0.00000  Uiso   1.00
C522   C     0.55627   0.45008   0.75093   0.00000  Uiso   1.00
C523   C     0.51183   0.02360   0.74227   0.00000  Uiso   1.00
C524   C     0.51003   0.47523   0.74249   0.00000  Uiso   1.00
C525   C     0.45746   0.22988   0.54769   0.00000  Uiso   1.00
C526   C     0.52105   0.28645   0.94984   0.00000  Uiso   1.00
H527   H     0.42401   0.21433   0.52621   0.00000  Uiso   1.00
H528   H     0.53781   0.31544   0.96946   0.00000  Uiso   1.00
C529   C     0.45932   0.22988   0.59752   0.00000  Uiso   1.00
C530   C     0.52177   0.28522   0.90041   0.00000  Uiso   1.00
H531   H     0.42780   0.21393   0.61316   0.00000  Uiso   1.00
H532   H     0.53949   0.31280   0.88334   0.00000  Uiso   1.00
N533   N     0.50000   0.24999   0.62624   0.00000  Uiso   1.00
N534   N     0.50000   0.25001   0.87377   0.00000  Uiso   1.00
C535   C     0.54003   0.27038   0.60607   0.00000  Uiso   1.00
C536   C     0.47712   0.21511   0.89555   0.00000  Uiso   1.00
C537   C     0.53956   0.27022   0.55656   0.00000  Uiso   1.00
C538   C     0.47663   0.21500   0.94495   0.00000  Uiso   1.00
H539   H     0.57208   0.28578   0.54197   0.00000  Uiso   1.00
H540   H     0.45924   0.18660   0.96105   0.00000  Uiso   1.00
C541   C     0.49804   0.25046   0.52627   0.00000  Uiso   1.00
C542   C     0.49823   0.25089   0.97312   0.00000  Uiso   1.00
N543   N     0.56289   0.11350   0.82757   0.00000  Uiso   1.00
O544   O     0.59377   0.14736   0.82150   0.00000  Uiso   1.00
O545   O     0.56717   0.09439   0.86904   0.00000  Uiso   1.00
N546   N     0.40418   0.38749   0.73494   0.00000  Uiso   1.00
O547   O     0.39409   0.35326   0.76073   0.00000  Uiso   1.00
O548   O     0.36584   0.40534   0.70676   0.00000  Uiso   1.00
N549   N     0.46554   0.02633   0.65931   0.00000  Uiso   1.00
O550   O     0.48885   0.49213   0.64389   0.00000  Uiso   1.00
O551   O     0.42637   0.04388   0.63190   0.00000  Uiso   1.00
N552   N     0.60773   0.47058   0.75444   0.00000  Uiso   1.00
O553   O     0.61644   0.00465   0.72786   0.00000  Uiso   1.00
O554   O     0.64725   0.45267   0.78107   0.00000  Uiso   1.00
N555   N     0.58313   0.29270   0.63438   0.00000  Uiso   1.00
O556   O     0.57431   0.32737   0.65931   0.00000  Uiso   1.00
O557   O     0.63037   0.28754   0.62406   0.00000  Uiso   1.00
N558   N     0.45265   0.17821   0.86870   0.00000  Uiso   1.00
O559   O     0.40929   0.18435   0.84020   0.00000  Uiso   1.00
O560   O     0.46502   0.13760   0.88199   0.00000  Uiso   1.00
O561   O     0.83334   0.18454   0.78974   0.00000  Uiso   1.00
O562   O     0.83333   0.31547   0.71026   0.00000  Uiso   1.00
O563   O     0.83334   0.18453   0.71026   0.00000  Uiso   1.00
O564   O     0.83333   0.31547   0.78974   0.00000  Uiso   1.00
C565   C     0.83475   0.16384   0.75013   0.00000  Uiso   1.00
C566   C     0.83297   0.33584   0.74991   0.00000  Uiso   1.00
O567   O     0.75725   0.25000   0.78044   0.00000  Uiso   1.00
O568   O     0.90942   0.25000   0.71956   0.00000  Uiso   1.00
O569   O     0.75725   0.24999   0.70097   0.00000  Uiso   1.00
O570   O     0.90942   0.25001   0.79904   0.00000  Uiso   1.00
C571   C     0.73380   0.24894   0.73774   0.00000  Uiso   1.00
C572   C     0.93289   0.24997   0.76233   0.00000  Uiso   1.00
Zn573  Zn    0.83333   0.25001   0.80307   0.00000  Uiso   1.00
Zn574  Zn    0.83333   0.25000   0.69693   0.00000  Uiso   1.00
C575   C     0.67888   0.24624   0.73138   0.00000  Uiso   1.00
C576   C     0.98785   0.25073   0.76908   0.00000  Uiso   1.00
H577   H     0.99194   0.24014   0.69588   0.00000  Uiso   1.00
H578   H     0.67479   0.25594   0.80488   0.00000  Uiso   1.00
C579   C     0.86789   0.04536   0.78374   0.00000  Uiso   1.00
C580   C     0.79368   0.45447   0.73773   0.00000  Uiso   1.00
H581   H     0.88748   0.02608   0.81316   0.00000  Uiso   1.00
H582   H     0.75858   0.47449   0.73225   0.00000  Uiso   1.00
C583   C     0.86670   0.09168   0.78714   0.00000  Uiso   1.00
C584   C     0.78890   0.40833   0.74101   0.00000  Uiso   1.00
C585   C     0.83870   0.11569   0.74931   0.00000  Uiso   1.00
C586   C     0.83506   0.38348   0.74994   0.00000  Uiso   1.00
C587   C     0.81573   0.09365   0.70796   0.00000  Uiso   1.00
C588   C     0.88472   0.40394   0.75512   0.00000  Uiso   1.00
H589   H     0.79524   0.11246   0.67861   0.00000  Uiso   1.00
H590   H     0.91963   0.38367   0.76087   0.00000  Uiso   1.00
C591   C     0.81993   0.04775   0.70335   0.00000  Uiso   1.00
C592   C     0.88960   0.45008   0.75093   0.00000  Uiso   1.00
C593   C     0.84516   0.02360   0.74227   0.00000  Uiso   1.00
C594   C     0.84337   0.47523   0.74249   0.00000  Uiso   1.00
C595   C     0.79079   0.22988   0.54769   0.00000  Uiso   1.00
C596   C     0.85439   0.28645   0.94984   0.00000  Uiso   1.00
H597   H     0.75734   0.21433   0.52621   0.00000  Uiso   1.00
H598   H     0.87114   0.31544   0.96946   0.00000  Uiso   1.00
C599   C     0.79266   0.22988   0.59752   0.00000  Uiso   1.00
C600   C     0.85510   0.28522   0.90041   0.00000  Uiso   1.00
H601   H     0.76113   0.21393   0.61316   0.00000  Uiso   1.00
H602   H     0.87283   0.31280   0.88334   0.00000  Uiso   1.00
N603   N     0.83333   0.24999   0.62624   0.00000  Uiso   1.00
N604   N     0.83333   0.25001   0.87377   0.00000  Uiso   1.00
C605   C     0.87336   0.27038   0.60607   0.00000  Uiso   1.00
C606   C     0.81045   0.21511   0.89555   0.00000  Uiso   1.00
C607   C     0.87289   0.27022   0.55656   0.00000  Uiso   1.00
C608   C     0.80996   0.21500   0.94495   0.00000  Uiso   1.00
H609   H     0.90541   0.28578   0.54197   0.00000  Uiso   1.00
H610   H     0.79257   0.18660   0.96105   0.00000  Uiso   1.00
C611   C     0.83137   0.25046   0.52627   0.00000  Uiso   1.00
C612   C     0.83156   0.25089   0.97312   0.00000  Uiso   1.00
N613   N     0.89623   0.11350   0.82757   0.00000  Uiso   1.00
O614   O     0.92711   0.14736   0.82150   0.00000  Uiso   1.00
O615   O     0.90051   0.09439   0.86904   0.00000  Uiso   1.00
N616   N     0.73751   0.38749   0.73494   0.00000  Uiso   1.00
O617   O     0.72742   0.35326   0.76073   0.00000  Uiso   1.00
O618   O     0.69917   0.40534   0.70676   0.00000  Uiso   1.00
N619   N     0.79888   0.02633   0.65931   0.00000  Uiso   1.00
O620   O     0.82219   0.49213   0.64389   0.00000  Uiso   1.00
O621   O     0.75970   0.04388   0.63190   0.00000  Uiso   1.00
N622   N     0.94107   0.47058   0.75444   0.00000  Uiso   1.00
O623   O     0.94978   0.00465   0.72786   0.00000  Uiso   1.00
O624   O     0.98058   0.45267   0.78107   0.00000  Uiso   1.00
N625   N     0.91646   0.29270   0.63438   0.00000  Uiso   1.00
O626   O     0.90764   0.32737   0.65931   0.00000  Uiso   1.00
O627   O     0.96370   0.28754   0.62406   0.00000  Uiso   1.00
N628   N     0.78598   0.17821   0.86870   0.00000  Uiso   1.00
O629   O     0.74263   0.18435   0.84020   0.00000  Uiso   1.00
O630   O     0.79835   0.13760   0.88199   0.00000  Uiso   1.00
O631   O     0.16667   0.68454   0.78974   0.00000  Uiso   1.00
O632   O     0.16666   0.81547   0.71026   0.00000  Uiso   1.00
O633   O     0.16667   0.68453   0.71026   0.00000  Uiso   1.00
O634   O     0.16666   0.81547   0.78974   0.00000  Uiso   1.00
C635   C     0.16808   0.66384   0.75013   0.00000  Uiso   1.00
C636   C     0.16630   0.83584   0.74991   0.00000  Uiso   1.00
O637   O     0.09058   0.75000   0.78044   0.00000  Uiso   1.00
O638   O     0.24275   0.75000   0.71956   0.00000  Uiso   1.00
O639   O     0.09058   0.74999   0.70097   0.00000  Uiso   1.00
O640   O     0.24275   0.75001   0.79904   0.00000  Uiso   1.00
C641   C     0.06713   0.74894   0.73774   0.00000  Uiso   1.00
C642   C     0.26622   0.74997   0.76233   0.00000  Uiso   1.00
Zn643  Zn    0.16667   0.75001   0.80307   0.00000  Uiso   1.00
Zn644  Zn    0.16667   0.75000   0.69693   0.00000  Uiso   1.00
C645   C     0.01222   0.74624   0.73138   0.00000  Uiso   1.00
C646   C     0.32119   0.75073   0.76908   0.00000  Uiso   1.00
H647   H     0.32527   0.74014   0.69588   0.00000  Uiso   1.00
H648   H     0.00812   0.75594   0.80488   0.00000  Uiso   1.00
C649   C     0.20123   0.54536   0.78374   0.00000  Uiso   1.00
C650   C     0.12702   0.95447   0.73773   0.00000  Uiso   1.00
H651   H     0.22082   0.52608   0.81316   0.00000  Uiso   1.00
H652   H     0.09191   0.97449   0.73225   0.00000  Uiso   1.00
C653   C     0.20003   0.59168   0.78714   0.00000  Uiso   1.00
C654   C     0.12223   0.90833   0.74101   0.00000  Uiso   1.00
C655   C     0.17204   0.61569   0.74931   0.00000  Uiso   1.00
C656   C     0.16840   0.88348   0.74994   0.00000  Uiso   1.00
C657   C     0.14906   0.59365   0.70796   0.00000  Uiso   1.00
C658   C     0.21805   0.90394   0.75512   0.00000  Uiso   1.00
H659   H     0.12858   0.61246   0.67861   0.00000  Uiso   1.00
H660   H     0.25297   0.88367   0.76087   0.00000  Uiso   1.00
C661   C     0.15326   0.54775   0.70335   0.00000  Uiso   1.00
C662   C     0.22293   0.95008   0.75093   0.00000  Uiso   1.00
C663   C     0.17849   0.52360   0.74227   0.00000  Uiso   1.00
C664   C     0.17670   0.97523   0.74249   0.00000  Uiso   1.00
C665   C     0.12413   0.72988   0.54769   0.00000  Uiso   1.00
C666   C     0.18772   0.78645   0.94984   0.00000  Uiso   1.00
H667   H     0.09067   0.71433   0.52621   0.00000  Uiso   1.00
H668   H     0.20448   0.81544   0.96946   0.00000  Uiso   1.00
C669   C     0.12599   0.72988   0.59752   0.00000  Uiso   1.00
C670   C     0.18844   0.78522   0.90041   0.00000  Uiso   1.00
H671   H     0.09447   0.71393   0.61316   0.00000  Uiso   1.00
H672   H     0.20616   0.81280   0.88334   0.00000  Uiso   1.00
N673   N     0.16667   0.74999   0.62624   0.00000  Uiso   1.00
N674   N     0.16667   0.75001   0.87377   0.00000  Uiso   1.00
C675   C     0.20669   0.77038   0.60607   0.00000  Uiso   1.00
C676   C     0.14378   0.71511   0.89555   0.00000  Uiso   1.00
C677   C     0.20623   0.77022   0.55656   0.00000  Uiso   1.00
C678   C     0.14330   0.71500   0.94495   0.00000  Uiso   1.00
H679   H     0.23875   0.78578   0.54197   0.00000  Uiso   1.00
H680   H     0.12590   0.68660   0.96105   0.00000  Uiso   1.00
C681   C     0.16471   0.75046   0.52627   0.00000  Uiso   1.00
C682   C     0.16490   0.75089   0.97312   0.00000  Uiso   1.00
N683   N     0.22956   0.61350   0.82757   0.00000  Uiso   1.00
O684   O     0.26044   0.64736   0.82150   0.00000  Uiso   1.00
O685   O     0.23384   0.59439   0.86904   0.00000  Uiso   1.00
N686   N     0.07084   0.88749   0.73494   0.00000  Uiso   1.00
O687   O     0.06075   0.85326   0.76073   0.00000  Uiso   1.00
O688   O     0.03251   0.90534   0.70676   0.00000  Uiso   1.00
N689   N     0.13221   0.52633   0.65931   0.00000  Uiso   1.00
O690   O     0.15552   0.99213   0.64389   0.00000  Uiso   1.00
O691   O     0.09303   0.54388   0.63190   0.00000  Uiso   1.00
N692   N     0.27440   0.97058   0.75444   0.00000  Uiso   1.00
O693   O     0.28311   0.50465   0.72786   0.00000  Uiso   1.00
O694   O     0.31391   0.95267   0.78107   0.00000  Uiso   1.00
N695   N     0.24979   0.79270   0.63438   0.00000  Uiso   1.00
O696   O     0.24098   0.82737   0.65931   0.00000  Uiso   1.00
O697   O     0.29703   0.78754   0.62406   0.00000  Uiso   1.00
N698   N     0.11932   0.67821   0.86870   0.00000  Uiso   1.00
O699   O     0.07596   0.68435   0.84020   0.00000  Uiso   1.00
O700   O     0.13169   0.63760   0.88199   0.00000  Uiso   1.00
O701   O     0.50000   0.68454   0.78974   0.00000  Uiso   1.00
O702   O     0.50000   0.81547   0.71026   0.00000  Uiso   1.00
O703   O     0.50000   0.68453   0.71026   0.00000  Uiso   1.00
O704   O     0.50000   0.81547   0.78974   0.00000  Uiso   1.00
C705   C     0.50142   0.66384   0.75013   0.00000  Uiso   1.00
C706   C     0.49964   0.83584   0.74991   0.00000  Uiso   1.00
O707   O     0.42392   0.75000   0.78044   0.00000  Uiso   1.00
O708   O     0.57608   0.75000   0.71956   0.00000  Uiso   1.00
O709   O     0.42392   0.74999   0.70097   0.00000  Uiso   1.00
O710   O     0.57608   0.75001   0.79904   0.00000  Uiso   1.00
C711   C     0.40046   0.74894   0.73774   0.00000  Uiso   1.00
C712   C     0.59955   0.74997   0.76233   0.00000  Uiso   1.00
Zn713  Zn    0.50000   0.75001   0.80307   0.00000  Uiso   1.00
Zn714  Zn    0.50000   0.75000   0.69693   0.00000  Uiso   1.00
C715   C     0.34555   0.74624   0.73138   0.00000  Uiso   1.00
C716   C     0.65452   0.75073   0.76908   0.00000  Uiso   1.00
H717   H     0.65861   0.74014   0.69588   0.00000  Uiso   1.00
H718   H     0.34146   0.75594   0.80488   0.00000  Uiso   1.00
C719   C     0.53456   0.54536   0.78374   0.00000  Uiso   1.00
C720   C     0.46035   0.95447   0.73773   0.00000  Uiso   1.00
H721   H     0.55415   0.52608   0.81316   0.00000  Uiso   1.00
H722   H     0.42525   0.97449   0.73225   0.00000  Uiso   1.00
C723   C     0.53337   0.59168   0.78714   0.00000  Uiso   1.00
C724   C     0.45556   0.90833   0.74101   0.00000  Uiso   1.00
C725   C     0.50537   0.61569   0.74931   0.00000  Uiso   1.00
C726   C     0.50173   0.88348   0.74994   0.00000  Uiso   1.00
C727   C     0.48240   0.59365   0.70796   0.00000  Uiso   1.00
C728   C     0.55138   0.90394   0.75512   0.00000  Uiso   1.00
H729   H     0.46191   0.61246   0.67861   0.00000  Uiso   1.00
H730   H     0.58630   0.88367   0.76087   0.00000  Uiso   1.00
C731   C     0.48659   0.54775   0.70335   0.00000  Uiso   1.00
C732   C     0.55627   0.95008   0.75093   0.00000  Uiso   1.00
C733   C     0.51183   0.52360   0.74227   0.00000  Uiso   1.00
C734   C     0.51003   0.97523   0.74249   0.00000  Uiso   1.00
C735   C     0.45746   0.72988   0.54769   0.00000  Uiso   1.00
C736   C     0.52105   0.78645   0.94984   0.00000  Uiso   1.00
H737   H     0.42401   0.71433   0.52621   0.00000  Uiso   1.00
H738   H     0.53781   0.81544   0.96946   0.00000  Uiso   1.00
C739   C     0.45932   0.72988   0.59752   0.00000  Uiso   1.00
C740   C     0.52177   0.78522   0.90041   0.00000  Uiso   1.00
H741   H     0.42780   0.71393   0.61316   0.00000  Uiso   1.00
H742   H     0.53949   0.81280   0.88334   0.00000  Uiso   1.00
N743   N     0.50000   0.74999   0.62624   0.00000  Uiso   1.00
N744   N     0.50000   0.75001   0.87377   0.00000  Uiso   1.00
C745   C     0.54003   0.77038   0.60607   0.00000  Uiso   1.00
C746   C     0.47712   0.71511   0.89555   0.00000  Uiso   1.00
C747   C     0.53956   0.77022   0.55656   0.00000  Uiso   1.00
C748   C     0.47663   0.71500   0.94495   0.00000  Uiso   1.00
H749   H     0.57208   0.78578   0.54197   0.00000  Uiso   1.00
H750   H     0.45924   0.68660   0.96105   0.00000  Uiso   1.00
C751   C     0.49804   0.75046   0.52627   0.00000  Uiso   1.00
C752   C     0.49823   0.75089   0.97312   0.00000  Uiso   1.00
N753   N     0.56289   0.61350   0.82757   0.00000  Uiso   1.00
O754   O     0.59377   0.64736   0.82150   0.00000  Uiso   1.00
O755   O     0.56717   0.59439   0.86904   0.00000  Uiso   1.00
N756   N     0.40418   0.88749   0.73494   0.00000  Uiso   1.00
O757   O     0.39409   0.85326   0.76073   0.00000  Uiso   1.00
O758   O     0.36584   0.90534   0.70676   0.00000  Uiso   1.00
N759   N     0.46554   0.52633   0.65931   0.00000  Uiso   1.00
O760   O     0.48885   0.99213   0.64389   0.00000  Uiso   1.00
O761   O     0.42637   0.54388   0.63190   0.00000  Uiso   1.00
N762   N     0.60773   0.97058   0.75444   0.00000  Uiso   1.00
O763   O     0.61644   0.50465   0.72786   0.00000  Uiso   1.00
O764   O     0.64725   0.95267   0.78107   0.00000  Uiso   1.00
N765   N     0.58313   0.79270   0.63438   0.00000  Uiso   1.00
O766   O     0.57431   0.82737   0.65931   0.00000  Uiso   1.00
O767   O     0.63037   0.78754   0.62406   0.00000  Uiso   1.00
N768   N     0.45265   0.67821   0.86870   0.00000  Uiso   1.00
O769   O     0.40929   0.68435   0.84020   0.00000  Uiso   1.00
O770   O     0.46502   0.63760   0.88199   0.00000  Uiso   1.00
O771   O     0.83334   0.68454   0.78974   0.00000  Uiso   1.00
O772   O     0.83333   0.81547   0.71026   0.00000  Uiso   1.00
O773   O     0.83334   0.68453   0.71026   0.00000  Uiso   1.00
O774   O     0.83333   0.81547   0.78974   0.00000  Uiso   1.00
C775   C     0.83475   0.66384   0.75013   0.00000  Uiso   1.00
C776   C     0.83297   0.83584   0.74991   0.00000  Uiso   1.00
O777   O     0.75725   0.75000   0.78044   0.00000  Uiso   1.00
O778   O     0.90942   0.75000   0.71956   0.00000  Uiso   1.00
O779   O     0.75725   0.74999   0.70097   0.00000  Uiso   1.00
O780   O     0.90942   0.75001   0.79904   0.00000  Uiso   1.00
C781   C     0.73380   0.74894   0.73774   0.00000  Uiso   1.00
C782   C     0.93289   0.74997   0.76233   0.00000  Uiso   1.00
Zn783  Zn    0.83333   0.75001   0.80307   0.00000  Uiso   1.00
Zn784  Zn    0.83333   0.75000   0.69693   0.00000  Uiso   1.00
C785   C     0.67888   0.74624   0.73138   0.00000  Uiso   1.00
C786   C     0.98785   0.75073   0.76908   0.00000  Uiso   1.00
H787   H     0.99194   0.74014   0.69588   0.00000  Uiso   1.00
H788   H     0.67479   0.75594   0.80488   0.00000  Uiso   1.00
C789   C     0.86789   0.54536   0.78374   0.00000  Uiso   1.00
C790   C     0.79368   0.95447   0.73773   0.00000  Uiso   1.00
H791   H     0.88748   0.52608   0.81316   0.00000  Uiso   1.00
H792   H     0.75858   0.97449   0.73225   0.00000  Uiso   1.00
C793   C     0.86670   0.59168   0.78714   0.00000  Uiso   1.00
C794   C     0.78890   0.90833   0.74101   0.00000  Uiso   1.00
C795   C     0.83870   0.61569   0.74931   0.00000  Uiso   1.00
C796   C     0.83506   0.88348   0.74994   0.00000  Uiso   1.00
C797   C     0.81573   0.59365   0.70796   0.00000  Uiso   1.00
C798   C     0.88472   0.90394   0.75512   0.00000  Uiso   1.00
H799   H     0.79524   0.61246   0.67861   0.00000  Uiso   1.00
H800   H     0.91963   0.88367   0.76087   0.00000  Uiso   1.00
C801   C     0.81993   0.54775   0.70335   0.00000  Uiso   1.00
C802   C     0.88960   0.95008   0.75093   0.00000  Uiso   1.00
C803   C     0.84516   0.52360   0.74227   0.00000  Uiso   1.00
C804   C     0.84337   0.97523   0.74249   0.00000  Uiso   1.00
C805   C     0.79079   0.72988   0.54769   0.00000  Uiso   1.00
C806   C     0.85439   0.78645   0.94984   0.00000  Uiso   1.00
H807   H     0.75734   0.71433   0.52621   0.00000  Uiso   1.00
H808   H     0.87114   0.81544   0.96946   0.00000  Uiso   1.00
C809   C     0.79266   0.72988   0.59752   0.00000  Uiso   1.00
C810   C     0.85510   0.78522   0.90041   0.00000  Uiso   1.00
H811   H     0.76113   0.71393   0.61316   0.00000  Uiso   1.00
H812   H     0.87283   0.81280   0.88334   0.00000  Uiso   1.00
N813   N     0.83333   0.74999   0.62624   0.00000  Uiso   1.00
N814   N     0.83333   0.75001   0.87377   0.00000  Uiso   1.00
C815   C     0.87336   0.77038   0.60607   0.00000  Uiso   1.00
C816   C     0.81045   0.71511   0.89555   0.00000  Uiso   1.00
C817   C     0.87289   0.77022   0.55656   0.00000  Uiso   1.00
C818   C     0.80996   0.71500   0.94495   0.00000  Uiso   1.00
H819   H     0.90541   0.78578   0.54197   0.00000  Uiso   1.00
H820   H     0.79257   0.68660   0.96105   0.00000  Uiso   1.00
C821   C     0.83137   0.75046   0.52627   0.00000  Uiso   1.00
C822   C     0.83156   0.75089   0.97312   0.00000  Uiso   1.00
N823   N     0.89623   0.61350   0.82757   0.00000  Uiso   1.00
O824   O     0.92711   0.64736   0.82150   0.00000  Uiso   1.00
O825   O     0.90051   0.59439   0.86904   0.00000  Uiso   1.00
N826   N     0.73751   0.88749   0.73494   0.00000  Uiso   1.00
O827   O     0.72742   0.85326   0.76073   0.00000  Uiso   1.00
O828   O     0.69917   0.90534   0.70676   0.00000  Uiso   1.00
N829   N     0.79888   0.52633   0.65931   0.00000  Uiso   1.00
O830   O     0.82219   0.99213   0.64389   0.00000  Uiso   1.00
O831   O     0.75970   0.54388   0.63190   0.00000  Uiso   1.00
N832   N     0.94107   0.97058   0.75444   0.00000  Uiso   1.00
O833   O     0.94978   0.50465   0.72786   0.00000  Uiso   1.00
O834   O     0.98058   0.95267   0.78107   0.00000  Uiso   1.00
N835   N     0.91646   0.79270   0.63438   0.00000  Uiso   1.00
O836   O     0.90764   0.82737   0.65931   0.00000  Uiso   1.00
O837   O     0.96370   0.78754   0.62406   0.00000  Uiso   1.00
N838   N     0.78598   0.67821   0.86870   0.00000  Uiso   1.00
O839   O     0.74263   0.68435   0.84020   0.00000  Uiso   1.00
O840   O     0.79835   0.63760   0.88199   0.00000  Uiso   1.00
loop_
_geom_bond_atom_site_label_1
_geom_bond_atom_site_label_2
_geom_bond_distance
_geom_bond_site_symmetry_2
_ccdc_geom_bond_type
O1     C5      1.293   .     A
O1     Zn13    1.993   .     S
O2     C6      1.286   .     A
O2     Zn14    1.993   .     S
O3     Zn14    1.991   .     S
O3     C5      1.287   .     A
O4     C6      1.284   .     A
O4     Zn13    1.991   .     S
C5     C25     1.444   .     S
C6     C26     1.423   .     S
O7     Zn13    1.972   .     S
O7     C11     1.279   .     A
O8     C12     1.281   .     A
O8     Zn14    1.972   .     S
O9     Zn14    1.976   .     S
O9     C11     1.280   .     A
O10    C12     1.278   .     A
O10    Zn13    1.976   .     S
C11    C15     1.400   .     S
C12    C16     1.400   .     S
Zn13   N44     2.013   .     S
Zn14   N43     2.013   .     S
C15    C156    1.325   1_455 S
C15    H157    1.085   1_455 S
C16    C85     1.325   .     S
C16    H88     1.088   .     S
H17    C85     1.085   .     S
H18    C156    1.088   1_455 S
C19    H21     1.084   .     S
C19    C33     1.399   .     A
C19    C23     1.388   .     A
C20    C34     1.400   .     A
C20    C24     1.386   .     A
C20    H22     1.085   .     S
C23    N53     1.438   .     S
C23    C25     1.410   .     A
C24    C26     1.404   .     A
C24    N56     1.440   .     S
C25    C27     1.402   .     A
C26    C28     1.395   .     A
C27    C31     1.385   .     A
C27    H29     1.084   .     S
C28    H30     1.085   .     S
C28    C32     1.388   .     A
C31    C33     1.407   .     A
C31    N59     1.441   .     S
C32    N62     1.440   .     S
C32    C34     1.409   .     A
C33    C244    1.445   1_545 S
C34    C243    1.445   .     S
C35    C39     1.413   .     A
C35    C51     1.412   .     A
C35    H37     1.082   .     S
C36    C52     1.413   .     A
C36    H38     1.082   .     S
C36    C40     1.411   .     A
C39    N43     1.366   .     A
C39    H41     1.082   .     S
C40    N44     1.364   .     A
C40    H42     1.082   .     S
N43    C45     1.379   .     A
N44    C46     1.377   .     A
C45    C47     1.408   .     A
C45    N65     1.432   .     S
C46    N68     1.429   .     S
C46    C48     1.409   .     A
C47    H49     1.082   .     S
C47    C51     1.398   .     A
C48    H50     1.083   .     S
C48    C52     1.400   .     A
C51    C472    1.514   1_554 S
C52    C471    1.514   .     S
N53    O54     1.301   .     A
N53    O55     1.301   .     A
N56    O57     1.301   .     A
N56    O58     1.301   .     A
N59    O61     1.302   .     A
N59    O270    1.302   1_545 S
O60    N269    1.302   .     S
N62    O64     1.301   .     A
N62    O273    1.301   .     S
O63    N272    1.301   1_545 S
N65    O66     1.298   .     A
N65    O67     1.301   .     A
N68    O70     1.301   .     A
N68    O69     1.299   .     A
O71    C75     1.293   .     A
O71    Zn83    1.993   .     S
O72    C76     1.286   .     A
O72    Zn84    1.993   .     S
O73    Zn84    1.991   .     S
O73    C75     1.287   .     A
O74    C76     1.284   .     A
O74    Zn83    1.991   .     S
C75    C95     1.444   .     S
C76    C96     1.423   .     S
O77    Zn83    1.972   .     S
O77    C81     1.279   .     A
O78    C82     1.281   .     A
O78    Zn84    1.972   .     S
O79    Zn84    1.976   .     S
O79    C81     1.280   .     A
O80    C82     1.278   .     A
O80    Zn83    1.976   .     S
C81    C85     1.400   .     S
C82    C86     1.400   .     S
Zn83   N114    2.013   .     S
Zn84   N113    2.013   .     S
C86    C155    1.325   .     S
C86    H158    1.088   .     S
H87    C155    1.085   .     S
C89    H91     1.084   .     S
C89    C103    1.399   .     A
C89    C93     1.388   .     A
C90    C104    1.400   .     A
C90    C94     1.386   .     A
C90    H92     1.085   .     S
C93    N123    1.438   .     S
C93    C95     1.410   .     A
C94    C96     1.404   .     A
C94    N126    1.440   .     S
C95    C97     1.402   .     A
C96    C98     1.395   .     A
C97    C101    1.385   .     A
C97    H99     1.084   .     S
C98    H100    1.085   .     S
C98    C102    1.388   .     A
C101   C103    1.407   .     A
C101   N129    1.441   .     S
C102   N132    1.440   .     S
C102   C104    1.409   .     A
C103   C314    1.445   1_545 S
C104   C313    1.445   .     S
C105   C109    1.413   .     A
C105   C121    1.412   .     A
C105   H107    1.082   .     S
C106   C122    1.413   .     A
C106   H108    1.082   .     S
C106   C110    1.411   .     A
C109   N113    1.366   .     A
C109   H111    1.082   .     S
C110   N114    1.364   .     A
C110   H112    1.082   .     S
N113   C115    1.379   .     A
N114   C116    1.377   .     A
C115   C117    1.408   .     A
C115   N135    1.432   .     S
C116   N138    1.429   .     S
C116   C118    1.409   .     A
C117   H119    1.082   .     S
C117   C121    1.398   .     A
C118   H120    1.083   .     S
C118   C122    1.400   .     A
C121   C542    1.514   1_554 S
C122   C541    1.514   .     S
N123   O124    1.301   .     A
N123   O125    1.301   .     A
N126   O127    1.301   .     A
N126   O128    1.301   .     A
N129   O131    1.302   .     A
N129   O340    1.302   1_545 S
O130   N339    1.302   .     S
N132   O134    1.301   .     A
N132   O343    1.301   .     S
O133   N342    1.301   1_545 S
N135   O136    1.298   .     A
N135   O137    1.301   .     A
N138   O140    1.301   .     A
N138   O139    1.299   .     A
O141   C145    1.293   .     A
O141   Zn153   1.993   .     S
O142   C146    1.286   .     A
O142   Zn154   1.993   .     S
O143   Zn154   1.991   .     S
O143   C145    1.287   .     A
O144   C146    1.284   .     A
O144   Zn153   1.991   .     S
C145   C165    1.444   .     S
C146   C166    1.423   .     S
O147   Zn153   1.972   .     S
O147   C151    1.279   .     A
O148   C152    1.281   .     A
O148   Zn154   1.972   .     S
O149   Zn154   1.976   .     S
O149   C151    1.280   .     A
O150   C152    1.278   .     A
O150   Zn153   1.976   .     S
C151   C155    1.400   .     S
C152   C156    1.400   .     S
Zn153  N184    2.013   .     S
Zn154  N183    2.013   .     S
C156   C15     1.325   1_655 S
C156   H18     1.088   1_655 S
H157   C15     1.085   1_655 S
C159   H161    1.084   .     S
C159   C173    1.399   .     A
C159   C163    1.388   .     A
C160   C174    1.400   .     A
C160   C164    1.386   .     A
C160   H162    1.085   .     S
C163   N193    1.438   .     S
C163   C165    1.410   .     A
C164   C166    1.404   .     A
C164   N196    1.440   .     S
C165   C167    1.402   .     A
C166   C168    1.395   .     A
C167   C171    1.385   .     A
C167   H169    1.084   .     S
C168   H170    1.085   .     S
C168   C172    1.388   .     A
C171   C173    1.407   .     A
C171   N199    1.441   .     S
C172   N202    1.440   .     S
C172   C174    1.409   .     A
C173   C384    1.445   1_545 S
C174   C383    1.445   .     S
C175   C179    1.413   .     A
C175   C191    1.412   .     A
C175   H177    1.082   .     S
C176   C192    1.413   .     A
C176   H178    1.082   .     S
C176   C180    1.411   .     A
C179   N183    1.366   .     A
C179   H181    1.082   .     S
C180   N184    1.364   .     A
C180   H182    1.082   .     S
N183   C185    1.379   .     A
N184   C186    1.377   .     A
C185   C187    1.408   .     A
C185   N205    1.432   .     S
C186   N208    1.429   .     S
C186   C188    1.409   .     A
C187   H189    1.082   .     S
C187   C191    1.398   .     A
C188   H190    1.083   .     S
C188   C192    1.400   .     A
C191   C612    1.514   1_554 S
C192   C611    1.514   .     S
N193   O194    1.301   .     A
N193   O195    1.301   .     A
N196   O197    1.301   .     A
N196   O198    1.301   .     A
N199   O201    1.302   .     A
N199   O410    1.302   1_545 S
O200   N409    1.302   .     S
N202   O204    1.301   .     A
N202   O413    1.301   .     S
O203   N412    1.301   1_545 S
N205   O206    1.298   .     A
N205   O207    1.301   .     A
N208   O210    1.301   .     A
N208   O209    1.299   .     A
O211   C215    1.293   .     A
O211   Zn223   1.993   .     S
O212   C216    1.286   .     A
O212   Zn224   1.993   .     S
O213   Zn224   1.991   .     S
O213   C215    1.287   .     A
O214   C216    1.284   .     A
O214   Zn223   1.991   .     S
C215   C235    1.444   .     S
C216   C236    1.423   .     S
O217   Zn223   1.972   .     S
O217   C221    1.279   .     A
O218   C222    1.281   .     A
O218   Zn224   1.972   .     S
O219   Zn224   1.976   .     S
O219   C221    1.280   .     A
O220   C222    1.278   .     A
O220   Zn223   1.976   .     S
C221   C225    1.400   .     S
C222   C226    1.400   .     S
Zn223  N254    2.013   .     S
Zn224  N253    2.013   .     S
C225   C366    1.325   1_455 S
C225   H367    1.085   1_455 S
C226   C295    1.325   .     S
C226   H298    1.088   .     S
H227   C295    1.085   .     S
H228   C366    1.088   1_455 S
C229   H231    1.084   .     S
C229   C243    1.399   .     A
C229   C233    1.388   .     A
C230   C244    1.400   .     A
C230   C234    1.386   .     A
C230   H232    1.085   .     S
C233   N263    1.438   .     S
C233   C235    1.410   .     A
C234   C236    1.404   .     A
C234   N266    1.440   .     S
C235   C237    1.402   .     A
C236   C238    1.395   .     A
C237   C241    1.385   .     A
C237   H239    1.084   .     S
C238   H240    1.085   .     S
C238   C242    1.388   .     A
C241   C243    1.407   .     A
C241   N269    1.441   .     S
C242   N272    1.440   .     S
C242   C244    1.409   .     A
C244   C33     1.445   1_565 S
C245   C249    1.413   .     A
C245   C261    1.412   .     A
C245   H247    1.082   .     S
C246   C262    1.413   .     A
C246   H248    1.082   .     S
C246   C250    1.411   .     A
C249   N253    1.366   .     A
C249   H251    1.082   .     S
C250   N254    1.364   .     A
C250   H252    1.082   .     S
N253   C255    1.379   .     A
N254   C256    1.377   .     A
C255   C257    1.408   .     A
C255   N275    1.432   .     S
C256   N278    1.429   .     S
C256   C258    1.409   .     A
C257   H259    1.082   .     S
C257   C261    1.398   .     A
C258   H260    1.083   .     S
C258   C262    1.400   .     A
C261   C682    1.514   1_554 S
C262   C681    1.514   .     S
N263   O264    1.301   .     A
N263   O265    1.301   .     A
N266   O267    1.301   .     A
N266   O268    1.301   .     A
N269   O271    1.302   .     A
O270   N59     1.302   1_565 S
N272   O274    1.301   .     A
N272   O63     1.301   1_565 S
N275   O276    1.298   .     A
N275   O277    1.301   .     A
N278   O280    1.301   .     A
N278   O279    1.299   .     A
O281   C285    1.293   .     A
O281   Zn293   1.993   .     S
O282   C286    1.286   .     A
O282   Zn294   1.993   .     S
O283   Zn294   1.991   .     S
O283   C285    1.287   .     A
O284   C286    1.284   .     A
O284   Zn293   1.991   .     S
C285   C305    1.444   .     S
C286   C306    1.423   .     S
O287   Zn293   1.972   .     S
O287   C291    1.279   .     A
O288   C292    1.281   .     A
O288   Zn294   1.972   .     S
O289   Zn294   1.976   .     S
O289   C291    1.280   .     A
O290   C292    1.278   .     A
O290   Zn293   1.976   .     S
C291   C295    1.400   .     S
C292   C296    1.400   .     S
Zn293  N324    2.013   .     S
Zn294  N323    2.013   .     S
C296   C365    1.325   .     S
C296   H368    1.088   .     S
H297   C365    1.085   .     S
C299   H301    1.084   .     S
C299   C313    1.399   .     A
C299   C303    1.388   .     A
C300   C314    1.400   .     A
C300   C304    1.386   .     A
C300   H302    1.085   .     S
C303   N333    1.438   .     S
C303   C305    1.410   .     A
C304   C306    1.404   .     A
C304   N336    1.440   .     S
C305   C307    1.402   .     A
C306   C308    1.395   .     A
C307   C311    1.385   .     A
C307   H309    1.084   .     S
C308   H310    1.085   .     S
C308   C312    1.388   .     A
C311   C313    1.407   .     A
C311   N339    1.441   .     S
C312   N342    1.440   .     S
C312   C314    1.409   .     A
C314   C103    1.445   1_565 S
C315   C319    1.413   .     A
C315   C331    1.412   .     A
C315   H317    1.082   .     S
C316   C332    1.413   .     A
C316   H318    1.082   .     S
C316   C320    1.411   .     A
C319   N323    1.366   .     A
C319   H321    1.082   .     S
C320   N324    1.364   .     A
C320   H322    1.082   .     S
N323   C325    1.379   .     A
N324   C326    1.377   .     A
C325   C327    1.408   .     A
C325   N345    1.432   .     S
C326   N348    1.429   .     S
C326   C328    1.409   .     A
C327   H329    1.082   .     S
C327   C331    1.398   .     A
C328   H330    1.083   .     S
C328   C332    1.400   .     A
C331   C752    1.514   1_554 S
C332   C751    1.514   .     S
N333   O334    1.301   .     A
N333   O335    1.301   .     A
N336   O337    1.301   .     A
N336   O338    1.301   .     A
N339   O341    1.302   .     A
O340   N129    1.302   1_565 S
N342   O344    1.301   .     A
N342   O133    1.301   1_565 S
N345   O346    1.298   .     A
N345   O347    1.301   .     A
N348   O350    1.301   .     A
N348   O349    1.299   .     A
O351   C355    1.293   .     A
O351   Zn363   1.993   .     S
O352   C356    1.286   .     A
O352   Zn364   1.993   .     S
O353   Zn364   1.991   .     S
O353   C355    1.287   .     A
O354   C356    1.284   .     A
O354   Zn363   1.991   .     S
C355   C375    1.444   .     S
C356   C376    1.423   .     S
O357   Zn363   1.972   .     S
O357   C361    1.279   .     A
O358   C362    1.281   .     A
O358   Zn364   1.972   .     S
O359   Zn364   1.976   .     S
O359   C361    1.280   .     A
O360   C362    1.278   .     A
O360   Zn363   1.976   .     S
C361   C365    1.400   .     S
C362   C366    1.400   .     S
Zn363  N394    2.013   .     S
Zn364  N393    2.013   .     S
C366   C225    1.325   1_655 S
C366   H228    1.088   1_655 S
H367   C225    1.085   1_655 S
C369   H371    1.084   .     S
C369   C383    1.399   .     A
C369   C373    1.388   .     A
C370   C384    1.400   .     A
C370   C374    1.386   .     A
C370   H372    1.085   .     S
C373   N403    1.438   .     S
C373   C375    1.410   .     A
C374   C376    1.404   .     A
C374   N406    1.440   .     S
C375   C377    1.402   .     A
C376   C378    1.395   .     A
C377   C381    1.385   .     A
C377   H379    1.084   .     S
C378   H380    1.085   .     S
C378   C382    1.388   .     A
C381   C383    1.407   .     A
C381   N409    1.441   .     S
C382   N412    1.440   .     S
C382   C384    1.409   .     A
C384   C173    1.445   1_565 S
C385   C389    1.413   .     A
C385   C401    1.412   .     A
C385   H387    1.082   .     S
C386   C402    1.413   .     A
C386   H388    1.082   .     S
C386   C390    1.411   .     A
C389   N393    1.366   .     A
C389   H391    1.082   .     S
C390   N394    1.364   .     A
C390   H392    1.082   .     S
N393   C395    1.379   .     A
N394   C396    1.377   .     A
C395   C397    1.408   .     A
C395   N415    1.432   .     S
C396   N418    1.429   .     S
C396   C398    1.409   .     A
C397   H399    1.082   .     S
C397   C401    1.398   .     A
C398   H400    1.083   .     S
C398   C402    1.400   .     A
C401   C822    1.514   1_554 S
C402   C821    1.514   .     S
N403   O404    1.301   .     A
N403   O405    1.301   .     A
N406   O407    1.301   .     A
N406   O408    1.301   .     A
N409   O411    1.302   .     A
O410   N199    1.302   1_565 S
N412   O414    1.301   .     A
N412   O203    1.301   1_565 S
N415   O416    1.298   .     A
N415   O417    1.301   .     A
N418   O420    1.301   .     A
N418   O419    1.299   .     A
O421   C425    1.293   .     A
O421   Zn433   1.993   .     S
O422   C426    1.286   .     A
O422   Zn434   1.993   .     S
O423   Zn434   1.991   .     S
O423   C425    1.287   .     A
O424   C426    1.284   .     A
O424   Zn433   1.991   .     S
C425   C445    1.444   .     S
C426   C446    1.423   .     S
O427   Zn433   1.972   .     S
O427   C431    1.279   .     A
O428   C432    1.281   .     A
O428   Zn434   1.972   .     S
O429   Zn434   1.976   .     S
O429   C431    1.280   .     A
O430   C432    1.278   .     A
O430   Zn433   1.976   .     S
C431   C435    1.400   .     S
C432   C436    1.400   .     S
Zn433  N464    2.013   .     S
Zn434  N463    2.013   .     S
C435   C576    1.325   1_455 S
C435   H577    1.085   1_455 S
C436   C505    1.325   .     S
C436   H508    1.088   .     S
H437   C505    1.085   .     S
H438   C576    1.088   1_455 S
C439   H441    1.084   .     S
C439   C453    1.399   .     A
C439   C443    1.388   .     A
C440   C454    1.400   .     A
C440   C444    1.386   .     A
C440   H442    1.085   .     S
C443   N473    1.438   .     S
C443   C445    1.410   .     A
C444   C446    1.404   .     A
C444   N476    1.440   .     S
C445   C447    1.402   .     A
C446   C448    1.395   .     A
C447   C451    1.385   .     A
C447   H449    1.084   .     S
C448   H450    1.085   .     S
C448   C452    1.388   .     A
C451   C453    1.407   .     A
C451   N479    1.441   .     S
C452   N482    1.440   .     S
C452   C454    1.409   .     A
C453   C664    1.445   1_545 S
C454   C663    1.445   .     S
C455   C459    1.413   .     A
C455   C471    1.412   .     A
C455   H457    1.082   .     S
C456   C472    1.413   .     A
C456   H458    1.082   .     S
C456   C460    1.411   .     A
C459   N463    1.366   .     A
C459   H461    1.082   .     S
C460   N464    1.364   .     A
C460   H462    1.082   .     S
N463   C465    1.379   .     A
N464   C466    1.377   .     A
C465   C467    1.408   .     A
C465   N485    1.432   .     S
C466   N488    1.429   .     S
C466   C468    1.409   .     A
C467   H469    1.082   .     S
C467   C471    1.398   .     A
C468   H470    1.083   .     S
C468   C472    1.400   .     A
C472   C51     1.514   1_556 S
N473   O474    1.301   .     A
N473   O475    1.301   .     A
N476   O477    1.301   .     A
N476   O478    1.301   .     A
N479   O481    1.302   .     A
N479   O690    1.302   1_545 S
O480   N689    1.302   .     S
N482   O484    1.301   .     A
N482   O693    1.301   .     S
O483   N692    1.301   1_545 S
N485   O486    1.298   .     A
N485   O487    1.301   .     A
N488   O490    1.301   .     A
N488   O489    1.299   .     A
O491   C495    1.293   .     A
O491   Zn503   1.993   .     S
O492   C496    1.286   .     A
O492   Zn504   1.993   .     S
O493   Zn504   1.991   .     S
O493   C495    1.287   .     A
O494   C496    1.284   .     A
O494   Zn503   1.991   .     S
C495   C515    1.444   .     S
C496   C516    1.423   .     S
O497   Zn503   1.972   .     S
O497   C501    1.279   .     A
O498   C502    1.281   .     A
O498   Zn504   1.972   .     S
O499   Zn504   1.976   .     S
O499   C501    1.280   .     A
O500   C502    1.278   .     A
O500   Zn503   1.976   .     S
C501   C505    1.400   .     S
C502   C506    1.400   .     S
Zn503  N534    2.013   .     S
Zn504  N533    2.013   .     S
C506   C575    1.325   .     S
C506   H578    1.088   .     S
H507   C575    1.085   .     S
C509   H511    1.084   .     S
C509   C523    1.399   .     A
C509   C513    1.388   .     A
C510   C524    1.400   .     A
C510   C514    1.386   .     A
C510   H512    1.085   .     S
C513   N543    1.438   .     S
C513   C515    1.410   .     A
C514   C516    1.404   .     A
C514   N546    1.440   .     S
C515   C517    1.402   .     A
C516   C518    1.395   .     A
C517   C521    1.385   .     A
C517   H519    1.084   .     S
C518   H520    1.085   .     S
C518   C522    1.388   .     A
C521   C523    1.407   .     A
C521   N549    1.441   .     S
C522   N552    1.440   .     S
C522   C524    1.409   .     A
C523   C734    1.445   1_545 S
C524   C733    1.445   .     S
C525   C529    1.413   .     A
C525   C541    1.412   .     A
C525   H527    1.082   .     S
C526   C542    1.413   .     A
C526   H528    1.082   .     S
C526   C530    1.411   .     A
C529   N533    1.366   .     A
C529   H531    1.082   .     S
C530   N534    1.364   .     A
C530   H532    1.082   .     S
N533   C535    1.379   .     A
N534   C536    1.377   .     A
C535   C537    1.408   .     A
C535   N555    1.432   .     S
C536   N558    1.429   .     S
C536   C538    1.409   .     A
C537   H539    1.082   .     S
C537   C541    1.398   .     A
C538   H540    1.083   .     S
C538   C542    1.400   .     A
C542   C121    1.514   1_556 S
N543   O544    1.301   .     A
N543   O545    1.301   .     A
N546   O547    1.301   .     A
N546   O548    1.301   .     A
N549   O551    1.302   .     A
N549   O760    1.302   1_545 S
O550   N759    1.302   .     S
N552   O554    1.301   .     A
N552   O763    1.301   .     S
O553   N762    1.301   1_545 S
N555   O556    1.298   .     A
N555   O557    1.301   .     A
N558   O560    1.301   .     A
N558   O559    1.299   .     A
O561   C565    1.293   .     A
O561   Zn573   1.993   .     S
O562   C566    1.286   .     A
O562   Zn574   1.993   .     S
O563   Zn574   1.991   .     S
O563   C565    1.287   .     A
O564   C566    1.284   .     A
O564   Zn573   1.991   .     S
C565   C585    1.444   .     S
C566   C586    1.423   .     S
O567   Zn573   1.972   .     S
O567   C571    1.279   .     A
O568   C572    1.281   .     A
O568   Zn574   1.972   .     S
O569   Zn574   1.976   .     S
O569   C571    1.280   .     A
O570   C572    1.278   .     A
O570   Zn573   1.976   .     S
C571   C575    1.400   .     S
C572   C576    1.400   .     S
Zn573  N604    2.013   .     S
Zn574  N603    2.013   .     S
C576   C435    1.325   1_655 S
C576   H438    1.088   1_655 S
H577   C435    1.085   1_655 S
C579   H581    1.084   .     S
C579   C593    1.399   .     A
C579   C583    1.388   .     A
C580   C594    1.400   .     A
C580   C584    1.386   .     A
C580   H582    1.085   .     S
C583   N613    1.438   .     S
C583   C585    1.410   .     A
C584   C586    1.404   .     A
C584   N616    1.440   .     S
C585   C587    1.402   .     A
C586   C588    1.395   .     A
C587   C591    1.385   .     A
C587   H589    1.084   .     S
C588   H590    1.085   .     S
C588   C592    1.388   .     A
C591   C593    1.407   .     A
C591   N619    1.441   .     S
C592   N622    1.440   .     S
C592   C594    1.409   .     A
C593   C804    1.445   1_545 S
C594   C803    1.445   .     S
C595   C599    1.413   .     A
C595   C611    1.412   .     A
C595   H597    1.082   .     S
C596   C612    1.413   .     A
C596   H598    1.082   .     S
C596   C600    1.411   .     A
C599   N603    1.366   .     A
C599   H601    1.082   .     S
C600   N604    1.364   .     A
C600   H602    1.082   .     S
N603   C605    1.379   .     A
N604   C606    1.377   .     A
C605   C607    1.408   .     A
C605   N625    1.432   .     S
C606   N628    1.429   .     S
C606   C608    1.409   .     A
C607   H609    1.082   .     S
C607   C611    1.398   .     A
C608   H610    1.083   .     S
C608   C612    1.400   .     A
C612   C191    1.514   1_556 S
N613   O614    1.301   .     A
N613   O615    1.301   .     A
N616   O617    1.301   .     A
N616   O618    1.301   .     A
N619   O621    1.302   .     A
N619   O830    1.302   1_545 S
O620   N829    1.302   .     S
N622   O624    1.301   .     A
N622   O833    1.301   .     S
O623   N832    1.301   1_545 S
N625   O626    1.298   .     A
N625   O627    1.301   .     A
N628   O630    1.301   .     A
N628   O629    1.299   .     A
O631   C635    1.293   .     A
O631   Zn643   1.993   .     S
O632   C636    1.286   .     A
O632   Zn644   1.993   .     S
O633   Zn644   1.991   .     S
O633   C635    1.287   .     A
O634   C636    1.284   .     A
O634   Zn643   1.991   .     S
C635   C655    1.444   .     S
C636   C656    1.423   .     S
O637   Zn643   1.972   .     S
O637   C641    1.279   .     A
O638   C642    1.281   .     A
O638   Zn644   1.972   .     S
O639   Zn644   1.976   .     S
O639   C641    1.280   .     A
O640   C642    1.278   .     A
O640   Zn643   1.976   .     S
C641   C645    1.400   .     S
C642   C646    1.400   .     S
Zn643  N674    2.013   .     S
Zn644  N673    2.013   .     S
C645   C786    1.325   1_455 S
C645   H787    1.085   1_455 S
C646   C715    1.325   .     S
C646   H718    1.088   .     S
H647   C715    1.085   .     S
H648   C786    1.088   1_455 S
C649   H651    1.084   .     S
C649   C663    1.399   .     A
C649   C653    1.388   .     A
C650   C664    1.400   .     A
C650   C654    1.386   .     A
C650   H652    1.085   .     S
C653   N683    1.438   .     S
C653   C655    1.410   .     A
C654   C656    1.404   .     A
C654   N686    1.440   .     S
C655   C657    1.402   .     A
C656   C658    1.395   .     A
C657   C661    1.385   .     A
C657   H659    1.084   .     S
C658   H660    1.085   .     S
C658   C662    1.388   .     A
C661   C663    1.407   .     A
C661   N689    1.441   .     S
C662   N692    1.440   .     S
C662   C664    1.409   .     A
C664   C453    1.445   1_565 S
C665   C669    1.413   .     A
C665   C681    1.412   .     A
C665   H667    1.082   .     S
C666   C682    1.413   .     A
C666   H668    1.082   .     S
C666   C670    1.411   .     A
C669   N673    1.366   .     A
C669   H671    1.082   .     S
C670   N674    1.364   .     A
C670   H672    1.082   .     S
N673   C675    1.379   .     A
N674   C676    1.377   .     A
C675   C677    1.408   .     A
C675   N695    1.432   .     S
C676   N698    1.429   .     S
C676   C678    1.409   .     A
C677   H679    1.082   .     S
C677   C681    1.398   .     A
C678   H680    1.083   .     S
C678   C682    1.400   .     A
C682   C261    1.514   1_556 S
N683   O684    1.301   .     A
N683   O685    1.301   .     A
N686   O687    1.301   .     A
N686   O688    1.301   .     A
N689   O691    1.302   .     A
O690   N479    1.302   1_565 S
N692   O694    1.301   .     A
N692   O483    1.301   1_565 S
N695   O696    1.298   .     A
N695   O697    1.301   .     A
N698   O700    1.301   .     A
N698   O699    1.299   .     A
O701   C705    1.293   .     A
O701   Zn713   1.993   .     S
O702   C706    1.286   .     A
O702   Zn714   1.993   .     S
O703   Zn714   1.991   .     S
O703   C705    1.287   .     A
O704   C706    1.284   .     A
O704   Zn713   1.991   .     S
C705   C725    1.444   .     S
C706   C726    1.423   .     S
O707   Zn713   1.972   .     S
O707   C711    1.279   .     A
O708   C712    1.281   .     A
O708   Zn714   1.972   .     S
O709   Zn714   1.976   .     S
O709   C711    1.280   .     A
O710   C712    1.278   .     A
O710   Zn713   1.976   .     S
C711   C715    1.400   .     S
C712   C716    1.400   .     S
Zn713  N744    2.013   .     S
Zn714  N743    2.013   .     S
C716   C785    1.325   .     S
C716   H788    1.088   .     S
H717   C785    1.085   .     S
C719   H721    1.084   .     S
C719   C733    1.399   .     A
C719   C723    1.388   .     A
C720   C734    1.400   .     A
C720   C724    1.386   .     A
C720   H722    1.085   .     S
C723   N753    1.438   .     S
C723   C725    1.410   .     A
C724   C726    1.404   .     A
C724   N756    1.440   .     S
C725   C727    1.402   .     A
C726   C728    1.395   .     A
C727   C731    1.385   .     A
C727   H729    1.084   .     S
C728   H730    1.085   .     S
C728   C732    1.388   .     A
C731   C733    1.407   .     A
C731   N759    1.441   .     S
C732   N762    1.440   .     S
C732   C734    1.409   .     A
C734   C523    1.445   1_565 S
C735   C739    1.413   .     A
C735   C751    1.412   .     A
C735   H737    1.082   .     S
C736   C752    1.413   .     A
C736   H738    1.082   .     S
C736   C740    1.411   .     A
C739   N743    1.366   .     A
C739   H741    1.082   .     S
C740   N744    1.364   .     A
C740   H742    1.082   .     S
N743   C745    1.379   .     A
N744   C746    1.377   .     A
C745   C747    1.408   .     A
C745   N765    1.432   .     S
C746   N768    1.429   .     S
C746   C748    1.409   .     A
C747   H749    1.082   .     S
C747   C751    1.398   .     A
C748   H750    1.083   .     S
C748   C752    1.400   .     A
C752   C331    1.514   1_556 S
N753   O754    1.301   .     A
N753   O755    1.301   .     A
N756   O757    1.301   .     A
N756   O758    1.301   .     A
N759   O761    1.302   .     A
O760   N549    1.302   1_565 S
N762   O764    1.301   .     A
N762   O553    1.301   1_565 S
N765   O766    1.298   .     A
N765   O767    1.301   .     A
N768   O770    1.301   .     A
N768   O769    1.299   .     A
O771   C775    1.293   .     A
O771   Zn783   1.993   .     S
O772   C776    1.286   .     A
O772   Zn784   1.993   .     S
O773   Zn784   1.991   .     S
O773   C775    1.287   .     A
O774   C776    1.284   .     A
O774   Zn783   1.991   .     S
C775   C795    1.444   .     S
C776   C796    1.423   .     S
O777   Zn783   1.972   .     S
O777   C781    1.279   .     A
O778   C782    1.281   .     A
O778   Zn784   1.972   .     S
O779   Zn784   1.976   .     S
O779   C781    1.280   .     A
O780   C782    1.278   .     A
O780   Zn783   1.976   .     S
C781   C785    1.400   .     S
C782   C786    1.400   .     S
Zn783  N814    2.013   .     S
Zn784  N813    2.013   .     S
C786   C645    1.325   1_655 S
C786   H648    1.088   1_655 S
H787   C645    1.085   1_655 S
C789   H791    1.084   .     S
C789   C803    1.399   .     A
C789   C793    1.388   .     A
C790   C804    1.400   .     A
C790   C794    1.386   .     A
C790   H792    1.085   .     S
C793   N823    1.438   .     S
C793   C795    1.410   .     A
C794   C796    1.404   .     A
C794   N826    1.440   .     S
C795   C797    1.402   .     A
C796   C798    1.395   .     A
C797   C801    1.385   .     A
C797   H799    1.084   .     S
C798   H800    1.085   .     S
C798   C802    1.388   .     A
C801   C803    1.407   .     A
C801   N829    1.441   .     S
C802   N832    1.440   .     S
C802   C804    1.409   .     A
C804   C593    1.445   1_565 S
C805   C809    1.413   .     A
C805   C821    1.412   .     A
C805   H807    1.082   .     S
C806   C822    1.413   .     A
C806   H808    1.082   .     S
C806   C810    1.411   .     A
C809   N813    1.366   .     A
C809   H811    1.082   .     S
C810   N814    1.364   .     A
C810   H812    1.082   .     S
N813   C815    1.379   .     A
N814   C816    1.377   .     A
C815   C817    1.408   .     A
C815   N835    1.432   .     S
C816   N838    1.429   .     S
C816   C818    1.409   .     A
C817   H819    1.082   .     S
C817   C821    1.398   .     A
C818   H820    1.083   .     S
C818   C822    1.400   .     A
C822   C401    1.514   1_556 S
N823   O824    1.301   .     A
N823   O825    1.301   .     A
N826   O827    1.301   .     A
N826   O828    1.301   .     A
N829   O831    1.302   .     A
O830   N619    1.302   1_565 S
N832   O834    1.301   .     A
N832   O623    1.301   1_565 S
N835   O836    1.298   .     A
N835   O837    1.301   .     A
N838   O840    1.301   .     A
N838   O839    1.299   .     A
