data_str_m1_o1_o2_pcu_sym.81
_audit_creation_date              2020-01-03
_audit_creation_method            'Materials Studio'
_symmetry_space_group_name_H-M    'P1'
_symmetry_Int_Tables_number       1
_symmetry_cell_setting            triclinic
loop_
_symmetry_equiv_pos_as_xyz
  x,y,z
_cell_length_a                    36.5073
_cell_length_b                    36.5073
_cell_length_c                    34.6261
_cell_angle_alpha                 90.0000
_cell_angle_beta                  90.0000
_cell_angle_gamma                 90.0207
loop_
_atom_site_label
_atom_site_type_symbol
_atom_site_fract_x
_atom_site_fract_y
_atom_site_fract_z
_atom_site_U_iso_or_equiv
_atom_site_adp_type
_atom_site_occupancy
C1     C     0.22353   0.01998   0.04185   0.00000  Uiso   1.00
C2     C     0.03266   0.25553   0.45906   0.00000  Uiso   1.00
C3     C     0.34805   0.40195   0.75000   0.00000  Uiso   1.00
C4     C     0.40197   0.15197   0.25000   0.00000  Uiso   1.00
C5     C     0.09807   0.34807   0.75000   0.00000  Uiso   1.00
C6     C     0.34804   0.40196   0.25000   0.00000  Uiso   1.00
C7     C     0.15195   0.09805   0.75000   0.00000  Uiso   1.00
C8     C     0.09804   0.15196   0.75000   0.00000  Uiso   1.00
C9     C     0.40195   0.34805   0.25000   0.00000  Uiso   1.00
C10    C     0.15197   0.40197   0.75000   0.00000  Uiso   1.00
C11    C     0.34807   0.09807   0.25000   0.00000  Uiso   1.00
C12    C     0.40196   0.34804   0.75000   0.00000  Uiso   1.00
C13    C     0.24446   0.46734   0.54094   0.00000  Uiso   1.00
C14    C     0.09805   0.15195   0.25000   0.00000  Uiso   1.00
C15    C     0.34803   0.09803   0.75000   0.00000  Uiso   1.00
C16    C     0.15193   0.40193   0.25000   0.00000  Uiso   1.00
C17    C     0.25000  -0.00000   0.10251   0.00000  Uiso   1.00
C18    C     0.25000  -0.00000   0.89807   0.00000  Uiso   1.00
C19    C    -0.00000   0.25000   0.10193   0.00000  Uiso   1.00
C20    C    -0.00000   0.25000   0.89749   0.00000  Uiso   1.00
C21    C     0.00000   0.25000   0.60251   0.00000  Uiso   1.00
C22    C    -0.00000   0.25000   0.39807   0.00000  Uiso   1.00
C23    C     0.25000  -0.00000   0.60193   0.00000  Uiso   1.00
C24    C     0.23002   0.02647   0.45815   0.00000  Uiso   1.00
C25    C     0.25000   0.00000   0.39749   0.00000  Uiso   1.00
C26    C     0.18762   0.36901   0.19847   0.00000  Uiso   1.00
C27    C     0.31414   0.12944   0.80425   0.00000  Uiso   1.00
C28    C     0.12903   0.18545   0.19541   0.00000  Uiso   1.00
C29    C     0.37384   0.31749   0.80824   0.00000  Uiso   1.00
C30    C     0.31238   0.13099   0.19847   0.00000  Uiso   1.00
C31    C     0.18586   0.37056   0.80425   0.00000  Uiso   1.00
C32    C     0.37097   0.31455   0.19541   0.00000  Uiso   1.00
C33    C     0.12616   0.18251   0.80824   0.00000  Uiso   1.00
C34    C     0.18545   0.12903   0.80459   0.00000  Uiso   1.00
C35    C     0.02647   0.23002   0.54185   0.00000  Uiso   1.00
C36    C     0.31749   0.37384   0.19176   0.00000  Uiso   1.00
C37    C     0.13099   0.31238   0.80154   0.00000  Uiso   1.00
C38    C     0.37056   0.18586   0.19575   0.00000  Uiso   1.00
C39    C     0.31455   0.37097   0.80459   0.00000  Uiso   1.00
C40    C     0.18251   0.12616   0.19176   0.00000  Uiso   1.00
C41    C     0.36901   0.18762   0.80154   0.00000  Uiso   1.00
C42    C     0.12944   0.31414   0.19575   0.00000  Uiso   1.00
C43    C     0.43762   0.11901   0.69847   0.00000  Uiso   1.00
C44    C     0.06414   0.37944   0.30425   0.00000  Uiso   1.00
C45    C     0.37903   0.43545   0.69541   0.00000  Uiso   1.00
C46    C     0.46734   0.24447   0.45906   0.00000  Uiso   1.00
C47    C     0.12384   0.06749   0.30824   0.00000  Uiso   1.00
C48    C     0.06238   0.38099   0.69847   0.00000  Uiso   1.00
C49    C     0.43586   0.12056   0.30425   0.00000  Uiso   1.00
C50    C     0.12097   0.06455   0.69541   0.00000  Uiso   1.00
C51    C     0.37616   0.43251   0.30824   0.00000  Uiso   1.00
C52    C     0.43545   0.37903   0.30459   0.00000  Uiso   1.00
C53    C     0.06749   0.12384   0.69176   0.00000  Uiso   1.00
C54    C     0.38099   0.06238   0.30154   0.00000  Uiso   1.00
C55    C     0.12056   0.43586   0.69575   0.00000  Uiso   1.00
C56    C     0.06455   0.12097   0.30459   0.00000  Uiso   1.00
C57    C     0.25553   0.03266   0.54094   0.00000  Uiso   1.00
C58    C     0.43251   0.37616   0.69176   0.00000  Uiso   1.00
C59    C     0.11901   0.43762   0.30154   0.00000  Uiso   1.00
C60    C     0.37944   0.06414   0.69575   0.00000  Uiso   1.00
C61    C     0.16246   0.02568   0.09826   0.00000  Uiso   1.00
C62    C     0.13605   0.04652   0.12416   0.00000  Uiso   1.00
C63    C     0.32348   0.04956   0.89858   0.00000  Uiso   1.00
C64    C     0.35861   0.05566   0.87585   0.00000  Uiso   1.00
C65    C     0.45044   0.17652   0.10142   0.00000  Uiso   1.00
C66    C     0.44434   0.14139   0.12415   0.00000  Uiso   1.00
C67    C     0.47432   0.33754   0.90174   0.00000  Uiso   1.00
C68    C     0.26998   0.47353   0.45815   0.00000  Uiso   1.00
C69    C     0.45348   0.36395   0.87584   0.00000  Uiso   1.00
C70    C     0.33754   0.47432   0.09826   0.00000  Uiso   1.00
C71    C     0.36395   0.45348   0.12416   0.00000  Uiso   1.00
C72    C     0.17652   0.45044   0.89858   0.00000  Uiso   1.00
C73    C     0.14139   0.44434   0.87585   0.00000  Uiso   1.00
C74    C     0.04955   0.32348   0.10142   0.00000  Uiso   1.00
C75    C     0.05566   0.35861   0.12415   0.00000  Uiso   1.00
C76    C     0.02568   0.16246   0.90174   0.00000  Uiso   1.00
C77    C     0.04652   0.13605   0.87584   0.00000  Uiso   1.00
C78    C     0.41246   0.27568   0.59826   0.00000  Uiso   1.00
C79    C     0.22273   0.01945   0.08222   0.00000  Uiso   1.00
C80    C     0.38605   0.29652   0.62416   0.00000  Uiso   1.00
C81    C     0.07348   0.29956   0.39858   0.00000  Uiso   1.00
C82    C     0.10861   0.30566   0.37585   0.00000  Uiso   1.00
C83    C     0.20044   0.42652   0.60142   0.00000  Uiso   1.00
C84    C     0.19434   0.39139   0.62415   0.00000  Uiso   1.00
C85    C     0.22432   0.08754   0.40174   0.00000  Uiso   1.00
C86    C     0.20348   0.11395   0.37584   0.00000  Uiso   1.00
C87    C     0.08754   0.22432   0.59826   0.00000  Uiso   1.00
C88    C     0.11395   0.20348   0.62416   0.00000  Uiso   1.00
C89    C     0.42652   0.20044   0.39858   0.00000  Uiso   1.00
C90    C     0.28286   0.00645   0.91876   0.00000  Uiso   1.00
C91    C     0.39139   0.19434   0.37585   0.00000  Uiso   1.00
C92    C     0.29955   0.07348   0.60142   0.00000  Uiso   1.00
C93    C     0.30566   0.10861   0.62415   0.00000  Uiso   1.00
C94    C     0.27568   0.41246   0.40174   0.00000  Uiso   1.00
C95    C     0.29652   0.38605   0.37584   0.00000  Uiso   1.00
C96    C     0.49355   0.21714   0.08124   0.00000  Uiso   1.00
C97    C     0.28266   0.00554   0.95906   0.00000  Uiso   1.00
C98    C     0.48055   0.27727   0.91778   0.00000  Uiso   1.00
C99    C     0.27727   0.48055   0.08222   0.00000  Uiso   1.00
C100   C     0.21714   0.49355   0.91876   0.00000  Uiso   1.00
C101   C     0.00645   0.28286   0.08124   0.00000  Uiso   1.00
C102   C     0.01945   0.22273   0.91778   0.00000  Uiso   1.00
C103   C     0.47273   0.26945   0.58222   0.00000  Uiso   1.00
C104   C     0.03286   0.25645   0.41876   0.00000  Uiso   1.00
C105   C     0.24355   0.46714   0.58124   0.00000  Uiso   1.00
C106   C     0.23055   0.02727   0.41778   0.00000  Uiso   1.00
C107   C     0.02727   0.23055   0.58222   0.00000  Uiso   1.00
C108   C     0.49446   0.21734   0.04094   0.00000  Uiso   1.00
C109   C     0.46714   0.24355   0.41876   0.00000  Uiso   1.00
C110   C     0.25645   0.03286   0.58124   0.00000  Uiso   1.00
C111   C     0.26945   0.47273   0.41778   0.00000  Uiso   1.00
C112   C     0.25000  -0.00000   0.02164   0.00000  Uiso   1.00
C113   C     0.25000  -0.00000   0.97928   0.00000  Uiso   1.00
C114   C    -0.00000   0.25000   0.02072   0.00000  Uiso   1.00
C115   C    -0.00000   0.25000   0.97837   0.00000  Uiso   1.00
C116   C     0.00000   0.25000   0.52164   0.00000  Uiso   1.00
C117   C     0.00000   0.25000   0.47928   0.00000  Uiso   1.00
C118   C     0.25000  -0.00000   0.52072   0.00000  Uiso   1.00
C119   C     0.48002   0.27647   0.95815   0.00000  Uiso   1.00
C120   C     0.25000  -0.00000   0.47837   0.00000  Uiso   1.00
C121   C     0.25000   0.00000   0.35519   0.00000  Uiso   1.00
C122   C     0.25000  -0.00000   0.64460   0.00000  Uiso   1.00
C123   C    -0.00000   0.25000   0.35540   0.00000  Uiso   1.00
C124   C     0.00000   0.25000   0.64481   0.00000  Uiso   1.00
C125   C     0.00000   0.25000   0.85519   0.00000  Uiso   1.00
C126   C    -0.00000   0.25000   0.14460   0.00000  Uiso   1.00
C127   C     0.25000   0.00000   0.85540   0.00000  Uiso   1.00
C128   C     0.25000   0.00000   0.14481   0.00000  Uiso   1.00
C129   C     0.18004   0.06996   0.25000   0.00000  Uiso   1.00
C130   C     0.27647   0.48002   0.04185   0.00000  Uiso   1.00
C131   C     0.31996   0.43003   0.75000   0.00000  Uiso   1.00
C132   C     0.43005   0.18005   0.25000   0.00000  Uiso   1.00
C133   C     0.06996   0.31996   0.75000   0.00000  Uiso   1.00
C134   C     0.31996   0.43004   0.25000   0.00000  Uiso   1.00
C135   C     0.18004   0.06996   0.75000   0.00000  Uiso   1.00
C136   C     0.06995   0.31995   0.25000   0.00000  Uiso   1.00
C137   C     0.43003   0.18004   0.75000   0.00000  Uiso   1.00
C138   C     0.18005   0.43005   0.75000   0.00000  Uiso   1.00
C139   C     0.31996   0.06997   0.25000   0.00000  Uiso   1.00
C140   C     0.43004   0.31996   0.75000   0.00000  Uiso   1.00
C141   C     0.21734   0.49446   0.95906   0.00000  Uiso   1.00
C142   C     0.06996   0.18004   0.25000   0.00000  Uiso   1.00
C143   C     0.31995   0.06995   0.75000   0.00000  Uiso   1.00
C144   C     0.18003   0.43003   0.25000   0.00000  Uiso   1.00
C145   C     0.06996   0.18004   0.75000   0.00000  Uiso   1.00
C146   C     0.43003   0.31996   0.25000   0.00000  Uiso   1.00
C147   C     0.15504   0.37219   0.22418   0.00000  Uiso   1.00
C148   C     0.34504   0.12766   0.77605   0.00000  Uiso   1.00
C149   C     0.12653   0.15376   0.22247   0.00000  Uiso   1.00
C150   C     0.37384   0.34658   0.77797   0.00000  Uiso   1.00
C151   C     0.34496   0.12781   0.22418   0.00000  Uiso   1.00
C152   C     0.00553   0.28266   0.04094   0.00000  Uiso   1.00
C153   C     0.15496   0.37234   0.77605   0.00000  Uiso   1.00
C154   C     0.37347   0.34624   0.22247   0.00000  Uiso   1.00
C155   C     0.12616   0.15342   0.77797   0.00000  Uiso   1.00
C156   C     0.15376   0.12653   0.77753   0.00000  Uiso   1.00
C157   C     0.34658   0.37384   0.22203   0.00000  Uiso   1.00
C158   C     0.12781   0.34496   0.77582   0.00000  Uiso   1.00
C159   C     0.37234   0.15496   0.22395   0.00000  Uiso   1.00
C160   C     0.34624   0.37347   0.77753   0.00000  Uiso   1.00
C161   C     0.15342   0.12616   0.22203   0.00000  Uiso   1.00
C162   C     0.37219   0.15504   0.77582   0.00000  Uiso   1.00
C163   C     0.01998   0.22353   0.95815   0.00000  Uiso   1.00
C164   C     0.12766   0.34504   0.22395   0.00000  Uiso   1.00
C165   C     0.40504   0.12219   0.72418   0.00000  Uiso   1.00
C166   C     0.09504   0.37766   0.27605   0.00000  Uiso   1.00
C167   C     0.37653   0.40376   0.72247   0.00000  Uiso   1.00
C168   C     0.12384   0.09658   0.27797   0.00000  Uiso   1.00
C169   C     0.09496   0.37781   0.72418   0.00000  Uiso   1.00
C170   C     0.40496   0.12234   0.27605   0.00000  Uiso   1.00
C171   C     0.12347   0.09624   0.72247   0.00000  Uiso   1.00
C172   C     0.37616   0.40342   0.27797   0.00000  Uiso   1.00
C173   C     0.40376   0.37653   0.27753   0.00000  Uiso   1.00
C174   C     0.47353   0.26998   0.54185   0.00000  Uiso   1.00
C175   C     0.09658   0.12384   0.72203   0.00000  Uiso   1.00
C176   C     0.37781   0.09496   0.27582   0.00000  Uiso   1.00
C177   C     0.12234   0.40496   0.72395   0.00000  Uiso   1.00
C178   C     0.09624   0.12347   0.27753   0.00000  Uiso   1.00
C179   C     0.40342   0.37616   0.72203   0.00000  Uiso   1.00
C180   C     0.12219   0.40504   0.27582   0.00000  Uiso   1.00
C181   C     0.37766   0.09504   0.72395   0.00000  Uiso   1.00
C182   C     0.09803   0.34803   0.25000   0.00000  Uiso   1.00
C183   C     0.40193   0.15193   0.75000   0.00000  Uiso   1.00
C184   C     0.15196   0.09804   0.25000   0.00000  Uiso   1.00
H185   H     0.20378   0.03647   0.02627   0.00000  Uiso   1.00
H186   H     0.05807   0.25989   0.47457   0.00000  Uiso   1.00
H187   H     0.18514   0.44901   0.61607   0.00000  Uiso   1.00
H188   H     0.20949   0.36844   0.61044   0.00000  Uiso   1.00
H189   H     0.20413   0.39487   0.65428   0.00000  Uiso   1.00
H190   H     0.16472   0.38453   0.62466   0.00000  Uiso   1.00
H191   H     0.25364   0.08775   0.39272   0.00000  Uiso   1.00
H192   H     0.22210   0.09755   0.43201   0.00000  Uiso   1.00
H193   H     0.17434   0.11538   0.38492   0.00000  Uiso   1.00
H194   H     0.21571   0.14173   0.37796   0.00000  Uiso   1.00
H195   H     0.20489   0.10464   0.34536   0.00000  Uiso   1.00
H196   H     0.08775   0.25364   0.60728   0.00000  Uiso   1.00
H197   H     0.24011   0.44193   0.52544   0.00000  Uiso   1.00
H198   H     0.09755   0.22210   0.56799   0.00000  Uiso   1.00
H199   H     0.11538   0.17434   0.61508   0.00000  Uiso   1.00
H200   H     0.14173   0.21571   0.62204   0.00000  Uiso   1.00
H201   H     0.10464   0.20489   0.65465   0.00000  Uiso   1.00
H202   H     0.42252   0.18927   0.42821   0.00000  Uiso   1.00
H203   H     0.44901   0.18514   0.38393   0.00000  Uiso   1.00
H204   H     0.36844   0.20949   0.38956   0.00000  Uiso   1.00
H205   H     0.39487   0.20413   0.34572   0.00000  Uiso   1.00
H206   H     0.38453   0.16472   0.37534   0.00000  Uiso   1.00
H207   H     0.31073   0.07748   0.57179   0.00000  Uiso   1.00
H208   H     0.21353   0.04622   0.47373   0.00000  Uiso   1.00
H209   H     0.31486   0.05099   0.61607   0.00000  Uiso   1.00
H210   H     0.29051   0.13156   0.61044   0.00000  Uiso   1.00
H211   H     0.29587   0.10513   0.65428   0.00000  Uiso   1.00
H212   H     0.33528   0.11547   0.62466   0.00000  Uiso   1.00
H213   H     0.24636   0.41225   0.39272   0.00000  Uiso   1.00
H214   H     0.27790   0.40245   0.43201   0.00000  Uiso   1.00
H215   H     0.32566   0.38462   0.38492   0.00000  Uiso   1.00
H216   H     0.28429   0.35827   0.37796   0.00000  Uiso   1.00
H217   H     0.29511   0.39536   0.34536   0.00000  Uiso   1.00
H218   H     0.04622   0.21353   0.52627   0.00000  Uiso   1.00
H219   H     0.44193   0.24011   0.47457   0.00000  Uiso   1.00
H220   H     0.25989   0.05807   0.52544   0.00000  Uiso   1.00
H221   H     0.28647   0.45378   0.47373   0.00000  Uiso   1.00
H222   H     0.22045   0.39301   0.15896   0.00000  Uiso   1.00
H223   H     0.29803   0.13800   0.85925   0.00000  Uiso   1.00
H224   H     0.10364   0.21807   0.15669   0.00000  Uiso   1.00
H225   H     0.30807   0.00989   0.97457   0.00000  Uiso   1.00
H226   H     0.36885   0.30487   0.86472   0.00000  Uiso   1.00
H227   H     0.27955   0.10699   0.15896   0.00000  Uiso   1.00
H228   H     0.20197   0.36200   0.85925   0.00000  Uiso   1.00
H229   H     0.39636   0.28193   0.15669   0.00000  Uiso   1.00
H230   H     0.13115   0.19513   0.86472   0.00000  Uiso   1.00
H231   H     0.21807   0.10364   0.84331   0.00000  Uiso   1.00
H232   H     0.30487   0.36885   0.13528   0.00000  Uiso   1.00
H233   H     0.10699   0.27955   0.84104   0.00000  Uiso   1.00
H234   H     0.36200   0.20197   0.14075   0.00000  Uiso   1.00
H235   H     0.28193   0.39636   0.84331   0.00000  Uiso   1.00
H236   H     0.49011   0.19193   0.02544   0.00000  Uiso   1.00
H237   H     0.19513   0.13115   0.13528   0.00000  Uiso   1.00
H238   H     0.39301   0.22045   0.84104   0.00000  Uiso   1.00
H239   H     0.13800   0.29803   0.14075   0.00000  Uiso   1.00
H240   H     0.47045   0.14301   0.65896   0.00000  Uiso   1.00
H241   H     0.04803   0.38800   0.35925   0.00000  Uiso   1.00
H242   H     0.35364   0.46807   0.65669   0.00000  Uiso   1.00
H243   H     0.11885   0.05487   0.36472   0.00000  Uiso   1.00
H244   H     0.02955   0.35699   0.65896   0.00000  Uiso   1.00
H245   H     0.45197   0.11200   0.35925   0.00000  Uiso   1.00
H246   H     0.14636   0.03193   0.65669   0.00000  Uiso   1.00
H247   H     0.46353   0.29622   0.97373   0.00000  Uiso   1.00
H248   H     0.38115   0.44513   0.36472   0.00000  Uiso   1.00
H249   H     0.46807   0.35364   0.34331   0.00000  Uiso   1.00
H250   H     0.05487   0.11885   0.63528   0.00000  Uiso   1.00
H251   H     0.35699   0.02955   0.34104   0.00000  Uiso   1.00
H252   H     0.11200   0.45197   0.64075   0.00000  Uiso   1.00
H253   H     0.03193   0.14636   0.34331   0.00000  Uiso   1.00
H254   H     0.44513   0.38115   0.63528   0.00000  Uiso   1.00
H255   H     0.14301   0.47045   0.34104   0.00000  Uiso   1.00
H256   H     0.38800   0.04803   0.64075   0.00000  Uiso   1.00
H257   H     0.16225   0.49636   0.10728   0.00000  Uiso   1.00
H258   H     0.29622   0.46353   0.02627   0.00000  Uiso   1.00
H259   H     0.15245   0.02790   0.06799   0.00000  Uiso   1.00
H260   H     0.13462   0.07566   0.11508   0.00000  Uiso   1.00
H261   H     0.10827   0.03429   0.12204   0.00000  Uiso   1.00
H262   H     0.14536   0.04512   0.15465   0.00000  Uiso   1.00
H263   H     0.32748   0.06073   0.92821   0.00000  Uiso   1.00
H264   H     0.30099   0.06486   0.88393   0.00000  Uiso   1.00
H265   H     0.35513   0.04587   0.84572   0.00000  Uiso   1.00
H266   H     0.36546   0.08528   0.87534   0.00000  Uiso   1.00
H267   H     0.38156   0.04051   0.88956   0.00000  Uiso   1.00
H268   H     0.43927   0.17252   0.07179   0.00000  Uiso   1.00
H269   H     0.19193   0.49011   0.97457   0.00000  Uiso   1.00
H270   H     0.43514   0.19901   0.11607   0.00000  Uiso   1.00
H271   H     0.45949   0.11844   0.11044   0.00000  Uiso   1.00
H272   H     0.45413   0.14487   0.15428   0.00000  Uiso   1.00
H273   H     0.41472   0.13454   0.12466   0.00000  Uiso   1.00
H274   H     0.00364   0.33775   0.89272   0.00000  Uiso   1.00
H275   H     0.47210   0.34755   0.93201   0.00000  Uiso   1.00
H276   H     0.42434   0.36538   0.88492   0.00000  Uiso   1.00
H277   H     0.46571   0.39173   0.87796   0.00000  Uiso   1.00
H278   H     0.45489   0.35463   0.84536   0.00000  Uiso   1.00
H279   H     0.33775   0.00364   0.10728   0.00000  Uiso   1.00
H280   H     0.00989   0.30807   0.02544   0.00000  Uiso   1.00
H281   H     0.34755   0.47210   0.06799   0.00000  Uiso   1.00
H282   H     0.36538   0.42434   0.11508   0.00000  Uiso   1.00
H283   H     0.39173   0.46571   0.12204   0.00000  Uiso   1.00
H284   H     0.35464   0.45489   0.15465   0.00000  Uiso   1.00
H285   H     0.17252   0.43927   0.92821   0.00000  Uiso   1.00
H286   H     0.19901   0.43514   0.88393   0.00000  Uiso   1.00
H287   H     0.11844   0.45949   0.88956   0.00000  Uiso   1.00
H288   H     0.14487   0.45413   0.84572   0.00000  Uiso   1.00
H289   H     0.13453   0.41472   0.87534   0.00000  Uiso   1.00
H290   H     0.06073   0.32748   0.07179   0.00000  Uiso   1.00
H291   H     0.03647   0.20378   0.97373   0.00000  Uiso   1.00
H292   H     0.06486   0.30099   0.11607   0.00000  Uiso   1.00
H293   H     0.04051   0.38156   0.11044   0.00000  Uiso   1.00
H294   H     0.04587   0.35513   0.15428   0.00000  Uiso   1.00
H295   H     0.08528   0.36546   0.12466   0.00000  Uiso   1.00
H296   H     0.49636   0.16225   0.89272   0.00000  Uiso   1.00
H297   H     0.02790   0.15245   0.93201   0.00000  Uiso   1.00
H298   H     0.07566   0.13462   0.88492   0.00000  Uiso   1.00
H299   H     0.03429   0.10827   0.87796   0.00000  Uiso   1.00
H300   H     0.04512   0.14536   0.84536   0.00000  Uiso   1.00
H301   H     0.41225   0.24636   0.60728   0.00000  Uiso   1.00
H302   H     0.45378   0.28647   0.52627   0.00000  Uiso   1.00
H303   H     0.40245   0.27790   0.56799   0.00000  Uiso   1.00
H304   H     0.38462   0.32566   0.61508   0.00000  Uiso   1.00
H305   H     0.35827   0.28429   0.62204   0.00000  Uiso   1.00
H306   H     0.39536   0.29511   0.65465   0.00000  Uiso   1.00
H307   H     0.07748   0.31073   0.42821   0.00000  Uiso   1.00
H308   H     0.05099   0.31486   0.38393   0.00000  Uiso   1.00
H309   H     0.13156   0.29051   0.38956   0.00000  Uiso   1.00
H310   H     0.10513   0.29587   0.34572   0.00000  Uiso   1.00
H311   H     0.11546   0.33528   0.37534   0.00000  Uiso   1.00
H312   H     0.18927   0.42252   0.57179   0.00000  Uiso   1.00
O313   O     0.25000   0.00000   0.25000   0.00000  Uiso   1.00
O314   O     0.25000   0.46964   0.66317   0.00000  Uiso   1.00
O315   O     0.38201   0.42311   0.34690   0.00000  Uiso   1.00
O316   O     0.45216   0.40791   0.30792   0.00000  Uiso   1.00
O317   O     0.44613   0.34848   0.32620   0.00000  Uiso   1.00
O318   O     0.03547   0.12889   0.70063   0.00000  Uiso   1.00
O319   O     0.07689   0.11799   0.65310   0.00000  Uiso   1.00
O320   O     0.40950   0.04482   0.30240   0.00000  Uiso   1.00
O321   O     0.35142   0.05191   0.32472   0.00000  Uiso   1.00
O322   O     0.12621   0.46729   0.70641   0.00000  Uiso   1.00
O323   O     0.11228   0.42888   0.65702   0.00000  Uiso   1.00
O324   O     0.04784   0.09209   0.30792   0.00000  Uiso   1.00
O325   O     0.46964   0.25000   0.33683   0.00000  Uiso   1.00
O326   O     0.05387   0.15152   0.32620   0.00000  Uiso   1.00
O327   O     0.46453   0.37111   0.70063   0.00000  Uiso   1.00
O328   O     0.42311   0.38201   0.65311   0.00000  Uiso   1.00
O329   O     0.09050   0.45518   0.30240   0.00000  Uiso   1.00
O330   O     0.14858   0.44809   0.32472   0.00000  Uiso   1.00
O331   O     0.37379   0.03271   0.70641   0.00000  Uiso   1.00
O332   O     0.38772   0.07112   0.65702   0.00000  Uiso   1.00
O333   O     0.19781   0.04102   0.10200   0.00000  Uiso   1.00
O334   O     0.31580   0.01166   0.89982   0.00000  Uiso   1.00
O335   O     0.48834   0.18420   0.10018   0.00000  Uiso   1.00
O336   O     0.03036   0.25000   0.66317   0.00000  Uiso   1.00
O337   O     0.45898   0.30219   0.89800   0.00000  Uiso   1.00
O338   O     0.30219   0.45898   0.10200   0.00000  Uiso   1.00
O339   O     0.18420   0.48834   0.89982   0.00000  Uiso   1.00
O340   O     0.01166   0.31580   0.10018   0.00000  Uiso   1.00
O341   O     0.04102   0.19781   0.89800   0.00000  Uiso   1.00
O342   O     0.44781   0.29102   0.60200   0.00000  Uiso   1.00
O343   O     0.06580   0.26166   0.39982   0.00000  Uiso   1.00
O344   O     0.23834   0.43420   0.60018   0.00000  Uiso   1.00
O345   O     0.20898   0.05219   0.39800   0.00000  Uiso   1.00
O346   O     0.05219   0.20898   0.60200   0.00000  Uiso   1.00
O347   O     0.00000   0.21964   0.83683   0.00000  Uiso   1.00
O348   O     0.43420   0.23834   0.39982   0.00000  Uiso   1.00
O349   O     0.26166   0.06580   0.60018   0.00000  Uiso   1.00
O350   O     0.29102   0.44781   0.39800   0.00000  Uiso   1.00
O351   O     0.00000   0.28036   0.16317   0.00000  Uiso   1.00
O352   O     0.28036   0.00000   0.83683   0.00000  Uiso   1.00
O353   O     0.21964   0.00000   0.16317   0.00000  Uiso   1.00
O354   O     0.00000   0.28036   0.83683   0.00000  Uiso   1.00
O355   O     0.00000   0.21964   0.16317   0.00000  Uiso   1.00
O356   O     0.21964   0.00000   0.83683   0.00000  Uiso   1.00
O357   O     0.25000   0.00000   0.75000   0.00000  Uiso   1.00
O358   O     0.28036   0.00000   0.16317   0.00000  Uiso   1.00
O359   O     0.20725   0.07307   0.27282   0.00000  Uiso   1.00
O360   O     0.29274   0.42693   0.72718   0.00000  Uiso   1.00
O361   O     0.42693   0.20726   0.27282   0.00000  Uiso   1.00
O362   O     0.07307   0.29274   0.72718   0.00000  Uiso   1.00
O363   O     0.29274   0.42693   0.27282   0.00000  Uiso   1.00
O364   O     0.20725   0.07307   0.72718   0.00000  Uiso   1.00
O365   O     0.07307   0.29274   0.27282   0.00000  Uiso   1.00
O366   O     0.42693   0.20726   0.72718   0.00000  Uiso   1.00
O367   O     0.20725   0.42693   0.72718   0.00000  Uiso   1.00
O368   O     0.00000   0.25000   0.25000   0.00000  Uiso   1.00
O369   O     0.29274   0.07307   0.27282   0.00000  Uiso   1.00
O370   O     0.42693   0.29274   0.72718   0.00000  Uiso   1.00
O371   O     0.07307   0.20725   0.27282   0.00000  Uiso   1.00
O372   O     0.29274   0.07307   0.72718   0.00000  Uiso   1.00
O373   O     0.20725   0.42693   0.27282   0.00000  Uiso   1.00
O374   O     0.07307   0.20725   0.72718   0.00000  Uiso   1.00
O375   O     0.42693   0.29274   0.27282   0.00000  Uiso   1.00
O376   O     0.45725   0.32307   0.77282   0.00000  Uiso   1.00
O377   O     0.04274   0.17693   0.22718   0.00000  Uiso   1.00
O378   O     0.17693   0.45725   0.77282   0.00000  Uiso   1.00
O379   O     0.00000   0.25000   0.75000   0.00000  Uiso   1.00
O380   O     0.32307   0.04275   0.22718   0.00000  Uiso   1.00
O381   O     0.04274   0.17693   0.77282   0.00000  Uiso   1.00
O382   O     0.45725   0.32307   0.22718   0.00000  Uiso   1.00
O383   O     0.32307   0.04275   0.77282   0.00000  Uiso   1.00
O384   O     0.17693   0.45725   0.22718   0.00000  Uiso   1.00
O385   O     0.45725   0.17693   0.22718   0.00000  Uiso   1.00
O386   O     0.04274   0.32307   0.77282   0.00000  Uiso   1.00
O387   O     0.17693   0.04275   0.22718   0.00000  Uiso   1.00
O388   O     0.32307   0.45725   0.77282   0.00000  Uiso   1.00
O389   O     0.04274   0.32307   0.22718   0.00000  Uiso   1.00
O390   O     0.25000   0.46964   0.33683   0.00000  Uiso   1.00
O391   O     0.45725   0.17693   0.77282   0.00000  Uiso   1.00
O392   O     0.32307   0.45725   0.22718   0.00000  Uiso   1.00
O393   O     0.17693   0.04275   0.77282   0.00000  Uiso   1.00
O394   O     0.20518   0.34050   0.19760   0.00000  Uiso   1.00
O395   O     0.19809   0.39858   0.17528   0.00000  Uiso   1.00
O396   O     0.28271   0.12379   0.79360   0.00000  Uiso   1.00
O397   O     0.32112   0.13772   0.84298   0.00000  Uiso   1.00
O398   O     0.15791   0.20216   0.19208   0.00000  Uiso   1.00
O399   O     0.09848   0.19613   0.17381   0.00000  Uiso   1.00
O400   O     0.37889   0.28547   0.79937   0.00000  Uiso   1.00
O401   O     0.25000   0.03036   0.66317   0.00000  Uiso   1.00
O402   O     0.36799   0.32689   0.84690   0.00000  Uiso   1.00
O403   O     0.29482   0.15950   0.19760   0.00000  Uiso   1.00
O404   O     0.30191   0.10142   0.17528   0.00000  Uiso   1.00
O405   O     0.21729   0.37621   0.79360   0.00000  Uiso   1.00
O406   O     0.17888   0.36228   0.84298   0.00000  Uiso   1.00
O407   O     0.34209   0.29784   0.19208   0.00000  Uiso   1.00
O408   O     0.40152   0.30387   0.17381   0.00000  Uiso   1.00
O409   O     0.12111   0.21453   0.79937   0.00000  Uiso   1.00
O410   O     0.13201   0.17311   0.84690   0.00000  Uiso   1.00
O411   O     0.20216   0.15791   0.80792   0.00000  Uiso   1.00
O412   O     0.03036   0.25000   0.33683   0.00000  Uiso   1.00
O413   O     0.19613   0.09848   0.82620   0.00000  Uiso   1.00
O414   O     0.28547   0.37889   0.20063   0.00000  Uiso   1.00
O415   O     0.32689   0.36799   0.15311   0.00000  Uiso   1.00
O416   O     0.15950   0.29482   0.80240   0.00000  Uiso   1.00
O417   O     0.10142   0.30191   0.82472   0.00000  Uiso   1.00
O418   O     0.37621   0.21729   0.20641   0.00000  Uiso   1.00
O419   O     0.36228   0.17888   0.15702   0.00000  Uiso   1.00
O420   O     0.29784   0.34209   0.80792   0.00000  Uiso   1.00
O421   O     0.30387   0.40152   0.82620   0.00000  Uiso   1.00
O422   O     0.21453   0.12111   0.20063   0.00000  Uiso   1.00
O423   O     0.46964   0.25000   0.66317   0.00000  Uiso   1.00
O424   O     0.17311   0.13201   0.15310   0.00000  Uiso   1.00
O425   O     0.34050   0.20518   0.80240   0.00000  Uiso   1.00
O426   O     0.39858   0.19809   0.82472   0.00000  Uiso   1.00
O427   O     0.12379   0.28271   0.20641   0.00000  Uiso   1.00
O428   O     0.13772   0.32112   0.15702   0.00000  Uiso   1.00
O429   O     0.45518   0.09050   0.69760   0.00000  Uiso   1.00
O430   O     0.44809   0.14858   0.67528   0.00000  Uiso   1.00
O431   O     0.03271   0.37379   0.29360   0.00000  Uiso   1.00
O432   O     0.07112   0.38772   0.34298   0.00000  Uiso   1.00
O433   O     0.40791   0.45216   0.69208   0.00000  Uiso   1.00
O434   O     0.25000   0.03036   0.33683   0.00000  Uiso   1.00
O435   O     0.34848   0.44613   0.67381   0.00000  Uiso   1.00
O436   O     0.12889   0.03547   0.29937   0.00000  Uiso   1.00
O437   O     0.11799   0.07689   0.34690   0.00000  Uiso   1.00
O438   O     0.04482   0.40950   0.69760   0.00000  Uiso   1.00
O439   O     0.05191   0.35142   0.67528   0.00000  Uiso   1.00
O440   O     0.46729   0.12621   0.29360   0.00000  Uiso   1.00
O441   O     0.42888   0.11228   0.34298   0.00000  Uiso   1.00
O442   O     0.09209   0.04784   0.69208   0.00000  Uiso   1.00
O443   O     0.15152   0.05387   0.67381   0.00000  Uiso   1.00
O444   O     0.37111   0.46453   0.29937   0.00000  Uiso   1.00
Zn445  Zn    0.20660   0.00000   0.21760   0.00000  Uiso   1.00
Zn446  Zn    0.04340   0.25000   0.28240   0.00000  Uiso   1.00
Zn447  Zn    0.25000   0.45660   0.71760   0.00000  Uiso   1.00
Zn448  Zn    0.25000   0.04340   0.28240   0.00000  Uiso   1.00
Zn449  Zn    0.04340   0.25000   0.71760   0.00000  Uiso   1.00
Zn450  Zn    0.45660   0.25000   0.28240   0.00000  Uiso   1.00
Zn451  Zn    0.25000   0.04340   0.71760   0.00000  Uiso   1.00
Zn452  Zn    0.25000   0.45660   0.28240   0.00000  Uiso   1.00
Zn453  Zn    0.29340   0.00000   0.78240   0.00000  Uiso   1.00
Zn454  Zn    0.00000   0.20660   0.21760   0.00000  Uiso   1.00
Zn455  Zn    0.00000   0.29340   0.78240   0.00000  Uiso   1.00
Zn456  Zn    0.29340   0.00000   0.21760   0.00000  Uiso   1.00
Zn457  Zn    0.20660   0.00000   0.78240   0.00000  Uiso   1.00
Zn458  Zn    0.00000   0.29340   0.21760   0.00000  Uiso   1.00
Zn459  Zn    0.00000   0.20660   0.78240   0.00000  Uiso   1.00
Zn460  Zn    0.45660   0.25000   0.71760   0.00000  Uiso   1.00
C461   C     0.72353   0.01998   0.04185   0.00000  Uiso   1.00
C462   C     0.53266   0.25553   0.45906   0.00000  Uiso   1.00
C463   C     0.84805   0.40195   0.75000   0.00000  Uiso   1.00
C464   C     0.90197   0.15197   0.25000   0.00000  Uiso   1.00
C465   C     0.59807   0.34807   0.75000   0.00000  Uiso   1.00
C466   C     0.84804   0.40196   0.25000   0.00000  Uiso   1.00
C467   C     0.65195   0.09805   0.75000   0.00000  Uiso   1.00
C468   C     0.59804   0.15196   0.75000   0.00000  Uiso   1.00
C469   C     0.90195   0.34805   0.25000   0.00000  Uiso   1.00
C470   C     0.65197   0.40197   0.75000   0.00000  Uiso   1.00
C471   C     0.84807   0.09807   0.25000   0.00000  Uiso   1.00
C472   C     0.90196   0.34804   0.75000   0.00000  Uiso   1.00
C473   C     0.74446   0.46734   0.54094   0.00000  Uiso   1.00
C474   C     0.59805   0.15195   0.25000   0.00000  Uiso   1.00
C475   C     0.84803   0.09803   0.75000   0.00000  Uiso   1.00
C476   C     0.65193   0.40193   0.25000   0.00000  Uiso   1.00
C477   C     0.75000  -0.00000   0.10251   0.00000  Uiso   1.00
C478   C     0.75000  -0.00000   0.89807   0.00000  Uiso   1.00
C479   C     0.50000   0.25000   0.10193   0.00000  Uiso   1.00
C480   C     0.50000   0.25000   0.89749   0.00000  Uiso   1.00
C481   C     0.50000   0.25000   0.60251   0.00000  Uiso   1.00
C482   C     0.50000   0.25000   0.39807   0.00000  Uiso   1.00
C483   C     0.75000  -0.00000   0.60193   0.00000  Uiso   1.00
C484   C     0.73002   0.02647   0.45815   0.00000  Uiso   1.00
C485   C     0.75000   0.00000   0.39749   0.00000  Uiso   1.00
C486   C     0.68762   0.36901   0.19847   0.00000  Uiso   1.00
C487   C     0.81414   0.12944   0.80425   0.00000  Uiso   1.00
C488   C     0.62903   0.18545   0.19541   0.00000  Uiso   1.00
C489   C     0.87384   0.31749   0.80824   0.00000  Uiso   1.00
C490   C     0.81238   0.13099   0.19847   0.00000  Uiso   1.00
C491   C     0.68586   0.37056   0.80425   0.00000  Uiso   1.00
C492   C     0.87097   0.31455   0.19541   0.00000  Uiso   1.00
C493   C     0.62616   0.18251   0.80824   0.00000  Uiso   1.00
C494   C     0.68545   0.12903   0.80459   0.00000  Uiso   1.00
C495   C     0.52647   0.23002   0.54185   0.00000  Uiso   1.00
C496   C     0.81749   0.37384   0.19176   0.00000  Uiso   1.00
C497   C     0.63099   0.31238   0.80154   0.00000  Uiso   1.00
C498   C     0.87056   0.18586   0.19575   0.00000  Uiso   1.00
C499   C     0.81455   0.37097   0.80459   0.00000  Uiso   1.00
C500   C     0.68251   0.12616   0.19176   0.00000  Uiso   1.00
C501   C     0.86901   0.18762   0.80154   0.00000  Uiso   1.00
C502   C     0.62944   0.31414   0.19575   0.00000  Uiso   1.00
C503   C     0.93762   0.11901   0.69847   0.00000  Uiso   1.00
C504   C     0.56414   0.37944   0.30425   0.00000  Uiso   1.00
C505   C     0.87903   0.43545   0.69541   0.00000  Uiso   1.00
C506   C     0.96734   0.24447   0.45906   0.00000  Uiso   1.00
C507   C     0.62384   0.06749   0.30824   0.00000  Uiso   1.00
C508   C     0.56238   0.38099   0.69847   0.00000  Uiso   1.00
C509   C     0.93586   0.12056   0.30425   0.00000  Uiso   1.00
C510   C     0.62097   0.06455   0.69541   0.00000  Uiso   1.00
C511   C     0.87616   0.43251   0.30824   0.00000  Uiso   1.00
C512   C     0.93545   0.37903   0.30459   0.00000  Uiso   1.00
C513   C     0.56749   0.12384   0.69176   0.00000  Uiso   1.00
C514   C     0.88099   0.06238   0.30154   0.00000  Uiso   1.00
C515   C     0.62056   0.43586   0.69575   0.00000  Uiso   1.00
C516   C     0.56455   0.12097   0.30459   0.00000  Uiso   1.00
C517   C     0.75553   0.03266   0.54094   0.00000  Uiso   1.00
C518   C     0.93251   0.37616   0.69176   0.00000  Uiso   1.00
C519   C     0.61901   0.43762   0.30154   0.00000  Uiso   1.00
C520   C     0.87944   0.06414   0.69575   0.00000  Uiso   1.00
C521   C     0.66246   0.02568   0.09826   0.00000  Uiso   1.00
C522   C     0.63605   0.04652   0.12416   0.00000  Uiso   1.00
C523   C     0.82348   0.04956   0.89858   0.00000  Uiso   1.00
C524   C     0.85861   0.05566   0.87585   0.00000  Uiso   1.00
C525   C     0.95044   0.17652   0.10142   0.00000  Uiso   1.00
C526   C     0.94434   0.14139   0.12415   0.00000  Uiso   1.00
C527   C     0.97432   0.33754   0.90174   0.00000  Uiso   1.00
C528   C     0.76998   0.47353   0.45815   0.00000  Uiso   1.00
C529   C     0.95348   0.36395   0.87584   0.00000  Uiso   1.00
C530   C     0.83754   0.47432   0.09826   0.00000  Uiso   1.00
C531   C     0.86395   0.45348   0.12416   0.00000  Uiso   1.00
C532   C     0.67652   0.45044   0.89858   0.00000  Uiso   1.00
C533   C     0.64139   0.44434   0.87585   0.00000  Uiso   1.00
C534   C     0.54955   0.32348   0.10142   0.00000  Uiso   1.00
C535   C     0.55566   0.35861   0.12415   0.00000  Uiso   1.00
C536   C     0.52568   0.16246   0.90174   0.00000  Uiso   1.00
C537   C     0.54652   0.13605   0.87584   0.00000  Uiso   1.00
C538   C     0.91246   0.27568   0.59826   0.00000  Uiso   1.00
C539   C     0.72273   0.01945   0.08222   0.00000  Uiso   1.00
C540   C     0.88605   0.29652   0.62416   0.00000  Uiso   1.00
C541   C     0.57348   0.29956   0.39858   0.00000  Uiso   1.00
C542   C     0.60861   0.30566   0.37585   0.00000  Uiso   1.00
C543   C     0.70044   0.42652   0.60142   0.00000  Uiso   1.00
C544   C     0.69434   0.39139   0.62415   0.00000  Uiso   1.00
C545   C     0.72432   0.08754   0.40174   0.00000  Uiso   1.00
C546   C     0.70348   0.11395   0.37584   0.00000  Uiso   1.00
C547   C     0.58754   0.22432   0.59826   0.00000  Uiso   1.00
C548   C     0.61395   0.20348   0.62416   0.00000  Uiso   1.00
C549   C     0.92652   0.20044   0.39858   0.00000  Uiso   1.00
C550   C     0.78286   0.00645   0.91876   0.00000  Uiso   1.00
C551   C     0.89139   0.19434   0.37585   0.00000  Uiso   1.00
C552   C     0.79955   0.07348   0.60142   0.00000  Uiso   1.00
C553   C     0.80566   0.10861   0.62415   0.00000  Uiso   1.00
C554   C     0.77568   0.41246   0.40174   0.00000  Uiso   1.00
C555   C     0.79652   0.38605   0.37584   0.00000  Uiso   1.00
C556   C     0.99355   0.21714   0.08124   0.00000  Uiso   1.00
C557   C     0.78266   0.00554   0.95906   0.00000  Uiso   1.00
C558   C     0.98055   0.27727   0.91778   0.00000  Uiso   1.00
C559   C     0.77727   0.48055   0.08222   0.00000  Uiso   1.00
C560   C     0.71714   0.49355   0.91876   0.00000  Uiso   1.00
C561   C     0.50645   0.28286   0.08124   0.00000  Uiso   1.00
C562   C     0.51945   0.22273   0.91778   0.00000  Uiso   1.00
C563   C     0.97273   0.26945   0.58222   0.00000  Uiso   1.00
C564   C     0.53286   0.25645   0.41876   0.00000  Uiso   1.00
C565   C     0.74355   0.46714   0.58124   0.00000  Uiso   1.00
C566   C     0.73055   0.02727   0.41778   0.00000  Uiso   1.00
C567   C     0.52727   0.23055   0.58222   0.00000  Uiso   1.00
C568   C     0.99446   0.21734   0.04094   0.00000  Uiso   1.00
C569   C     0.96714   0.24355   0.41876   0.00000  Uiso   1.00
C570   C     0.75645   0.03286   0.58124   0.00000  Uiso   1.00
C571   C     0.76945   0.47273   0.41778   0.00000  Uiso   1.00
C572   C     0.75000  -0.00000   0.02164   0.00000  Uiso   1.00
C573   C     0.75000  -0.00000   0.97928   0.00000  Uiso   1.00
C574   C     0.50000   0.25000   0.02072   0.00000  Uiso   1.00
C575   C     0.50000   0.25000   0.97837   0.00000  Uiso   1.00
C576   C     0.50000   0.25000   0.52164   0.00000  Uiso   1.00
C577   C     0.50000   0.25000   0.47928   0.00000  Uiso   1.00
C578   C     0.75000  -0.00000   0.52072   0.00000  Uiso   1.00
C579   C     0.98002   0.27647   0.95815   0.00000  Uiso   1.00
C580   C     0.75000  -0.00000   0.47837   0.00000  Uiso   1.00
C581   C     0.75000   0.00000   0.35519   0.00000  Uiso   1.00
C582   C     0.75000  -0.00000   0.64460   0.00000  Uiso   1.00
C583   C     0.50000   0.25000   0.35540   0.00000  Uiso   1.00
C584   C     0.50000   0.25000   0.64481   0.00000  Uiso   1.00
C585   C     0.50000   0.25000   0.85519   0.00000  Uiso   1.00
C586   C     0.50000   0.25000   0.14460   0.00000  Uiso   1.00
C587   C     0.75000   0.00000   0.85540   0.00000  Uiso   1.00
C588   C     0.75000   0.00000   0.14481   0.00000  Uiso   1.00
C589   C     0.68004   0.06996   0.25000   0.00000  Uiso   1.00
C590   C     0.77647   0.48002   0.04185   0.00000  Uiso   1.00
C591   C     0.81996   0.43003   0.75000   0.00000  Uiso   1.00
C592   C     0.93005   0.18005   0.25000   0.00000  Uiso   1.00
C593   C     0.56996   0.31996   0.75000   0.00000  Uiso   1.00
C594   C     0.81996   0.43004   0.25000   0.00000  Uiso   1.00
C595   C     0.68004   0.06996   0.75000   0.00000  Uiso   1.00
C596   C     0.56995   0.31995   0.25000   0.00000  Uiso   1.00
C597   C     0.93003   0.18004   0.75000   0.00000  Uiso   1.00
C598   C     0.68005   0.43005   0.75000   0.00000  Uiso   1.00
C599   C     0.81996   0.06997   0.25000   0.00000  Uiso   1.00
C600   C     0.93004   0.31996   0.75000   0.00000  Uiso   1.00
C601   C     0.71734   0.49446   0.95906   0.00000  Uiso   1.00
C602   C     0.56996   0.18004   0.25000   0.00000  Uiso   1.00
C603   C     0.81995   0.06995   0.75000   0.00000  Uiso   1.00
C604   C     0.68003   0.43003   0.25000   0.00000  Uiso   1.00
C605   C     0.56996   0.18004   0.75000   0.00000  Uiso   1.00
C606   C     0.93003   0.31996   0.25000   0.00000  Uiso   1.00
C607   C     0.65504   0.37219   0.22418   0.00000  Uiso   1.00
C608   C     0.84504   0.12766   0.77605   0.00000  Uiso   1.00
C609   C     0.62653   0.15376   0.22247   0.00000  Uiso   1.00
C610   C     0.87384   0.34658   0.77797   0.00000  Uiso   1.00
C611   C     0.84496   0.12781   0.22418   0.00000  Uiso   1.00
C612   C     0.50553   0.28266   0.04094   0.00000  Uiso   1.00
C613   C     0.65496   0.37234   0.77605   0.00000  Uiso   1.00
C614   C     0.87347   0.34624   0.22247   0.00000  Uiso   1.00
C615   C     0.62616   0.15342   0.77797   0.00000  Uiso   1.00
C616   C     0.65376   0.12653   0.77753   0.00000  Uiso   1.00
C617   C     0.84658   0.37384   0.22203   0.00000  Uiso   1.00
C618   C     0.62781   0.34496   0.77582   0.00000  Uiso   1.00
C619   C     0.87234   0.15496   0.22395   0.00000  Uiso   1.00
C620   C     0.84624   0.37347   0.77753   0.00000  Uiso   1.00
C621   C     0.65342   0.12616   0.22203   0.00000  Uiso   1.00
C622   C     0.87219   0.15504   0.77582   0.00000  Uiso   1.00
C623   C     0.51998   0.22353   0.95815   0.00000  Uiso   1.00
C624   C     0.62766   0.34504   0.22395   0.00000  Uiso   1.00
C625   C     0.90504   0.12219   0.72418   0.00000  Uiso   1.00
C626   C     0.59504   0.37766   0.27605   0.00000  Uiso   1.00
C627   C     0.87653   0.40376   0.72247   0.00000  Uiso   1.00
C628   C     0.62384   0.09658   0.27797   0.00000  Uiso   1.00
C629   C     0.59496   0.37781   0.72418   0.00000  Uiso   1.00
C630   C     0.90496   0.12234   0.27605   0.00000  Uiso   1.00
C631   C     0.62347   0.09624   0.72247   0.00000  Uiso   1.00
C632   C     0.87616   0.40342   0.27797   0.00000  Uiso   1.00
C633   C     0.90376   0.37653   0.27753   0.00000  Uiso   1.00
C634   C     0.97353   0.26998   0.54185   0.00000  Uiso   1.00
C635   C     0.59658   0.12384   0.72203   0.00000  Uiso   1.00
C636   C     0.87781   0.09496   0.27582   0.00000  Uiso   1.00
C637   C     0.62234   0.40496   0.72395   0.00000  Uiso   1.00
C638   C     0.59624   0.12347   0.27753   0.00000  Uiso   1.00
C639   C     0.90342   0.37616   0.72203   0.00000  Uiso   1.00
C640   C     0.62219   0.40504   0.27582   0.00000  Uiso   1.00
C641   C     0.87766   0.09504   0.72395   0.00000  Uiso   1.00
C642   C     0.59803   0.34803   0.25000   0.00000  Uiso   1.00
C643   C     0.90193   0.15193   0.75000   0.00000  Uiso   1.00
C644   C     0.65196   0.09804   0.25000   0.00000  Uiso   1.00
H645   H     0.70378   0.03647   0.02627   0.00000  Uiso   1.00
H646   H     0.55807   0.25989   0.47457   0.00000  Uiso   1.00
H647   H     0.68514   0.44901   0.61607   0.00000  Uiso   1.00
H648   H     0.70949   0.36844   0.61044   0.00000  Uiso   1.00
H649   H     0.70413   0.39487   0.65428   0.00000  Uiso   1.00
H650   H     0.66472   0.38453   0.62466   0.00000  Uiso   1.00
H651   H     0.75364   0.08775   0.39272   0.00000  Uiso   1.00
H652   H     0.72210   0.09755   0.43201   0.00000  Uiso   1.00
H653   H     0.67434   0.11538   0.38492   0.00000  Uiso   1.00
H654   H     0.71571   0.14173   0.37796   0.00000  Uiso   1.00
H655   H     0.70489   0.10464   0.34536   0.00000  Uiso   1.00
H656   H     0.58775   0.25364   0.60728   0.00000  Uiso   1.00
H657   H     0.74011   0.44193   0.52544   0.00000  Uiso   1.00
H658   H     0.59755   0.22210   0.56799   0.00000  Uiso   1.00
H659   H     0.61538   0.17434   0.61508   0.00000  Uiso   1.00
H660   H     0.64173   0.21571   0.62204   0.00000  Uiso   1.00
H661   H     0.60464   0.20489   0.65465   0.00000  Uiso   1.00
H662   H     0.92252   0.18927   0.42821   0.00000  Uiso   1.00
H663   H     0.94901   0.18514   0.38393   0.00000  Uiso   1.00
H664   H     0.86844   0.20949   0.38956   0.00000  Uiso   1.00
H665   H     0.89487   0.20413   0.34572   0.00000  Uiso   1.00
H666   H     0.88453   0.16472   0.37534   0.00000  Uiso   1.00
H667   H     0.81073   0.07748   0.57179   0.00000  Uiso   1.00
H668   H     0.71353   0.04622   0.47373   0.00000  Uiso   1.00
H669   H     0.81486   0.05099   0.61607   0.00000  Uiso   1.00
H670   H     0.79051   0.13156   0.61044   0.00000  Uiso   1.00
H671   H     0.79587   0.10513   0.65428   0.00000  Uiso   1.00
H672   H     0.83528   0.11547   0.62466   0.00000  Uiso   1.00
H673   H     0.74636   0.41225   0.39272   0.00000  Uiso   1.00
H674   H     0.77790   0.40245   0.43201   0.00000  Uiso   1.00
H675   H     0.82566   0.38462   0.38492   0.00000  Uiso   1.00
H676   H     0.78429   0.35827   0.37796   0.00000  Uiso   1.00
H677   H     0.79511   0.39536   0.34536   0.00000  Uiso   1.00
H678   H     0.54622   0.21353   0.52627   0.00000  Uiso   1.00
H679   H     0.94193   0.24011   0.47457   0.00000  Uiso   1.00
H680   H     0.75989   0.05807   0.52544   0.00000  Uiso   1.00
H681   H     0.78647   0.45378   0.47373   0.00000  Uiso   1.00
H682   H     0.72045   0.39301   0.15896   0.00000  Uiso   1.00
H683   H     0.79803   0.13800   0.85925   0.00000  Uiso   1.00
H684   H     0.60364   0.21807   0.15669   0.00000  Uiso   1.00
H685   H     0.80807   0.00989   0.97457   0.00000  Uiso   1.00
H686   H     0.86885   0.30487   0.86472   0.00000  Uiso   1.00
H687   H     0.77955   0.10699   0.15896   0.00000  Uiso   1.00
H688   H     0.70197   0.36200   0.85925   0.00000  Uiso   1.00
H689   H     0.89636   0.28193   0.15669   0.00000  Uiso   1.00
H690   H     0.63115   0.19513   0.86472   0.00000  Uiso   1.00
H691   H     0.71807   0.10364   0.84331   0.00000  Uiso   1.00
H692   H     0.80487   0.36885   0.13528   0.00000  Uiso   1.00
H693   H     0.60699   0.27955   0.84104   0.00000  Uiso   1.00
H694   H     0.86200   0.20197   0.14075   0.00000  Uiso   1.00
H695   H     0.78193   0.39636   0.84331   0.00000  Uiso   1.00
H696   H     0.99011   0.19193   0.02544   0.00000  Uiso   1.00
H697   H     0.69513   0.13115   0.13528   0.00000  Uiso   1.00
H698   H     0.89301   0.22045   0.84104   0.00000  Uiso   1.00
H699   H     0.63800   0.29803   0.14075   0.00000  Uiso   1.00
H700   H     0.97045   0.14301   0.65896   0.00000  Uiso   1.00
H701   H     0.54803   0.38800   0.35925   0.00000  Uiso   1.00
H702   H     0.85364   0.46807   0.65669   0.00000  Uiso   1.00
H703   H     0.61885   0.05487   0.36472   0.00000  Uiso   1.00
H704   H     0.52955   0.35699   0.65896   0.00000  Uiso   1.00
H705   H     0.95197   0.11200   0.35925   0.00000  Uiso   1.00
H706   H     0.64636   0.03193   0.65669   0.00000  Uiso   1.00
H707   H     0.96353   0.29622   0.97373   0.00000  Uiso   1.00
H708   H     0.88115   0.44513   0.36472   0.00000  Uiso   1.00
H709   H     0.96807   0.35364   0.34331   0.00000  Uiso   1.00
H710   H     0.55487   0.11885   0.63528   0.00000  Uiso   1.00
H711   H     0.85699   0.02955   0.34104   0.00000  Uiso   1.00
H712   H     0.61200   0.45197   0.64075   0.00000  Uiso   1.00
H713   H     0.53193   0.14636   0.34331   0.00000  Uiso   1.00
H714   H     0.94513   0.38115   0.63528   0.00000  Uiso   1.00
H715   H     0.64301   0.47045   0.34104   0.00000  Uiso   1.00
H716   H     0.88800   0.04803   0.64075   0.00000  Uiso   1.00
H717   H     0.66225   0.49636   0.10728   0.00000  Uiso   1.00
H718   H     0.79622   0.46353   0.02627   0.00000  Uiso   1.00
H719   H     0.65245   0.02790   0.06799   0.00000  Uiso   1.00
H720   H     0.63462   0.07566   0.11508   0.00000  Uiso   1.00
H721   H     0.60827   0.03429   0.12204   0.00000  Uiso   1.00
H722   H     0.64536   0.04512   0.15465   0.00000  Uiso   1.00
H723   H     0.82748   0.06073   0.92821   0.00000  Uiso   1.00
H724   H     0.80099   0.06486   0.88393   0.00000  Uiso   1.00
H725   H     0.85513   0.04587   0.84572   0.00000  Uiso   1.00
H726   H     0.86546   0.08528   0.87534   0.00000  Uiso   1.00
H727   H     0.88156   0.04051   0.88956   0.00000  Uiso   1.00
H728   H     0.93927   0.17252   0.07179   0.00000  Uiso   1.00
H729   H     0.69193   0.49011   0.97457   0.00000  Uiso   1.00
H730   H     0.93514   0.19901   0.11607   0.00000  Uiso   1.00
H731   H     0.95949   0.11844   0.11044   0.00000  Uiso   1.00
H732   H     0.95413   0.14487   0.15428   0.00000  Uiso   1.00
H733   H     0.91472   0.13454   0.12466   0.00000  Uiso   1.00
H734   H     0.50364   0.33775   0.89272   0.00000  Uiso   1.00
H735   H     0.97210   0.34755   0.93201   0.00000  Uiso   1.00
H736   H     0.92434   0.36538   0.88492   0.00000  Uiso   1.00
H737   H     0.96571   0.39173   0.87796   0.00000  Uiso   1.00
H738   H     0.95489   0.35463   0.84536   0.00000  Uiso   1.00
H739   H     0.83775   0.00364   0.10728   0.00000  Uiso   1.00
H740   H     0.50989   0.30807   0.02544   0.00000  Uiso   1.00
H741   H     0.84755   0.47210   0.06799   0.00000  Uiso   1.00
H742   H     0.86538   0.42434   0.11508   0.00000  Uiso   1.00
H743   H     0.89173   0.46571   0.12204   0.00000  Uiso   1.00
H744   H     0.85464   0.45489   0.15465   0.00000  Uiso   1.00
H745   H     0.67252   0.43927   0.92821   0.00000  Uiso   1.00
H746   H     0.69901   0.43514   0.88393   0.00000  Uiso   1.00
H747   H     0.61844   0.45949   0.88956   0.00000  Uiso   1.00
H748   H     0.64487   0.45413   0.84572   0.00000  Uiso   1.00
H749   H     0.63453   0.41472   0.87534   0.00000  Uiso   1.00
H750   H     0.56073   0.32748   0.07179   0.00000  Uiso   1.00
H751   H     0.53647   0.20378   0.97373   0.00000  Uiso   1.00
H752   H     0.56486   0.30099   0.11607   0.00000  Uiso   1.00
H753   H     0.54051   0.38156   0.11044   0.00000  Uiso   1.00
H754   H     0.54587   0.35513   0.15428   0.00000  Uiso   1.00
H755   H     0.58528   0.36546   0.12466   0.00000  Uiso   1.00
H756   H     0.99636   0.16225   0.89272   0.00000  Uiso   1.00
H757   H     0.52790   0.15245   0.93201   0.00000  Uiso   1.00
H758   H     0.57566   0.13462   0.88492   0.00000  Uiso   1.00
H759   H     0.53429   0.10827   0.87796   0.00000  Uiso   1.00
H760   H     0.54512   0.14536   0.84536   0.00000  Uiso   1.00
H761   H     0.91225   0.24636   0.60728   0.00000  Uiso   1.00
H762   H     0.95378   0.28647   0.52627   0.00000  Uiso   1.00
H763   H     0.90245   0.27790   0.56799   0.00000  Uiso   1.00
H764   H     0.88462   0.32566   0.61508   0.00000  Uiso   1.00
H765   H     0.85827   0.28429   0.62204   0.00000  Uiso   1.00
H766   H     0.89536   0.29511   0.65465   0.00000  Uiso   1.00
H767   H     0.57748   0.31073   0.42821   0.00000  Uiso   1.00
H768   H     0.55099   0.31486   0.38393   0.00000  Uiso   1.00
H769   H     0.63156   0.29051   0.38956   0.00000  Uiso   1.00
H770   H     0.60513   0.29587   0.34572   0.00000  Uiso   1.00
H771   H     0.61546   0.33528   0.37534   0.00000  Uiso   1.00
H772   H     0.68927   0.42252   0.57179   0.00000  Uiso   1.00
O773   O     0.75000   0.00000   0.25000   0.00000  Uiso   1.00
O774   O     0.75000   0.46964   0.66317   0.00000  Uiso   1.00
O775   O     0.88201   0.42311   0.34690   0.00000  Uiso   1.00
O776   O     0.95216   0.40791   0.30792   0.00000  Uiso   1.00
O777   O     0.94613   0.34848   0.32620   0.00000  Uiso   1.00
O778   O     0.53547   0.12889   0.70063   0.00000  Uiso   1.00
O779   O     0.57689   0.11799   0.65310   0.00000  Uiso   1.00
O780   O     0.90950   0.04482   0.30240   0.00000  Uiso   1.00
O781   O     0.85142   0.05191   0.32472   0.00000  Uiso   1.00
O782   O     0.62621   0.46729   0.70641   0.00000  Uiso   1.00
O783   O     0.61228   0.42888   0.65702   0.00000  Uiso   1.00
O784   O     0.54784   0.09209   0.30792   0.00000  Uiso   1.00
O785   O     0.96964   0.25000   0.33683   0.00000  Uiso   1.00
O786   O     0.55387   0.15152   0.32620   0.00000  Uiso   1.00
O787   O     0.96453   0.37111   0.70063   0.00000  Uiso   1.00
O788   O     0.92311   0.38201   0.65311   0.00000  Uiso   1.00
O789   O     0.59050   0.45518   0.30240   0.00000  Uiso   1.00
O790   O     0.64858   0.44809   0.32472   0.00000  Uiso   1.00
O791   O     0.87379   0.03271   0.70641   0.00000  Uiso   1.00
O792   O     0.88772   0.07112   0.65702   0.00000  Uiso   1.00
O793   O     0.69781   0.04102   0.10200   0.00000  Uiso   1.00
O794   O     0.81580   0.01166   0.89982   0.00000  Uiso   1.00
O795   O     0.98834   0.18420   0.10018   0.00000  Uiso   1.00
O796   O     0.53036   0.25000   0.66317   0.00000  Uiso   1.00
O797   O     0.95898   0.30219   0.89800   0.00000  Uiso   1.00
O798   O     0.80219   0.45898   0.10200   0.00000  Uiso   1.00
O799   O     0.68420   0.48834   0.89982   0.00000  Uiso   1.00
O800   O     0.51166   0.31580   0.10018   0.00000  Uiso   1.00
O801   O     0.54102   0.19781   0.89800   0.00000  Uiso   1.00
O802   O     0.94781   0.29102   0.60200   0.00000  Uiso   1.00
O803   O     0.56580   0.26166   0.39982   0.00000  Uiso   1.00
O804   O     0.73834   0.43420   0.60018   0.00000  Uiso   1.00
O805   O     0.70898   0.05219   0.39800   0.00000  Uiso   1.00
O806   O     0.55219   0.20898   0.60200   0.00000  Uiso   1.00
O807   O     0.50000   0.21964   0.83683   0.00000  Uiso   1.00
O808   O     0.93420   0.23834   0.39982   0.00000  Uiso   1.00
O809   O     0.76166   0.06580   0.60018   0.00000  Uiso   1.00
O810   O     0.79102   0.44781   0.39800   0.00000  Uiso   1.00
O811   O     0.50000   0.28036   0.16317   0.00000  Uiso   1.00
O812   O     0.78036   0.00000   0.83683   0.00000  Uiso   1.00
O813   O     0.71964   0.00000   0.16317   0.00000  Uiso   1.00
O814   O     0.50000   0.28036   0.83683   0.00000  Uiso   1.00
O815   O     0.50000   0.21964   0.16317   0.00000  Uiso   1.00
O816   O     0.71964   0.00000   0.83683   0.00000  Uiso   1.00
O817   O     0.75000   0.00000   0.75000   0.00000  Uiso   1.00
O818   O     0.78036   0.00000   0.16317   0.00000  Uiso   1.00
O819   O     0.70725   0.07307   0.27282   0.00000  Uiso   1.00
O820   O     0.79274   0.42693   0.72718   0.00000  Uiso   1.00
O821   O     0.92693   0.20726   0.27282   0.00000  Uiso   1.00
O822   O     0.57307   0.29274   0.72718   0.00000  Uiso   1.00
O823   O     0.79274   0.42693   0.27282   0.00000  Uiso   1.00
O824   O     0.70725   0.07307   0.72718   0.00000  Uiso   1.00
O825   O     0.57307   0.29274   0.27282   0.00000  Uiso   1.00
O826   O     0.92693   0.20726   0.72718   0.00000  Uiso   1.00
O827   O     0.70725   0.42693   0.72718   0.00000  Uiso   1.00
O828   O     0.50000   0.25000   0.25000   0.00000  Uiso   1.00
O829   O     0.79274   0.07307   0.27282   0.00000  Uiso   1.00
O830   O     0.92693   0.29274   0.72718   0.00000  Uiso   1.00
O831   O     0.57307   0.20725   0.27282   0.00000  Uiso   1.00
O832   O     0.79274   0.07307   0.72718   0.00000  Uiso   1.00
O833   O     0.70725   0.42693   0.27282   0.00000  Uiso   1.00
O834   O     0.57307   0.20725   0.72718   0.00000  Uiso   1.00
O835   O     0.92693   0.29274   0.27282   0.00000  Uiso   1.00
O836   O     0.95725   0.32307   0.77282   0.00000  Uiso   1.00
O837   O     0.54274   0.17693   0.22718   0.00000  Uiso   1.00
O838   O     0.67693   0.45725   0.77282   0.00000  Uiso   1.00
O839   O     0.50000   0.25000   0.75000   0.00000  Uiso   1.00
O840   O     0.82307   0.04275   0.22718   0.00000  Uiso   1.00
O841   O     0.54274   0.17693   0.77282   0.00000  Uiso   1.00
O842   O     0.95725   0.32307   0.22718   0.00000  Uiso   1.00
O843   O     0.82307   0.04275   0.77282   0.00000  Uiso   1.00
O844   O     0.67693   0.45725   0.22718   0.00000  Uiso   1.00
O845   O     0.95725   0.17693   0.22718   0.00000  Uiso   1.00
O846   O     0.54274   0.32307   0.77282   0.00000  Uiso   1.00
O847   O     0.67693   0.04275   0.22718   0.00000  Uiso   1.00
O848   O     0.82307   0.45725   0.77282   0.00000  Uiso   1.00
O849   O     0.54274   0.32307   0.22718   0.00000  Uiso   1.00
O850   O     0.75000   0.46964   0.33683   0.00000  Uiso   1.00
O851   O     0.95725   0.17693   0.77282   0.00000  Uiso   1.00
O852   O     0.82307   0.45725   0.22718   0.00000  Uiso   1.00
O853   O     0.67693   0.04275   0.77282   0.00000  Uiso   1.00
O854   O     0.70518   0.34050   0.19760   0.00000  Uiso   1.00
O855   O     0.69809   0.39858   0.17528   0.00000  Uiso   1.00
O856   O     0.78271   0.12379   0.79360   0.00000  Uiso   1.00
O857   O     0.82112   0.13772   0.84298   0.00000  Uiso   1.00
O858   O     0.65791   0.20216   0.19208   0.00000  Uiso   1.00
O859   O     0.59848   0.19613   0.17381   0.00000  Uiso   1.00
O860   O     0.87889   0.28547   0.79937   0.00000  Uiso   1.00
O861   O     0.75000   0.03036   0.66317   0.00000  Uiso   1.00
O862   O     0.86799   0.32689   0.84690   0.00000  Uiso   1.00
O863   O     0.79482   0.15950   0.19760   0.00000  Uiso   1.00
O864   O     0.80191   0.10142   0.17528   0.00000  Uiso   1.00
O865   O     0.71729   0.37621   0.79360   0.00000  Uiso   1.00
O866   O     0.67888   0.36228   0.84298   0.00000  Uiso   1.00
O867   O     0.84209   0.29784   0.19208   0.00000  Uiso   1.00
O868   O     0.90152   0.30387   0.17381   0.00000  Uiso   1.00
O869   O     0.62111   0.21453   0.79937   0.00000  Uiso   1.00
O870   O     0.63201   0.17311   0.84690   0.00000  Uiso   1.00
O871   O     0.70216   0.15791   0.80792   0.00000  Uiso   1.00
O872   O     0.53036   0.25000   0.33683   0.00000  Uiso   1.00
O873   O     0.69613   0.09848   0.82620   0.00000  Uiso   1.00
O874   O     0.78547   0.37889   0.20063   0.00000  Uiso   1.00
O875   O     0.82689   0.36799   0.15311   0.00000  Uiso   1.00
O876   O     0.65950   0.29482   0.80240   0.00000  Uiso   1.00
O877   O     0.60142   0.30191   0.82472   0.00000  Uiso   1.00
O878   O     0.87621   0.21729   0.20641   0.00000  Uiso   1.00
O879   O     0.86228   0.17888   0.15702   0.00000  Uiso   1.00
O880   O     0.79784   0.34209   0.80792   0.00000  Uiso   1.00
O881   O     0.80387   0.40152   0.82620   0.00000  Uiso   1.00
O882   O     0.71453   0.12111   0.20063   0.00000  Uiso   1.00
O883   O     0.96964   0.25000   0.66317   0.00000  Uiso   1.00
O884   O     0.67311   0.13201   0.15310   0.00000  Uiso   1.00
O885   O     0.84050   0.20518   0.80240   0.00000  Uiso   1.00
O886   O     0.89858   0.19809   0.82472   0.00000  Uiso   1.00
O887   O     0.62379   0.28271   0.20641   0.00000  Uiso   1.00
O888   O     0.63772   0.32112   0.15702   0.00000  Uiso   1.00
O889   O     0.95518   0.09050   0.69760   0.00000  Uiso   1.00
O890   O     0.94809   0.14858   0.67528   0.00000  Uiso   1.00
O891   O     0.53271   0.37379   0.29360   0.00000  Uiso   1.00
O892   O     0.57112   0.38772   0.34298   0.00000  Uiso   1.00
O893   O     0.90791   0.45216   0.69208   0.00000  Uiso   1.00
O894   O     0.75000   0.03036   0.33683   0.00000  Uiso   1.00
O895   O     0.84848   0.44613   0.67381   0.00000  Uiso   1.00
O896   O     0.62889   0.03547   0.29937   0.00000  Uiso   1.00
O897   O     0.61799   0.07689   0.34690   0.00000  Uiso   1.00
O898   O     0.54482   0.40950   0.69760   0.00000  Uiso   1.00
O899   O     0.55191   0.35142   0.67528   0.00000  Uiso   1.00
O900   O     0.96729   0.12621   0.29360   0.00000  Uiso   1.00
O901   O     0.92888   0.11228   0.34298   0.00000  Uiso   1.00
O902   O     0.59209   0.04784   0.69208   0.00000  Uiso   1.00
O903   O     0.65152   0.05387   0.67381   0.00000  Uiso   1.00
O904   O     0.87111   0.46453   0.29937   0.00000  Uiso   1.00
Zn905  Zn    0.70660   0.00000   0.21760   0.00000  Uiso   1.00
Zn906  Zn    0.54340   0.25000   0.28240   0.00000  Uiso   1.00
Zn907  Zn    0.75000   0.45660   0.71760   0.00000  Uiso   1.00
Zn908  Zn    0.75000   0.04340   0.28240   0.00000  Uiso   1.00
Zn909  Zn    0.54340   0.25000   0.71760   0.00000  Uiso   1.00
Zn910  Zn    0.95660   0.25000   0.28240   0.00000  Uiso   1.00
Zn911  Zn    0.75000   0.04340   0.71760   0.00000  Uiso   1.00
Zn912  Zn    0.75000   0.45660   0.28240   0.00000  Uiso   1.00
Zn913  Zn    0.79340   0.00000   0.78240   0.00000  Uiso   1.00
Zn914  Zn    0.50000   0.20660   0.21760   0.00000  Uiso   1.00
Zn915  Zn    0.50000   0.29340   0.78240   0.00000  Uiso   1.00
Zn916  Zn    0.79340   0.00000   0.21760   0.00000  Uiso   1.00
Zn917  Zn    0.70660   0.00000   0.78240   0.00000  Uiso   1.00
Zn918  Zn    0.50000   0.29340   0.21760   0.00000  Uiso   1.00
Zn919  Zn    0.50000   0.20660   0.78240   0.00000  Uiso   1.00
Zn920  Zn    0.95660   0.25000   0.71760   0.00000  Uiso   1.00
C921   C     0.22353   0.51998   0.04185   0.00000  Uiso   1.00
C922   C     0.03266   0.75553   0.45906   0.00000  Uiso   1.00
C923   C     0.34805   0.90195   0.75000   0.00000  Uiso   1.00
C924   C     0.40197   0.65197   0.25000   0.00000  Uiso   1.00
C925   C     0.09807   0.84807   0.75000   0.00000  Uiso   1.00
C926   C     0.34804   0.90196   0.25000   0.00000  Uiso   1.00
C927   C     0.15195   0.59805   0.75000   0.00000  Uiso   1.00
C928   C     0.09804   0.65196   0.75000   0.00000  Uiso   1.00
C929   C     0.40195   0.84805   0.25000   0.00000  Uiso   1.00
C930   C     0.15197   0.90197   0.75000   0.00000  Uiso   1.00
C931   C     0.34807   0.59807   0.25000   0.00000  Uiso   1.00
C932   C     0.40196   0.84804   0.75000   0.00000  Uiso   1.00
C933   C     0.24446   0.96734   0.54094   0.00000  Uiso   1.00
C934   C     0.09805   0.65195   0.25000   0.00000  Uiso   1.00
C935   C     0.34803   0.59803   0.75000   0.00000  Uiso   1.00
C936   C     0.15193   0.90193   0.25000   0.00000  Uiso   1.00
C937   C     0.25000   0.50000   0.10251   0.00000  Uiso   1.00
C938   C     0.25000   0.50000   0.89807   0.00000  Uiso   1.00
C939   C    -0.00000   0.75000   0.10193   0.00000  Uiso   1.00
C940   C    -0.00000   0.75000   0.89749   0.00000  Uiso   1.00
C941   C     0.00000   0.75000   0.60251   0.00000  Uiso   1.00
C942   C    -0.00000   0.75000   0.39807   0.00000  Uiso   1.00
C943   C     0.25000   0.50000   0.60193   0.00000  Uiso   1.00
C944   C     0.23002   0.52647   0.45815   0.00000  Uiso   1.00
C945   C     0.25000   0.50000   0.39749   0.00000  Uiso   1.00
C946   C     0.18762   0.86901   0.19847   0.00000  Uiso   1.00
C947   C     0.31414   0.62944   0.80425   0.00000  Uiso   1.00
C948   C     0.12903   0.68545   0.19541   0.00000  Uiso   1.00
C949   C     0.37384   0.81749   0.80824   0.00000  Uiso   1.00
C950   C     0.31238   0.63099   0.19847   0.00000  Uiso   1.00
C951   C     0.18586   0.87056   0.80425   0.00000  Uiso   1.00
C952   C     0.37097   0.81455   0.19541   0.00000  Uiso   1.00
C953   C     0.12616   0.68251   0.80824   0.00000  Uiso   1.00
C954   C     0.18545   0.62903   0.80459   0.00000  Uiso   1.00
C955   C     0.02647   0.73002   0.54185   0.00000  Uiso   1.00
C956   C     0.31749   0.87384   0.19176   0.00000  Uiso   1.00
C957   C     0.13099   0.81238   0.80154   0.00000  Uiso   1.00
C958   C     0.37056   0.68586   0.19575   0.00000  Uiso   1.00
C959   C     0.31455   0.87097   0.80459   0.00000  Uiso   1.00
C960   C     0.18251   0.62616   0.19176   0.00000  Uiso   1.00
C961   C     0.36901   0.68762   0.80154   0.00000  Uiso   1.00
C962   C     0.12944   0.81414   0.19575   0.00000  Uiso   1.00
C963   C     0.43762   0.61901   0.69847   0.00000  Uiso   1.00
C964   C     0.06414   0.87944   0.30425   0.00000  Uiso   1.00
C965   C     0.37903   0.93545   0.69541   0.00000  Uiso   1.00
C966   C     0.46734   0.74447   0.45906   0.00000  Uiso   1.00
C967   C     0.12384   0.56749   0.30824   0.00000  Uiso   1.00
C968   C     0.06238   0.88099   0.69847   0.00000  Uiso   1.00
C969   C     0.43586   0.62056   0.30425   0.00000  Uiso   1.00
C970   C     0.12097   0.56455   0.69541   0.00000  Uiso   1.00
C971   C     0.37616   0.93251   0.30824   0.00000  Uiso   1.00
C972   C     0.43545   0.87903   0.30459   0.00000  Uiso   1.00
C973   C     0.06749   0.62384   0.69176   0.00000  Uiso   1.00
C974   C     0.38099   0.56238   0.30154   0.00000  Uiso   1.00
C975   C     0.12056   0.93586   0.69575   0.00000  Uiso   1.00
C976   C     0.06455   0.62097   0.30459   0.00000  Uiso   1.00
C977   C     0.25553   0.53266   0.54094   0.00000  Uiso   1.00
C978   C     0.43251   0.87616   0.69176   0.00000  Uiso   1.00
C979   C     0.11901   0.93762   0.30154   0.00000  Uiso   1.00
C980   C     0.37944   0.56414   0.69575   0.00000  Uiso   1.00
C981   C     0.16246   0.52568   0.09826   0.00000  Uiso   1.00
C982   C     0.13605   0.54652   0.12416   0.00000  Uiso   1.00
C983   C     0.32348   0.54956   0.89858   0.00000  Uiso   1.00
C984   C     0.35861   0.55566   0.87585   0.00000  Uiso   1.00
C985   C     0.45044   0.67652   0.10142   0.00000  Uiso   1.00
C986   C     0.44434   0.64139   0.12415   0.00000  Uiso   1.00
C987   C     0.47432   0.83754   0.90174   0.00000  Uiso   1.00
C988   C     0.26998   0.97353   0.45815   0.00000  Uiso   1.00
C989   C     0.45348   0.86395   0.87584   0.00000  Uiso   1.00
C990   C     0.33754   0.97432   0.09826   0.00000  Uiso   1.00
C991   C     0.36395   0.95348   0.12416   0.00000  Uiso   1.00
C992   C     0.17652   0.95044   0.89858   0.00000  Uiso   1.00
C993   C     0.14139   0.94434   0.87585   0.00000  Uiso   1.00
C994   C     0.04955   0.82348   0.10142   0.00000  Uiso   1.00
C995   C     0.05566   0.85861   0.12415   0.00000  Uiso   1.00
C996   C     0.02568   0.66246   0.90174   0.00000  Uiso   1.00
C997   C     0.04652   0.63605   0.87584   0.00000  Uiso   1.00
C998   C     0.41246   0.77568   0.59826   0.00000  Uiso   1.00
C999   C     0.22273   0.51945   0.08222   0.00000  Uiso   1.00
C1000  C     0.38605   0.79652   0.62416   0.00000  Uiso   1.00
C1001  C     0.07348   0.79956   0.39858   0.00000  Uiso   1.00
C1002  C     0.10861   0.80566   0.37585   0.00000  Uiso   1.00
C1003  C     0.20044   0.92652   0.60142   0.00000  Uiso   1.00
C1004  C     0.19434   0.89139   0.62415   0.00000  Uiso   1.00
C1005  C     0.22432   0.58754   0.40174   0.00000  Uiso   1.00
C1006  C     0.20348   0.61395   0.37584   0.00000  Uiso   1.00
C1007  C     0.08754   0.72432   0.59826   0.00000  Uiso   1.00
C1008  C     0.11395   0.70348   0.62416   0.00000  Uiso   1.00
C1009  C     0.42652   0.70044   0.39858   0.00000  Uiso   1.00
C1010  C     0.28286   0.50645   0.91876   0.00000  Uiso   1.00
C1011  C     0.39139   0.69434   0.37585   0.00000  Uiso   1.00
C1012  C     0.29955   0.57348   0.60142   0.00000  Uiso   1.00
C1013  C     0.30566   0.60861   0.62415   0.00000  Uiso   1.00
C1014  C     0.27568   0.91246   0.40174   0.00000  Uiso   1.00
C1015  C     0.29652   0.88605   0.37584   0.00000  Uiso   1.00
C1016  C     0.49355   0.71714   0.08124   0.00000  Uiso   1.00
C1017  C     0.28266   0.50554   0.95906   0.00000  Uiso   1.00
C1018  C     0.48055   0.77727   0.91778   0.00000  Uiso   1.00
C1019  C     0.27727   0.98055   0.08222   0.00000  Uiso   1.00
C1020  C     0.21714   0.99355   0.91876   0.00000  Uiso   1.00
C1021  C     0.00645   0.78286   0.08124   0.00000  Uiso   1.00
C1022  C     0.01945   0.72273   0.91778   0.00000  Uiso   1.00
C1023  C     0.47273   0.76945   0.58222   0.00000  Uiso   1.00
C1024  C     0.03286   0.75645   0.41876   0.00000  Uiso   1.00
C1025  C     0.24355   0.96714   0.58124   0.00000  Uiso   1.00
C1026  C     0.23055   0.52727   0.41778   0.00000  Uiso   1.00
C1027  C     0.02727   0.73055   0.58222   0.00000  Uiso   1.00
C1028  C     0.49446   0.71734   0.04094   0.00000  Uiso   1.00
C1029  C     0.46714   0.74355   0.41876   0.00000  Uiso   1.00
C1030  C     0.25645   0.53286   0.58124   0.00000  Uiso   1.00
C1031  C     0.26945   0.97273   0.41778   0.00000  Uiso   1.00
C1032  C     0.25000   0.50000   0.02164   0.00000  Uiso   1.00
C1033  C     0.25000   0.50000   0.97928   0.00000  Uiso   1.00
C1034  C    -0.00000   0.75000   0.02072   0.00000  Uiso   1.00
C1035  C    -0.00000   0.75000   0.97837   0.00000  Uiso   1.00
C1036  C     0.00000   0.75000   0.52164   0.00000  Uiso   1.00
C1037  C     0.00000   0.75000   0.47928   0.00000  Uiso   1.00
C1038  C     0.25000   0.50000   0.52072   0.00000  Uiso   1.00
C1039  C     0.48002   0.77647   0.95815   0.00000  Uiso   1.00
C1040  C     0.25000   0.50000   0.47837   0.00000  Uiso   1.00
C1041  C     0.25000   0.50000   0.35519   0.00000  Uiso   1.00
C1042  C     0.25000   0.50000   0.64460   0.00000  Uiso   1.00
C1043  C    -0.00000   0.75000   0.35540   0.00000  Uiso   1.00
C1044  C     0.00000   0.75000   0.64481   0.00000  Uiso   1.00
C1045  C     0.00000   0.75000   0.85519   0.00000  Uiso   1.00
C1046  C    -0.00000   0.75000   0.14460   0.00000  Uiso   1.00
C1047  C     0.25000   0.50000   0.85540   0.00000  Uiso   1.00
C1048  C     0.25000   0.50000   0.14481   0.00000  Uiso   1.00
C1049  C     0.18004   0.56996   0.25000   0.00000  Uiso   1.00
C1050  C     0.27647   0.98002   0.04185   0.00000  Uiso   1.00
C1051  C     0.31996   0.93003   0.75000   0.00000  Uiso   1.00
C1052  C     0.43005   0.68005   0.25000   0.00000  Uiso   1.00
C1053  C     0.06996   0.81996   0.75000   0.00000  Uiso   1.00
C1054  C     0.31996   0.93004   0.25000   0.00000  Uiso   1.00
C1055  C     0.18004   0.56996   0.75000   0.00000  Uiso   1.00
C1056  C     0.06995   0.81995   0.25000   0.00000  Uiso   1.00
C1057  C     0.43003   0.68004   0.75000   0.00000  Uiso   1.00
C1058  C     0.18005   0.93005   0.75000   0.00000  Uiso   1.00
C1059  C     0.31996   0.56997   0.25000   0.00000  Uiso   1.00
C1060  C     0.43004   0.81996   0.75000   0.00000  Uiso   1.00
C1061  C     0.21734   0.99446   0.95906   0.00000  Uiso   1.00
C1062  C     0.06996   0.68004   0.25000   0.00000  Uiso   1.00
C1063  C     0.31995   0.56995   0.75000   0.00000  Uiso   1.00
C1064  C     0.18003   0.93003   0.25000   0.00000  Uiso   1.00
C1065  C     0.06996   0.68004   0.75000   0.00000  Uiso   1.00
C1066  C     0.43003   0.81996   0.25000   0.00000  Uiso   1.00
C1067  C     0.15504   0.87219   0.22418   0.00000  Uiso   1.00
C1068  C     0.34504   0.62766   0.77605   0.00000  Uiso   1.00
C1069  C     0.12653   0.65376   0.22247   0.00000  Uiso   1.00
C1070  C     0.37384   0.84658   0.77797   0.00000  Uiso   1.00
C1071  C     0.34496   0.62781   0.22418   0.00000  Uiso   1.00
C1072  C     0.00553   0.78266   0.04094   0.00000  Uiso   1.00
C1073  C     0.15496   0.87234   0.77605   0.00000  Uiso   1.00
C1074  C     0.37347   0.84624   0.22247   0.00000  Uiso   1.00
C1075  C     0.12616   0.65342   0.77797   0.00000  Uiso   1.00
C1076  C     0.15376   0.62653   0.77753   0.00000  Uiso   1.00
C1077  C     0.34658   0.87384   0.22203   0.00000  Uiso   1.00
C1078  C     0.12781   0.84496   0.77582   0.00000  Uiso   1.00
C1079  C     0.37234   0.65496   0.22395   0.00000  Uiso   1.00
C1080  C     0.34624   0.87347   0.77753   0.00000  Uiso   1.00
C1081  C     0.15342   0.62616   0.22203   0.00000  Uiso   1.00
C1082  C     0.37219   0.65504   0.77582   0.00000  Uiso   1.00
C1083  C     0.01998   0.72353   0.95815   0.00000  Uiso   1.00
C1084  C     0.12766   0.84504   0.22395   0.00000  Uiso   1.00
C1085  C     0.40504   0.62219   0.72418   0.00000  Uiso   1.00
C1086  C     0.09504   0.87766   0.27605   0.00000  Uiso   1.00
C1087  C     0.37653   0.90376   0.72247   0.00000  Uiso   1.00
C1088  C     0.12384   0.59658   0.27797   0.00000  Uiso   1.00
C1089  C     0.09496   0.87781   0.72418   0.00000  Uiso   1.00
C1090  C     0.40496   0.62234   0.27605   0.00000  Uiso   1.00
C1091  C     0.12347   0.59624   0.72247   0.00000  Uiso   1.00
C1092  C     0.37616   0.90342   0.27797   0.00000  Uiso   1.00
C1093  C     0.40376   0.87653   0.27753   0.00000  Uiso   1.00
C1094  C     0.47353   0.76998   0.54185   0.00000  Uiso   1.00
C1095  C     0.09658   0.62384   0.72203   0.00000  Uiso   1.00
C1096  C     0.37781   0.59496   0.27582   0.00000  Uiso   1.00
C1097  C     0.12234   0.90496   0.72395   0.00000  Uiso   1.00
C1098  C     0.09624   0.62347   0.27753   0.00000  Uiso   1.00
C1099  C     0.40342   0.87616   0.72203   0.00000  Uiso   1.00
C1100  C     0.12219   0.90504   0.27582   0.00000  Uiso   1.00
C1101  C     0.37766   0.59504   0.72395   0.00000  Uiso   1.00
C1102  C     0.09803   0.84803   0.25000   0.00000  Uiso   1.00
C1103  C     0.40193   0.65193   0.75000   0.00000  Uiso   1.00
C1104  C     0.15196   0.59804   0.25000   0.00000  Uiso   1.00
H1105  H     0.20378   0.53647   0.02627   0.00000  Uiso   1.00
H1106  H     0.05807   0.75989   0.47457   0.00000  Uiso   1.00
H1107  H     0.18514   0.94901   0.61607   0.00000  Uiso   1.00
H1108  H     0.20949   0.86844   0.61044   0.00000  Uiso   1.00
H1109  H     0.20413   0.89487   0.65428   0.00000  Uiso   1.00
H1110  H     0.16472   0.88453   0.62466   0.00000  Uiso   1.00
H1111  H     0.25364   0.58775   0.39272   0.00000  Uiso   1.00
H1112  H     0.22210   0.59755   0.43201   0.00000  Uiso   1.00
H1113  H     0.17434   0.61538   0.38492   0.00000  Uiso   1.00
H1114  H     0.21571   0.64173   0.37796   0.00000  Uiso   1.00
H1115  H     0.20489   0.60464   0.34536   0.00000  Uiso   1.00
H1116  H     0.08775   0.75364   0.60728   0.00000  Uiso   1.00
H1117  H     0.24011   0.94193   0.52544   0.00000  Uiso   1.00
H1118  H     0.09755   0.72210   0.56799   0.00000  Uiso   1.00
H1119  H     0.11538   0.67434   0.61508   0.00000  Uiso   1.00
H1120  H     0.14173   0.71571   0.62204   0.00000  Uiso   1.00
H1121  H     0.10464   0.70489   0.65465   0.00000  Uiso   1.00
H1122  H     0.42252   0.68927   0.42821   0.00000  Uiso   1.00
H1123  H     0.44901   0.68514   0.38393   0.00000  Uiso   1.00
H1124  H     0.36844   0.70949   0.38956   0.00000  Uiso   1.00
H1125  H     0.39487   0.70413   0.34572   0.00000  Uiso   1.00
H1126  H     0.38453   0.66472   0.37534   0.00000  Uiso   1.00
H1127  H     0.31073   0.57748   0.57179   0.00000  Uiso   1.00
H1128  H     0.21353   0.54622   0.47373   0.00000  Uiso   1.00
H1129  H     0.31486   0.55099   0.61607   0.00000  Uiso   1.00
H1130  H     0.29051   0.63156   0.61044   0.00000  Uiso   1.00
H1131  H     0.29587   0.60513   0.65428   0.00000  Uiso   1.00
H1132  H     0.33528   0.61547   0.62466   0.00000  Uiso   1.00
H1133  H     0.24636   0.91225   0.39272   0.00000  Uiso   1.00
H1134  H     0.27790   0.90245   0.43201   0.00000  Uiso   1.00
H1135  H     0.32566   0.88462   0.38492   0.00000  Uiso   1.00
H1136  H     0.28429   0.85827   0.37796   0.00000  Uiso   1.00
H1137  H     0.29511   0.89536   0.34536   0.00000  Uiso   1.00
H1138  H     0.04622   0.71353   0.52627   0.00000  Uiso   1.00
H1139  H     0.44193   0.74011   0.47457   0.00000  Uiso   1.00
H1140  H     0.25989   0.55807   0.52544   0.00000  Uiso   1.00
H1141  H     0.28647   0.95378   0.47373   0.00000  Uiso   1.00
H1142  H     0.22045   0.89301   0.15896   0.00000  Uiso   1.00
H1143  H     0.29803   0.63800   0.85925   0.00000  Uiso   1.00
H1144  H     0.10364   0.71807   0.15669   0.00000  Uiso   1.00
H1145  H     0.30807   0.50989   0.97457   0.00000  Uiso   1.00
H1146  H     0.36885   0.80487   0.86472   0.00000  Uiso   1.00
H1147  H     0.27955   0.60699   0.15896   0.00000  Uiso   1.00
H1148  H     0.20197   0.86200   0.85925   0.00000  Uiso   1.00
H1149  H     0.39636   0.78193   0.15669   0.00000  Uiso   1.00
H1150  H     0.13115   0.69513   0.86472   0.00000  Uiso   1.00
H1151  H     0.21807   0.60364   0.84331   0.00000  Uiso   1.00
H1152  H     0.30487   0.86885   0.13528   0.00000  Uiso   1.00
H1153  H     0.10699   0.77955   0.84104   0.00000  Uiso   1.00
H1154  H     0.36200   0.70197   0.14075   0.00000  Uiso   1.00
H1155  H     0.28193   0.89636   0.84331   0.00000  Uiso   1.00
H1156  H     0.49011   0.69193   0.02544   0.00000  Uiso   1.00
H1157  H     0.19513   0.63115   0.13528   0.00000  Uiso   1.00
H1158  H     0.39301   0.72045   0.84104   0.00000  Uiso   1.00
H1159  H     0.13800   0.79803   0.14075   0.00000  Uiso   1.00
H1160  H     0.47045   0.64301   0.65896   0.00000  Uiso   1.00
H1161  H     0.04803   0.88800   0.35925   0.00000  Uiso   1.00
H1162  H     0.35364   0.96807   0.65669   0.00000  Uiso   1.00
H1163  H     0.11885   0.55487   0.36472   0.00000  Uiso   1.00
H1164  H     0.02955   0.85699   0.65896   0.00000  Uiso   1.00
H1165  H     0.45197   0.61200   0.35925   0.00000  Uiso   1.00
H1166  H     0.14636   0.53193   0.65669   0.00000  Uiso   1.00
H1167  H     0.46353   0.79622   0.97373   0.00000  Uiso   1.00
H1168  H     0.38115   0.94513   0.36472   0.00000  Uiso   1.00
H1169  H     0.46807   0.85364   0.34331   0.00000  Uiso   1.00
H1170  H     0.05487   0.61885   0.63528   0.00000  Uiso   1.00
H1171  H     0.35699   0.52955   0.34104   0.00000  Uiso   1.00
H1172  H     0.11200   0.95197   0.64075   0.00000  Uiso   1.00
H1173  H     0.03193   0.64636   0.34331   0.00000  Uiso   1.00
H1174  H     0.44513   0.88115   0.63528   0.00000  Uiso   1.00
H1175  H     0.14301   0.97045   0.34104   0.00000  Uiso   1.00
H1176  H     0.38800   0.54803   0.64075   0.00000  Uiso   1.00
H1177  H     0.16225   0.99636   0.10728   0.00000  Uiso   1.00
H1178  H     0.29622   0.96353   0.02627   0.00000  Uiso   1.00
H1179  H     0.15245   0.52790   0.06799   0.00000  Uiso   1.00
H1180  H     0.13462   0.57566   0.11508   0.00000  Uiso   1.00
H1181  H     0.10827   0.53429   0.12204   0.00000  Uiso   1.00
H1182  H     0.14536   0.54512   0.15465   0.00000  Uiso   1.00
H1183  H     0.32748   0.56073   0.92821   0.00000  Uiso   1.00
H1184  H     0.30099   0.56486   0.88393   0.00000  Uiso   1.00
H1185  H     0.35513   0.54587   0.84572   0.00000  Uiso   1.00
H1186  H     0.36546   0.58528   0.87534   0.00000  Uiso   1.00
H1187  H     0.38156   0.54051   0.88956   0.00000  Uiso   1.00
H1188  H     0.43927   0.67252   0.07179   0.00000  Uiso   1.00
H1189  H     0.19193   0.99011   0.97457   0.00000  Uiso   1.00
H1190  H     0.43514   0.69901   0.11607   0.00000  Uiso   1.00
H1191  H     0.45949   0.61844   0.11044   0.00000  Uiso   1.00
H1192  H     0.45413   0.64487   0.15428   0.00000  Uiso   1.00
H1193  H     0.41472   0.63454   0.12466   0.00000  Uiso   1.00
H1194  H     0.00364   0.83775   0.89272   0.00000  Uiso   1.00
H1195  H     0.47210   0.84755   0.93201   0.00000  Uiso   1.00
H1196  H     0.42434   0.86538   0.88492   0.00000  Uiso   1.00
H1197  H     0.46571   0.89173   0.87796   0.00000  Uiso   1.00
H1198  H     0.45489   0.85463   0.84536   0.00000  Uiso   1.00
H1199  H     0.33775   0.50364   0.10728   0.00000  Uiso   1.00
H1200  H     0.00989   0.80807   0.02544   0.00000  Uiso   1.00
H1201  H     0.34755   0.97210   0.06799   0.00000  Uiso   1.00
H1202  H     0.36538   0.92434   0.11508   0.00000  Uiso   1.00
H1203  H     0.39173   0.96571   0.12204   0.00000  Uiso   1.00
H1204  H     0.35464   0.95489   0.15465   0.00000  Uiso   1.00
H1205  H     0.17252   0.93927   0.92821   0.00000  Uiso   1.00
H1206  H     0.19901   0.93514   0.88393   0.00000  Uiso   1.00
H1207  H     0.11844   0.95949   0.88956   0.00000  Uiso   1.00
H1208  H     0.14487   0.95413   0.84572   0.00000  Uiso   1.00
H1209  H     0.13453   0.91472   0.87534   0.00000  Uiso   1.00
H1210  H     0.06073   0.82748   0.07179   0.00000  Uiso   1.00
H1211  H     0.03647   0.70378   0.97373   0.00000  Uiso   1.00
H1212  H     0.06486   0.80099   0.11607   0.00000  Uiso   1.00
H1213  H     0.04051   0.88156   0.11044   0.00000  Uiso   1.00
H1214  H     0.04587   0.85513   0.15428   0.00000  Uiso   1.00
H1215  H     0.08528   0.86546   0.12466   0.00000  Uiso   1.00
H1216  H     0.49636   0.66225   0.89272   0.00000  Uiso   1.00
H1217  H     0.02790   0.65245   0.93201   0.00000  Uiso   1.00
H1218  H     0.07566   0.63462   0.88492   0.00000  Uiso   1.00
H1219  H     0.03429   0.60827   0.87796   0.00000  Uiso   1.00
H1220  H     0.04512   0.64536   0.84536   0.00000  Uiso   1.00
H1221  H     0.41225   0.74636   0.60728   0.00000  Uiso   1.00
H1222  H     0.45378   0.78647   0.52627   0.00000  Uiso   1.00
H1223  H     0.40245   0.77790   0.56799   0.00000  Uiso   1.00
H1224  H     0.38462   0.82566   0.61508   0.00000  Uiso   1.00
H1225  H     0.35827   0.78429   0.62204   0.00000  Uiso   1.00
H1226  H     0.39536   0.79511   0.65465   0.00000  Uiso   1.00
H1227  H     0.07748   0.81073   0.42821   0.00000  Uiso   1.00
H1228  H     0.05099   0.81486   0.38393   0.00000  Uiso   1.00
H1229  H     0.13156   0.79051   0.38956   0.00000  Uiso   1.00
H1230  H     0.10513   0.79587   0.34572   0.00000  Uiso   1.00
H1231  H     0.11546   0.83528   0.37534   0.00000  Uiso   1.00
H1232  H     0.18927   0.92252   0.57179   0.00000  Uiso   1.00
O1233  O     0.25000   0.50000   0.25000   0.00000  Uiso   1.00
O1234  O     0.25000   0.96964   0.66317   0.00000  Uiso   1.00
O1235  O     0.38201   0.92311   0.34690   0.00000  Uiso   1.00
O1236  O     0.45216   0.90791   0.30792   0.00000  Uiso   1.00
O1237  O     0.44613   0.84848   0.32620   0.00000  Uiso   1.00
O1238  O     0.03547   0.62889   0.70063   0.00000  Uiso   1.00
O1239  O     0.07689   0.61799   0.65310   0.00000  Uiso   1.00
O1240  O     0.40950   0.54482   0.30240   0.00000  Uiso   1.00
O1241  O     0.35142   0.55191   0.32472   0.00000  Uiso   1.00
O1242  O     0.12621   0.96729   0.70641   0.00000  Uiso   1.00
O1243  O     0.11228   0.92888   0.65702   0.00000  Uiso   1.00
O1244  O     0.04784   0.59209   0.30792   0.00000  Uiso   1.00
O1245  O     0.46964   0.75000   0.33683   0.00000  Uiso   1.00
O1246  O     0.05387   0.65152   0.32620   0.00000  Uiso   1.00
O1247  O     0.46453   0.87111   0.70063   0.00000  Uiso   1.00
O1248  O     0.42311   0.88201   0.65311   0.00000  Uiso   1.00
O1249  O     0.09050   0.95518   0.30240   0.00000  Uiso   1.00
O1250  O     0.14858   0.94809   0.32472   0.00000  Uiso   1.00
O1251  O     0.37379   0.53271   0.70641   0.00000  Uiso   1.00
O1252  O     0.38772   0.57112   0.65702   0.00000  Uiso   1.00
O1253  O     0.19781   0.54102   0.10200   0.00000  Uiso   1.00
O1254  O     0.31580   0.51166   0.89982   0.00000  Uiso   1.00
O1255  O     0.48834   0.68420   0.10018   0.00000  Uiso   1.00
O1256  O     0.03036   0.75000   0.66317   0.00000  Uiso   1.00
O1257  O     0.45898   0.80219   0.89800   0.00000  Uiso   1.00
O1258  O     0.30219   0.95898   0.10200   0.00000  Uiso   1.00
O1259  O     0.18420   0.98834   0.89982   0.00000  Uiso   1.00
O1260  O     0.01166   0.81580   0.10018   0.00000  Uiso   1.00
O1261  O     0.04102   0.69781   0.89800   0.00000  Uiso   1.00
O1262  O     0.44781   0.79102   0.60200   0.00000  Uiso   1.00
O1263  O     0.06580   0.76166   0.39982   0.00000  Uiso   1.00
O1264  O     0.23834   0.93420   0.60018   0.00000  Uiso   1.00
O1265  O     0.20898   0.55219   0.39800   0.00000  Uiso   1.00
O1266  O     0.05219   0.70898   0.60200   0.00000  Uiso   1.00
O1267  O     0.00000   0.71964   0.83683   0.00000  Uiso   1.00
O1268  O     0.43420   0.73834   0.39982   0.00000  Uiso   1.00
O1269  O     0.26166   0.56580   0.60018   0.00000  Uiso   1.00
O1270  O     0.29102   0.94781   0.39800   0.00000  Uiso   1.00
O1271  O     0.00000   0.78036   0.16317   0.00000  Uiso   1.00
O1272  O     0.28036   0.50000   0.83683   0.00000  Uiso   1.00
O1273  O     0.21964   0.50000   0.16317   0.00000  Uiso   1.00
O1274  O     0.00000   0.78036   0.83683   0.00000  Uiso   1.00
O1275  O     0.00000   0.71964   0.16317   0.00000  Uiso   1.00
O1276  O     0.21964   0.50000   0.83683   0.00000  Uiso   1.00
O1277  O     0.25000   0.50000   0.75000   0.00000  Uiso   1.00
O1278  O     0.28036   0.50000   0.16317   0.00000  Uiso   1.00
O1279  O     0.20725   0.57307   0.27282   0.00000  Uiso   1.00
O1280  O     0.29274   0.92693   0.72718   0.00000  Uiso   1.00
O1281  O     0.42693   0.70726   0.27282   0.00000  Uiso   1.00
O1282  O     0.07307   0.79274   0.72718   0.00000  Uiso   1.00
O1283  O     0.29274   0.92693   0.27282   0.00000  Uiso   1.00
O1284  O     0.20725   0.57307   0.72718   0.00000  Uiso   1.00
O1285  O     0.07307   0.79274   0.27282   0.00000  Uiso   1.00
O1286  O     0.42693   0.70726   0.72718   0.00000  Uiso   1.00
O1287  O     0.20725   0.92693   0.72718   0.00000  Uiso   1.00
O1288  O     0.00000   0.75000   0.25000   0.00000  Uiso   1.00
O1289  O     0.29274   0.57307   0.27282   0.00000  Uiso   1.00
O1290  O     0.42693   0.79274   0.72718   0.00000  Uiso   1.00
O1291  O     0.07307   0.70725   0.27282   0.00000  Uiso   1.00
O1292  O     0.29274   0.57307   0.72718   0.00000  Uiso   1.00
O1293  O     0.20725   0.92693   0.27282   0.00000  Uiso   1.00
O1294  O     0.07307   0.70725   0.72718   0.00000  Uiso   1.00
O1295  O     0.42693   0.79274   0.27282   0.00000  Uiso   1.00
O1296  O     0.45725   0.82307   0.77282   0.00000  Uiso   1.00
O1297  O     0.04274   0.67693   0.22718   0.00000  Uiso   1.00
O1298  O     0.17693   0.95725   0.77282   0.00000  Uiso   1.00
O1299  O     0.00000   0.75000   0.75000   0.00000  Uiso   1.00
O1300  O     0.32307   0.54275   0.22718   0.00000  Uiso   1.00
O1301  O     0.04274   0.67693   0.77282   0.00000  Uiso   1.00
O1302  O     0.45725   0.82307   0.22718   0.00000  Uiso   1.00
O1303  O     0.32307   0.54275   0.77282   0.00000  Uiso   1.00
O1304  O     0.17693   0.95725   0.22718   0.00000  Uiso   1.00
O1305  O     0.45725   0.67693   0.22718   0.00000  Uiso   1.00
O1306  O     0.04274   0.82307   0.77282   0.00000  Uiso   1.00
O1307  O     0.17693   0.54275   0.22718   0.00000  Uiso   1.00
O1308  O     0.32307   0.95725   0.77282   0.00000  Uiso   1.00
O1309  O     0.04274   0.82307   0.22718   0.00000  Uiso   1.00
O1310  O     0.25000   0.96964   0.33683   0.00000  Uiso   1.00
O1311  O     0.45725   0.67693   0.77282   0.00000  Uiso   1.00
O1312  O     0.32307   0.95725   0.22718   0.00000  Uiso   1.00
O1313  O     0.17693   0.54275   0.77282   0.00000  Uiso   1.00
O1314  O     0.20518   0.84050   0.19760   0.00000  Uiso   1.00
O1315  O     0.19809   0.89858   0.17528   0.00000  Uiso   1.00
O1316  O     0.28271   0.62379   0.79360   0.00000  Uiso   1.00
O1317  O     0.32112   0.63772   0.84298   0.00000  Uiso   1.00
O1318  O     0.15791   0.70216   0.19208   0.00000  Uiso   1.00
O1319  O     0.09848   0.69613   0.17381   0.00000  Uiso   1.00
O1320  O     0.37889   0.78547   0.79937   0.00000  Uiso   1.00
O1321  O     0.25000   0.53036   0.66317   0.00000  Uiso   1.00
O1322  O     0.36799   0.82689   0.84690   0.00000  Uiso   1.00
O1323  O     0.29482   0.65950   0.19760   0.00000  Uiso   1.00
O1324  O     0.30191   0.60142   0.17528   0.00000  Uiso   1.00
O1325  O     0.21729   0.87621   0.79360   0.00000  Uiso   1.00
O1326  O     0.17888   0.86228   0.84298   0.00000  Uiso   1.00
O1327  O     0.34209   0.79784   0.19208   0.00000  Uiso   1.00
O1328  O     0.40152   0.80387   0.17381   0.00000  Uiso   1.00
O1329  O     0.12111   0.71453   0.79937   0.00000  Uiso   1.00
O1330  O     0.13201   0.67311   0.84690   0.00000  Uiso   1.00
O1331  O     0.20216   0.65791   0.80792   0.00000  Uiso   1.00
O1332  O     0.03036   0.75000   0.33683   0.00000  Uiso   1.00
O1333  O     0.19613   0.59848   0.82620   0.00000  Uiso   1.00
O1334  O     0.28547   0.87889   0.20063   0.00000  Uiso   1.00
O1335  O     0.32689   0.86799   0.15311   0.00000  Uiso   1.00
O1336  O     0.15950   0.79482   0.80240   0.00000  Uiso   1.00
O1337  O     0.10142   0.80191   0.82472   0.00000  Uiso   1.00
O1338  O     0.37621   0.71729   0.20641   0.00000  Uiso   1.00
O1339  O     0.36228   0.67888   0.15702   0.00000  Uiso   1.00
O1340  O     0.29784   0.84209   0.80792   0.00000  Uiso   1.00
O1341  O     0.30387   0.90152   0.82620   0.00000  Uiso   1.00
O1342  O     0.21453   0.62111   0.20063   0.00000  Uiso   1.00
O1343  O     0.46964   0.75000   0.66317   0.00000  Uiso   1.00
O1344  O     0.17311   0.63201   0.15310   0.00000  Uiso   1.00
O1345  O     0.34050   0.70518   0.80240   0.00000  Uiso   1.00
O1346  O     0.39858   0.69809   0.82472   0.00000  Uiso   1.00
O1347  O     0.12379   0.78271   0.20641   0.00000  Uiso   1.00
O1348  O     0.13772   0.82112   0.15702   0.00000  Uiso   1.00
O1349  O     0.45518   0.59050   0.69760   0.00000  Uiso   1.00
O1350  O     0.44809   0.64858   0.67528   0.00000  Uiso   1.00
O1351  O     0.03271   0.87379   0.29360   0.00000  Uiso   1.00
O1352  O     0.07112   0.88772   0.34298   0.00000  Uiso   1.00
O1353  O     0.40791   0.95216   0.69208   0.00000  Uiso   1.00
O1354  O     0.25000   0.53036   0.33683   0.00000  Uiso   1.00
O1355  O     0.34848   0.94613   0.67381   0.00000  Uiso   1.00
O1356  O     0.12889   0.53547   0.29937   0.00000  Uiso   1.00
O1357  O     0.11799   0.57689   0.34690   0.00000  Uiso   1.00
O1358  O     0.04482   0.90950   0.69760   0.00000  Uiso   1.00
O1359  O     0.05191   0.85142   0.67528   0.00000  Uiso   1.00
O1360  O     0.46729   0.62621   0.29360   0.00000  Uiso   1.00
O1361  O     0.42888   0.61228   0.34298   0.00000  Uiso   1.00
O1362  O     0.09209   0.54784   0.69208   0.00000  Uiso   1.00
O1363  O     0.15152   0.55387   0.67381   0.00000  Uiso   1.00
O1364  O     0.37111   0.96453   0.29937   0.00000  Uiso   1.00
Zn1365 Zn    0.20660   0.50000   0.21760   0.00000  Uiso   1.00
Zn1366 Zn    0.04340   0.75000   0.28240   0.00000  Uiso   1.00
Zn1367 Zn    0.25000   0.95660   0.71760   0.00000  Uiso   1.00
Zn1368 Zn    0.25000   0.54340   0.28240   0.00000  Uiso   1.00
Zn1369 Zn    0.04340   0.75000   0.71760   0.00000  Uiso   1.00
Zn1370 Zn    0.45660   0.75000   0.28240   0.00000  Uiso   1.00
Zn1371 Zn    0.25000   0.54340   0.71760   0.00000  Uiso   1.00
Zn1372 Zn    0.25000   0.95660   0.28240   0.00000  Uiso   1.00
Zn1373 Zn    0.29340   0.50000   0.78240   0.00000  Uiso   1.00
Zn1374 Zn    0.00000   0.70660   0.21760   0.00000  Uiso   1.00
Zn1375 Zn    0.00000   0.79340   0.78240   0.00000  Uiso   1.00
Zn1376 Zn    0.29340   0.50000   0.21760   0.00000  Uiso   1.00
Zn1377 Zn    0.20660   0.50000   0.78240   0.00000  Uiso   1.00
Zn1378 Zn    0.00000   0.79340   0.21760   0.00000  Uiso   1.00
Zn1379 Zn    0.00000   0.70660   0.78240   0.00000  Uiso   1.00
Zn1380 Zn    0.45660   0.75000   0.71760   0.00000  Uiso   1.00
C1381  C     0.72353   0.51998   0.04185   0.00000  Uiso   1.00
C1382  C     0.53266   0.75553   0.45906   0.00000  Uiso   1.00
C1383  C     0.84805   0.90195   0.75000   0.00000  Uiso   1.00
C1384  C     0.90197   0.65197   0.25000   0.00000  Uiso   1.00
C1385  C     0.59807   0.84807   0.75000   0.00000  Uiso   1.00
C1386  C     0.84804   0.90196   0.25000   0.00000  Uiso   1.00
C1387  C     0.65195   0.59805   0.75000   0.00000  Uiso   1.00
C1388  C     0.59804   0.65196   0.75000   0.00000  Uiso   1.00
C1389  C     0.90195   0.84805   0.25000   0.00000  Uiso   1.00
C1390  C     0.65197   0.90197   0.75000   0.00000  Uiso   1.00
C1391  C     0.84807   0.59807   0.25000   0.00000  Uiso   1.00
C1392  C     0.90196   0.84804   0.75000   0.00000  Uiso   1.00
C1393  C     0.74446   0.96734   0.54094   0.00000  Uiso   1.00
C1394  C     0.59805   0.65195   0.25000   0.00000  Uiso   1.00
C1395  C     0.84803   0.59803   0.75000   0.00000  Uiso   1.00
C1396  C     0.65193   0.90193   0.25000   0.00000  Uiso   1.00
C1397  C     0.75000   0.50000   0.10251   0.00000  Uiso   1.00
C1398  C     0.75000   0.50000   0.89807   0.00000  Uiso   1.00
C1399  C     0.50000   0.75000   0.10193   0.00000  Uiso   1.00
C1400  C     0.50000   0.75000   0.89749   0.00000  Uiso   1.00
C1401  C     0.50000   0.75000   0.60251   0.00000  Uiso   1.00
C1402  C     0.50000   0.75000   0.39807   0.00000  Uiso   1.00
C1403  C     0.75000   0.50000   0.60193   0.00000  Uiso   1.00
C1404  C     0.73002   0.52647   0.45815   0.00000  Uiso   1.00
C1405  C     0.75000   0.50000   0.39749   0.00000  Uiso   1.00
C1406  C     0.68762   0.86901   0.19847   0.00000  Uiso   1.00
C1407  C     0.81414   0.62944   0.80425   0.00000  Uiso   1.00
C1408  C     0.62903   0.68545   0.19541   0.00000  Uiso   1.00
C1409  C     0.87384   0.81749   0.80824   0.00000  Uiso   1.00
C1410  C     0.81238   0.63099   0.19847   0.00000  Uiso   1.00
C1411  C     0.68586   0.87056   0.80425   0.00000  Uiso   1.00
C1412  C     0.87097   0.81455   0.19541   0.00000  Uiso   1.00
C1413  C     0.62616   0.68251   0.80824   0.00000  Uiso   1.00
C1414  C     0.68545   0.62903   0.80459   0.00000  Uiso   1.00
C1415  C     0.52647   0.73002   0.54185   0.00000  Uiso   1.00
C1416  C     0.81749   0.87384   0.19176   0.00000  Uiso   1.00
C1417  C     0.63099   0.81238   0.80154   0.00000  Uiso   1.00
C1418  C     0.87056   0.68586   0.19575   0.00000  Uiso   1.00
C1419  C     0.81455   0.87097   0.80459   0.00000  Uiso   1.00
C1420  C     0.68251   0.62616   0.19176   0.00000  Uiso   1.00
C1421  C     0.86901   0.68762   0.80154   0.00000  Uiso   1.00
C1422  C     0.62944   0.81414   0.19575   0.00000  Uiso   1.00
C1423  C     0.93762   0.61901   0.69847   0.00000  Uiso   1.00
C1424  C     0.56414   0.87944   0.30425   0.00000  Uiso   1.00
C1425  C     0.87903   0.93545   0.69541   0.00000  Uiso   1.00
C1426  C     0.96734   0.74447   0.45906   0.00000  Uiso   1.00
C1427  C     0.62384   0.56749   0.30824   0.00000  Uiso   1.00
C1428  C     0.56238   0.88099   0.69847   0.00000  Uiso   1.00
C1429  C     0.93586   0.62056   0.30425   0.00000  Uiso   1.00
C1430  C     0.62097   0.56455   0.69541   0.00000  Uiso   1.00
C1431  C     0.87616   0.93251   0.30824   0.00000  Uiso   1.00
C1432  C     0.93545   0.87903   0.30459   0.00000  Uiso   1.00
C1433  C     0.56749   0.62384   0.69176   0.00000  Uiso   1.00
C1434  C     0.88099   0.56238   0.30154   0.00000  Uiso   1.00
C1435  C     0.62056   0.93586   0.69575   0.00000  Uiso   1.00
C1436  C     0.56455   0.62097   0.30459   0.00000  Uiso   1.00
C1437  C     0.75553   0.53266   0.54094   0.00000  Uiso   1.00
C1438  C     0.93251   0.87616   0.69176   0.00000  Uiso   1.00
C1439  C     0.61901   0.93762   0.30154   0.00000  Uiso   1.00
C1440  C     0.87944   0.56414   0.69575   0.00000  Uiso   1.00
C1441  C     0.66246   0.52568   0.09826   0.00000  Uiso   1.00
C1442  C     0.63605   0.54652   0.12416   0.00000  Uiso   1.00
C1443  C     0.82348   0.54956   0.89858   0.00000  Uiso   1.00
C1444  C     0.85861   0.55566   0.87585   0.00000  Uiso   1.00
C1445  C     0.95044   0.67652   0.10142   0.00000  Uiso   1.00
C1446  C     0.94434   0.64139   0.12415   0.00000  Uiso   1.00
C1447  C     0.97432   0.83754   0.90174   0.00000  Uiso   1.00
C1448  C     0.76998   0.97353   0.45815   0.00000  Uiso   1.00
C1449  C     0.95348   0.86395   0.87584   0.00000  Uiso   1.00
C1450  C     0.83754   0.97432   0.09826   0.00000  Uiso   1.00
C1451  C     0.86395   0.95348   0.12416   0.00000  Uiso   1.00
C1452  C     0.67652   0.95044   0.89858   0.00000  Uiso   1.00
C1453  C     0.64139   0.94434   0.87585   0.00000  Uiso   1.00
C1454  C     0.54955   0.82348   0.10142   0.00000  Uiso   1.00
C1455  C     0.55566   0.85861   0.12415   0.00000  Uiso   1.00
C1456  C     0.52568   0.66246   0.90174   0.00000  Uiso   1.00
C1457  C     0.54652   0.63605   0.87584   0.00000  Uiso   1.00
C1458  C     0.91246   0.77568   0.59826   0.00000  Uiso   1.00
C1459  C     0.72273   0.51945   0.08222   0.00000  Uiso   1.00
C1460  C     0.88605   0.79652   0.62416   0.00000  Uiso   1.00
C1461  C     0.57348   0.79956   0.39858   0.00000  Uiso   1.00
C1462  C     0.60861   0.80566   0.37585   0.00000  Uiso   1.00
C1463  C     0.70044   0.92652   0.60142   0.00000  Uiso   1.00
C1464  C     0.69434   0.89139   0.62415   0.00000  Uiso   1.00
C1465  C     0.72432   0.58754   0.40174   0.00000  Uiso   1.00
C1466  C     0.70348   0.61395   0.37584   0.00000  Uiso   1.00
C1467  C     0.58754   0.72432   0.59826   0.00000  Uiso   1.00
C1468  C     0.61395   0.70348   0.62416   0.00000  Uiso   1.00
C1469  C     0.92652   0.70044   0.39858   0.00000  Uiso   1.00
C1470  C     0.78286   0.50645   0.91876   0.00000  Uiso   1.00
C1471  C     0.89139   0.69434   0.37585   0.00000  Uiso   1.00
C1472  C     0.79955   0.57348   0.60142   0.00000  Uiso   1.00
C1473  C     0.80566   0.60861   0.62415   0.00000  Uiso   1.00
C1474  C     0.77568   0.91246   0.40174   0.00000  Uiso   1.00
C1475  C     0.79652   0.88605   0.37584   0.00000  Uiso   1.00
C1476  C     0.99355   0.71714   0.08124   0.00000  Uiso   1.00
C1477  C     0.78266   0.50554   0.95906   0.00000  Uiso   1.00
C1478  C     0.98055   0.77727   0.91778   0.00000  Uiso   1.00
C1479  C     0.77727   0.98055   0.08222   0.00000  Uiso   1.00
C1480  C     0.71714   0.99355   0.91876   0.00000  Uiso   1.00
C1481  C     0.50645   0.78286   0.08124   0.00000  Uiso   1.00
C1482  C     0.51945   0.72273   0.91778   0.00000  Uiso   1.00
C1483  C     0.97273   0.76945   0.58222   0.00000  Uiso   1.00
C1484  C     0.53286   0.75645   0.41876   0.00000  Uiso   1.00
C1485  C     0.74355   0.96714   0.58124   0.00000  Uiso   1.00
C1486  C     0.73055   0.52727   0.41778   0.00000  Uiso   1.00
C1487  C     0.52727   0.73055   0.58222   0.00000  Uiso   1.00
C1488  C     0.99446   0.71734   0.04094   0.00000  Uiso   1.00
C1489  C     0.96714   0.74355   0.41876   0.00000  Uiso   1.00
C1490  C     0.75645   0.53286   0.58124   0.00000  Uiso   1.00
C1491  C     0.76945   0.97273   0.41778   0.00000  Uiso   1.00
C1492  C     0.75000   0.50000   0.02164   0.00000  Uiso   1.00
C1493  C     0.75000   0.50000   0.97928   0.00000  Uiso   1.00
C1494  C     0.50000   0.75000   0.02072   0.00000  Uiso   1.00
C1495  C     0.50000   0.75000   0.97837   0.00000  Uiso   1.00
C1496  C     0.50000   0.75000   0.52164   0.00000  Uiso   1.00
C1497  C     0.50000   0.75000   0.47928   0.00000  Uiso   1.00
C1498  C     0.75000   0.50000   0.52072   0.00000  Uiso   1.00
C1499  C     0.98002   0.77647   0.95815   0.00000  Uiso   1.00
C1500  C     0.75000   0.50000   0.47837   0.00000  Uiso   1.00
C1501  C     0.75000   0.50000   0.35519   0.00000  Uiso   1.00
C1502  C     0.75000   0.50000   0.64460   0.00000  Uiso   1.00
C1503  C     0.50000   0.75000   0.35540   0.00000  Uiso   1.00
C1504  C     0.50000   0.75000   0.64481   0.00000  Uiso   1.00
C1505  C     0.50000   0.75000   0.85519   0.00000  Uiso   1.00
C1506  C     0.50000   0.75000   0.14460   0.00000  Uiso   1.00
C1507  C     0.75000   0.50000   0.85540   0.00000  Uiso   1.00
C1508  C     0.75000   0.50000   0.14481   0.00000  Uiso   1.00
C1509  C     0.68004   0.56996   0.25000   0.00000  Uiso   1.00
C1510  C     0.77647   0.98002   0.04185   0.00000  Uiso   1.00
C1511  C     0.81996   0.93003   0.75000   0.00000  Uiso   1.00
C1512  C     0.93005   0.68005   0.25000   0.00000  Uiso   1.00
C1513  C     0.56996   0.81996   0.75000   0.00000  Uiso   1.00
C1514  C     0.81996   0.93004   0.25000   0.00000  Uiso   1.00
C1515  C     0.68004   0.56996   0.75000   0.00000  Uiso   1.00
C1516  C     0.56995   0.81995   0.25000   0.00000  Uiso   1.00
C1517  C     0.93003   0.68004   0.75000   0.00000  Uiso   1.00
C1518  C     0.68005   0.93005   0.75000   0.00000  Uiso   1.00
C1519  C     0.81996   0.56997   0.25000   0.00000  Uiso   1.00
C1520  C     0.93004   0.81996   0.75000   0.00000  Uiso   1.00
C1521  C     0.71734   0.99446   0.95906   0.00000  Uiso   1.00
C1522  C     0.56996   0.68004   0.25000   0.00000  Uiso   1.00
C1523  C     0.81995   0.56995   0.75000   0.00000  Uiso   1.00
C1524  C     0.68003   0.93003   0.25000   0.00000  Uiso   1.00
C1525  C     0.56996   0.68004   0.75000   0.00000  Uiso   1.00
C1526  C     0.93003   0.81996   0.25000   0.00000  Uiso   1.00
C1527  C     0.65504   0.87219   0.22418   0.00000  Uiso   1.00
C1528  C     0.84504   0.62766   0.77605   0.00000  Uiso   1.00
C1529  C     0.62653   0.65376   0.22247   0.00000  Uiso   1.00
C1530  C     0.87384   0.84658   0.77797   0.00000  Uiso   1.00
C1531  C     0.84496   0.62781   0.22418   0.00000  Uiso   1.00
C1532  C     0.50553   0.78266   0.04094   0.00000  Uiso   1.00
C1533  C     0.65496   0.87234   0.77605   0.00000  Uiso   1.00
C1534  C     0.87347   0.84624   0.22247   0.00000  Uiso   1.00
C1535  C     0.62616   0.65342   0.77797   0.00000  Uiso   1.00
C1536  C     0.65376   0.62653   0.77753   0.00000  Uiso   1.00
C1537  C     0.84658   0.87384   0.22203   0.00000  Uiso   1.00
C1538  C     0.62781   0.84496   0.77582   0.00000  Uiso   1.00
C1539  C     0.87234   0.65496   0.22395   0.00000  Uiso   1.00
C1540  C     0.84624   0.87347   0.77753   0.00000  Uiso   1.00
C1541  C     0.65342   0.62616   0.22203   0.00000  Uiso   1.00
C1542  C     0.87219   0.65504   0.77582   0.00000  Uiso   1.00
C1543  C     0.51998   0.72353   0.95815   0.00000  Uiso   1.00
C1544  C     0.62766   0.84504   0.22395   0.00000  Uiso   1.00
C1545  C     0.90504   0.62219   0.72418   0.00000  Uiso   1.00
C1546  C     0.59504   0.87766   0.27605   0.00000  Uiso   1.00
C1547  C     0.87653   0.90376   0.72247   0.00000  Uiso   1.00
C1548  C     0.62384   0.59658   0.27797   0.00000  Uiso   1.00
C1549  C     0.59496   0.87781   0.72418   0.00000  Uiso   1.00
C1550  C     0.90496   0.62234   0.27605   0.00000  Uiso   1.00
C1551  C     0.62347   0.59624   0.72247   0.00000  Uiso   1.00
C1552  C     0.87616   0.90342   0.27797   0.00000  Uiso   1.00
C1553  C     0.90376   0.87653   0.27753   0.00000  Uiso   1.00
C1554  C     0.97353   0.76998   0.54185   0.00000  Uiso   1.00
C1555  C     0.59658   0.62384   0.72203   0.00000  Uiso   1.00
C1556  C     0.87781   0.59496   0.27582   0.00000  Uiso   1.00
C1557  C     0.62234   0.90496   0.72395   0.00000  Uiso   1.00
C1558  C     0.59624   0.62347   0.27753   0.00000  Uiso   1.00
C1559  C     0.90342   0.87616   0.72203   0.00000  Uiso   1.00
C1560  C     0.62219   0.90504   0.27582   0.00000  Uiso   1.00
C1561  C     0.87766   0.59504   0.72395   0.00000  Uiso   1.00
C1562  C     0.59803   0.84803   0.25000   0.00000  Uiso   1.00
C1563  C     0.90193   0.65193   0.75000   0.00000  Uiso   1.00
C1564  C     0.65196   0.59804   0.25000   0.00000  Uiso   1.00
H1565  H     0.70378   0.53647   0.02627   0.00000  Uiso   1.00
H1566  H     0.55807   0.75989   0.47457   0.00000  Uiso   1.00
H1567  H     0.68514   0.94901   0.61607   0.00000  Uiso   1.00
H1568  H     0.70949   0.86844   0.61044   0.00000  Uiso   1.00
H1569  H     0.70413   0.89487   0.65428   0.00000  Uiso   1.00
H1570  H     0.66472   0.88453   0.62466   0.00000  Uiso   1.00
H1571  H     0.75364   0.58775   0.39272   0.00000  Uiso   1.00
H1572  H     0.72210   0.59755   0.43201   0.00000  Uiso   1.00
H1573  H     0.67434   0.61538   0.38492   0.00000  Uiso   1.00
H1574  H     0.71571   0.64173   0.37796   0.00000  Uiso   1.00
H1575  H     0.70489   0.60464   0.34536   0.00000  Uiso   1.00
H1576  H     0.58775   0.75364   0.60728   0.00000  Uiso   1.00
H1577  H     0.74011   0.94193   0.52544   0.00000  Uiso   1.00
H1578  H     0.59755   0.72210   0.56799   0.00000  Uiso   1.00
H1579  H     0.61538   0.67434   0.61508   0.00000  Uiso   1.00
H1580  H     0.64173   0.71571   0.62204   0.00000  Uiso   1.00
H1581  H     0.60464   0.70489   0.65465   0.00000  Uiso   1.00
H1582  H     0.92252   0.68927   0.42821   0.00000  Uiso   1.00
H1583  H     0.94901   0.68514   0.38393   0.00000  Uiso   1.00
H1584  H     0.86844   0.70949   0.38956   0.00000  Uiso   1.00
H1585  H     0.89487   0.70413   0.34572   0.00000  Uiso   1.00
H1586  H     0.88453   0.66472   0.37534   0.00000  Uiso   1.00
H1587  H     0.81073   0.57748   0.57179   0.00000  Uiso   1.00
H1588  H     0.71353   0.54622   0.47373   0.00000  Uiso   1.00
H1589  H     0.81486   0.55099   0.61607   0.00000  Uiso   1.00
H1590  H     0.79051   0.63156   0.61044   0.00000  Uiso   1.00
H1591  H     0.79587   0.60513   0.65428   0.00000  Uiso   1.00
H1592  H     0.83528   0.61547   0.62466   0.00000  Uiso   1.00
H1593  H     0.74636   0.91225   0.39272   0.00000  Uiso   1.00
H1594  H     0.77790   0.90245   0.43201   0.00000  Uiso   1.00
H1595  H     0.82566   0.88462   0.38492   0.00000  Uiso   1.00
H1596  H     0.78429   0.85827   0.37796   0.00000  Uiso   1.00
H1597  H     0.79511   0.89536   0.34536   0.00000  Uiso   1.00
H1598  H     0.54622   0.71353   0.52627   0.00000  Uiso   1.00
H1599  H     0.94193   0.74011   0.47457   0.00000  Uiso   1.00
H1600  H     0.75989   0.55807   0.52544   0.00000  Uiso   1.00
H1601  H     0.78647   0.95378   0.47373   0.00000  Uiso   1.00
H1602  H     0.72045   0.89301   0.15896   0.00000  Uiso   1.00
H1603  H     0.79803   0.63800   0.85925   0.00000  Uiso   1.00
H1604  H     0.60364   0.71807   0.15669   0.00000  Uiso   1.00
H1605  H     0.80807   0.50989   0.97457   0.00000  Uiso   1.00
H1606  H     0.86885   0.80487   0.86472   0.00000  Uiso   1.00
H1607  H     0.77955   0.60699   0.15896   0.00000  Uiso   1.00
H1608  H     0.70197   0.86200   0.85925   0.00000  Uiso   1.00
H1609  H     0.89636   0.78193   0.15669   0.00000  Uiso   1.00
H1610  H     0.63115   0.69513   0.86472   0.00000  Uiso   1.00
H1611  H     0.71807   0.60364   0.84331   0.00000  Uiso   1.00
H1612  H     0.80487   0.86885   0.13528   0.00000  Uiso   1.00
H1613  H     0.60699   0.77955   0.84104   0.00000  Uiso   1.00
H1614  H     0.86200   0.70197   0.14075   0.00000  Uiso   1.00
H1615  H     0.78193   0.89636   0.84331   0.00000  Uiso   1.00
H1616  H     0.99011   0.69193   0.02544   0.00000  Uiso   1.00
H1617  H     0.69513   0.63115   0.13528   0.00000  Uiso   1.00
H1618  H     0.89301   0.72045   0.84104   0.00000  Uiso   1.00
H1619  H     0.63800   0.79803   0.14075   0.00000  Uiso   1.00
H1620  H     0.97045   0.64301   0.65896   0.00000  Uiso   1.00
H1621  H     0.54803   0.88800   0.35925   0.00000  Uiso   1.00
H1622  H     0.85364   0.96807   0.65669   0.00000  Uiso   1.00
H1623  H     0.61885   0.55487   0.36472   0.00000  Uiso   1.00
H1624  H     0.52955   0.85699   0.65896   0.00000  Uiso   1.00
H1625  H     0.95197   0.61200   0.35925   0.00000  Uiso   1.00
H1626  H     0.64636   0.53193   0.65669   0.00000  Uiso   1.00
H1627  H     0.96353   0.79622   0.97373   0.00000  Uiso   1.00
H1628  H     0.88115   0.94513   0.36472   0.00000  Uiso   1.00
H1629  H     0.96807   0.85364   0.34331   0.00000  Uiso   1.00
H1630  H     0.55487   0.61885   0.63528   0.00000  Uiso   1.00
H1631  H     0.85699   0.52955   0.34104   0.00000  Uiso   1.00
H1632  H     0.61200   0.95197   0.64075   0.00000  Uiso   1.00
H1633  H     0.53193   0.64636   0.34331   0.00000  Uiso   1.00
H1634  H     0.94513   0.88115   0.63528   0.00000  Uiso   1.00
H1635  H     0.64301   0.97045   0.34104   0.00000  Uiso   1.00
H1636  H     0.88800   0.54803   0.64075   0.00000  Uiso   1.00
H1637  H     0.66225   0.99636   0.10728   0.00000  Uiso   1.00
H1638  H     0.79622   0.96353   0.02627   0.00000  Uiso   1.00
H1639  H     0.65245   0.52790   0.06799   0.00000  Uiso   1.00
H1640  H     0.63462   0.57566   0.11508   0.00000  Uiso   1.00
H1641  H     0.60827   0.53429   0.12204   0.00000  Uiso   1.00
H1642  H     0.64536   0.54512   0.15465   0.00000  Uiso   1.00
H1643  H     0.82748   0.56073   0.92821   0.00000  Uiso   1.00
H1644  H     0.80099   0.56486   0.88393   0.00000  Uiso   1.00
H1645  H     0.85513   0.54587   0.84572   0.00000  Uiso   1.00
H1646  H     0.86546   0.58528   0.87534   0.00000  Uiso   1.00
H1647  H     0.88156   0.54051   0.88956   0.00000  Uiso   1.00
H1648  H     0.93927   0.67252   0.07179   0.00000  Uiso   1.00
H1649  H     0.69193   0.99011   0.97457   0.00000  Uiso   1.00
H1650  H     0.93514   0.69901   0.11607   0.00000  Uiso   1.00
H1651  H     0.95949   0.61844   0.11044   0.00000  Uiso   1.00
H1652  H     0.95413   0.64487   0.15428   0.00000  Uiso   1.00
H1653  H     0.91472   0.63454   0.12466   0.00000  Uiso   1.00
H1654  H     0.50364   0.83775   0.89272   0.00000  Uiso   1.00
H1655  H     0.97210   0.84755   0.93201   0.00000  Uiso   1.00
H1656  H     0.92434   0.86538   0.88492   0.00000  Uiso   1.00
H1657  H     0.96571   0.89173   0.87796   0.00000  Uiso   1.00
H1658  H     0.95489   0.85463   0.84536   0.00000  Uiso   1.00
H1659  H     0.83775   0.50364   0.10728   0.00000  Uiso   1.00
H1660  H     0.50989   0.80807   0.02544   0.00000  Uiso   1.00
H1661  H     0.84755   0.97210   0.06799   0.00000  Uiso   1.00
H1662  H     0.86538   0.92434   0.11508   0.00000  Uiso   1.00
H1663  H     0.89173   0.96571   0.12204   0.00000  Uiso   1.00
H1664  H     0.85464   0.95489   0.15465   0.00000  Uiso   1.00
H1665  H     0.67252   0.93927   0.92821   0.00000  Uiso   1.00
H1666  H     0.69901   0.93514   0.88393   0.00000  Uiso   1.00
H1667  H     0.61844   0.95949   0.88956   0.00000  Uiso   1.00
H1668  H     0.64487   0.95413   0.84572   0.00000  Uiso   1.00
H1669  H     0.63453   0.91472   0.87534   0.00000  Uiso   1.00
H1670  H     0.56073   0.82748   0.07179   0.00000  Uiso   1.00
H1671  H     0.53647   0.70378   0.97373   0.00000  Uiso   1.00
H1672  H     0.56486   0.80099   0.11607   0.00000  Uiso   1.00
H1673  H     0.54051   0.88156   0.11044   0.00000  Uiso   1.00
H1674  H     0.54587   0.85513   0.15428   0.00000  Uiso   1.00
H1675  H     0.58528   0.86546   0.12466   0.00000  Uiso   1.00
H1676  H     0.99636   0.66225   0.89272   0.00000  Uiso   1.00
H1677  H     0.52790   0.65245   0.93201   0.00000  Uiso   1.00
H1678  H     0.57566   0.63462   0.88492   0.00000  Uiso   1.00
H1679  H     0.53429   0.60827   0.87796   0.00000  Uiso   1.00
H1680  H     0.54512   0.64536   0.84536   0.00000  Uiso   1.00
H1681  H     0.91225   0.74636   0.60728   0.00000  Uiso   1.00
H1682  H     0.95378   0.78647   0.52627   0.00000  Uiso   1.00
H1683  H     0.90245   0.77790   0.56799   0.00000  Uiso   1.00
H1684  H     0.88462   0.82566   0.61508   0.00000  Uiso   1.00
H1685  H     0.85827   0.78429   0.62204   0.00000  Uiso   1.00
H1686  H     0.89536   0.79511   0.65465   0.00000  Uiso   1.00
H1687  H     0.57748   0.81073   0.42821   0.00000  Uiso   1.00
H1688  H     0.55099   0.81486   0.38393   0.00000  Uiso   1.00
H1689  H     0.63156   0.79051   0.38956   0.00000  Uiso   1.00
H1690  H     0.60513   0.79587   0.34572   0.00000  Uiso   1.00
H1691  H     0.61546   0.83528   0.37534   0.00000  Uiso   1.00
H1692  H     0.68927   0.92252   0.57179   0.00000  Uiso   1.00
O1693  O     0.75000   0.50000   0.25000   0.00000  Uiso   1.00
O1694  O     0.75000   0.96964   0.66317   0.00000  Uiso   1.00
O1695  O     0.88201   0.92311   0.34690   0.00000  Uiso   1.00
O1696  O     0.95216   0.90791   0.30792   0.00000  Uiso   1.00
O1697  O     0.94613   0.84848   0.32620   0.00000  Uiso   1.00
O1698  O     0.53547   0.62889   0.70063   0.00000  Uiso   1.00
O1699  O     0.57689   0.61799   0.65310   0.00000  Uiso   1.00
O1700  O     0.90950   0.54482   0.30240   0.00000  Uiso   1.00
O1701  O     0.85142   0.55191   0.32472   0.00000  Uiso   1.00
O1702  O     0.62621   0.96729   0.70641   0.00000  Uiso   1.00
O1703  O     0.61228   0.92888   0.65702   0.00000  Uiso   1.00
O1704  O     0.54784   0.59209   0.30792   0.00000  Uiso   1.00
O1705  O     0.96964   0.75000   0.33683   0.00000  Uiso   1.00
O1706  O     0.55387   0.65152   0.32620   0.00000  Uiso   1.00
O1707  O     0.96453   0.87111   0.70063   0.00000  Uiso   1.00
O1708  O     0.92311   0.88201   0.65311   0.00000  Uiso   1.00
O1709  O     0.59050   0.95518   0.30240   0.00000  Uiso   1.00
O1710  O     0.64858   0.94809   0.32472   0.00000  Uiso   1.00
O1711  O     0.87379   0.53271   0.70641   0.00000  Uiso   1.00
O1712  O     0.88772   0.57112   0.65702   0.00000  Uiso   1.00
O1713  O     0.69781   0.54102   0.10200   0.00000  Uiso   1.00
O1714  O     0.81580   0.51166   0.89982   0.00000  Uiso   1.00
O1715  O     0.98834   0.68420   0.10018   0.00000  Uiso   1.00
O1716  O     0.53036   0.75000   0.66317   0.00000  Uiso   1.00
O1717  O     0.95898   0.80219   0.89800   0.00000  Uiso   1.00
O1718  O     0.80219   0.95898   0.10200   0.00000  Uiso   1.00
O1719  O     0.68420   0.98834   0.89982   0.00000  Uiso   1.00
O1720  O     0.51166   0.81580   0.10018   0.00000  Uiso   1.00
O1721  O     0.54102   0.69781   0.89800   0.00000  Uiso   1.00
O1722  O     0.94781   0.79102   0.60200   0.00000  Uiso   1.00
O1723  O     0.56580   0.76166   0.39982   0.00000  Uiso   1.00
O1724  O     0.73834   0.93420   0.60018   0.00000  Uiso   1.00
O1725  O     0.70898   0.55219   0.39800   0.00000  Uiso   1.00
O1726  O     0.55219   0.70898   0.60200   0.00000  Uiso   1.00
O1727  O     0.50000   0.71964   0.83683   0.00000  Uiso   1.00
O1728  O     0.93420   0.73834   0.39982   0.00000  Uiso   1.00
O1729  O     0.76166   0.56580   0.60018   0.00000  Uiso   1.00
O1730  O     0.79102   0.94781   0.39800   0.00000  Uiso   1.00
O1731  O     0.50000   0.78036   0.16317   0.00000  Uiso   1.00
O1732  O     0.78036   0.50000   0.83683   0.00000  Uiso   1.00
O1733  O     0.71964   0.50000   0.16317   0.00000  Uiso   1.00
O1734  O     0.50000   0.78036   0.83683   0.00000  Uiso   1.00
O1735  O     0.50000   0.71964   0.16317   0.00000  Uiso   1.00
O1736  O     0.71964   0.50000   0.83683   0.00000  Uiso   1.00
O1737  O     0.75000   0.50000   0.75000   0.00000  Uiso   1.00
O1738  O     0.78036   0.50000   0.16317   0.00000  Uiso   1.00
O1739  O     0.70725   0.57307   0.27282   0.00000  Uiso   1.00
O1740  O     0.79274   0.92693   0.72718   0.00000  Uiso   1.00
O1741  O     0.92693   0.70726   0.27282   0.00000  Uiso   1.00
O1742  O     0.57307   0.79274   0.72718   0.00000  Uiso   1.00
O1743  O     0.79274   0.92693   0.27282   0.00000  Uiso   1.00
O1744  O     0.70725   0.57307   0.72718   0.00000  Uiso   1.00
O1745  O     0.57307   0.79274   0.27282   0.00000  Uiso   1.00
O1746  O     0.92693   0.70726   0.72718   0.00000  Uiso   1.00
O1747  O     0.70725   0.92693   0.72718   0.00000  Uiso   1.00
O1748  O     0.50000   0.75000   0.25000   0.00000  Uiso   1.00
O1749  O     0.79274   0.57307   0.27282   0.00000  Uiso   1.00
O1750  O     0.92693   0.79274   0.72718   0.00000  Uiso   1.00
O1751  O     0.57307   0.70725   0.27282   0.00000  Uiso   1.00
O1752  O     0.79274   0.57307   0.72718   0.00000  Uiso   1.00
O1753  O     0.70725   0.92693   0.27282   0.00000  Uiso   1.00
O1754  O     0.57307   0.70725   0.72718   0.00000  Uiso   1.00
O1755  O     0.92693   0.79274   0.27282   0.00000  Uiso   1.00
O1756  O     0.95725   0.82307   0.77282   0.00000  Uiso   1.00
O1757  O     0.54274   0.67693   0.22718   0.00000  Uiso   1.00
O1758  O     0.67693   0.95725   0.77282   0.00000  Uiso   1.00
O1759  O     0.50000   0.75000   0.75000   0.00000  Uiso   1.00
O1760  O     0.82307   0.54275   0.22718   0.00000  Uiso   1.00
O1761  O     0.54274   0.67693   0.77282   0.00000  Uiso   1.00
O1762  O     0.95725   0.82307   0.22718   0.00000  Uiso   1.00
O1763  O     0.82307   0.54275   0.77282   0.00000  Uiso   1.00
O1764  O     0.67693   0.95725   0.22718   0.00000  Uiso   1.00
O1765  O     0.95725   0.67693   0.22718   0.00000  Uiso   1.00
O1766  O     0.54274   0.82307   0.77282   0.00000  Uiso   1.00
O1767  O     0.67693   0.54275   0.22718   0.00000  Uiso   1.00
O1768  O     0.82307   0.95725   0.77282   0.00000  Uiso   1.00
O1769  O     0.54274   0.82307   0.22718   0.00000  Uiso   1.00
O1770  O     0.75000   0.96964   0.33683   0.00000  Uiso   1.00
O1771  O     0.95725   0.67693   0.77282   0.00000  Uiso   1.00
O1772  O     0.82307   0.95725   0.22718   0.00000  Uiso   1.00
O1773  O     0.67693   0.54275   0.77282   0.00000  Uiso   1.00
O1774  O     0.70518   0.84050   0.19760   0.00000  Uiso   1.00
O1775  O     0.69809   0.89858   0.17528   0.00000  Uiso   1.00
O1776  O     0.78271   0.62379   0.79360   0.00000  Uiso   1.00
O1777  O     0.82112   0.63772   0.84298   0.00000  Uiso   1.00
O1778  O     0.65791   0.70216   0.19208   0.00000  Uiso   1.00
O1779  O     0.59848   0.69613   0.17381   0.00000  Uiso   1.00
O1780  O     0.87889   0.78547   0.79937   0.00000  Uiso   1.00
O1781  O     0.75000   0.53036   0.66317   0.00000  Uiso   1.00
O1782  O     0.86799   0.82689   0.84690   0.00000  Uiso   1.00
O1783  O     0.79482   0.65950   0.19760   0.00000  Uiso   1.00
O1784  O     0.80191   0.60142   0.17528   0.00000  Uiso   1.00
O1785  O     0.71729   0.87621   0.79360   0.00000  Uiso   1.00
O1786  O     0.67888   0.86228   0.84298   0.00000  Uiso   1.00
O1787  O     0.84209   0.79784   0.19208   0.00000  Uiso   1.00
O1788  O     0.90152   0.80387   0.17381   0.00000  Uiso   1.00
O1789  O     0.62111   0.71453   0.79937   0.00000  Uiso   1.00
O1790  O     0.63201   0.67311   0.84690   0.00000  Uiso   1.00
O1791  O     0.70216   0.65791   0.80792   0.00000  Uiso   1.00
O1792  O     0.53036   0.75000   0.33683   0.00000  Uiso   1.00
O1793  O     0.69613   0.59848   0.82620   0.00000  Uiso   1.00
O1794  O     0.78547   0.87889   0.20063   0.00000  Uiso   1.00
O1795  O     0.82689   0.86799   0.15311   0.00000  Uiso   1.00
O1796  O     0.65950   0.79482   0.80240   0.00000  Uiso   1.00
O1797  O     0.60142   0.80191   0.82472   0.00000  Uiso   1.00
O1798  O     0.87621   0.71729   0.20641   0.00000  Uiso   1.00
O1799  O     0.86228   0.67888   0.15702   0.00000  Uiso   1.00
O1800  O     0.79784   0.84209   0.80792   0.00000  Uiso   1.00
O1801  O     0.80387   0.90152   0.82620   0.00000  Uiso   1.00
O1802  O     0.71453   0.62111   0.20063   0.00000  Uiso   1.00
O1803  O     0.96964   0.75000   0.66317   0.00000  Uiso   1.00
O1804  O     0.67311   0.63201   0.15310   0.00000  Uiso   1.00
O1805  O     0.84050   0.70518   0.80240   0.00000  Uiso   1.00
O1806  O     0.89858   0.69809   0.82472   0.00000  Uiso   1.00
O1807  O     0.62379   0.78271   0.20641   0.00000  Uiso   1.00
O1808  O     0.63772   0.82112   0.15702   0.00000  Uiso   1.00
O1809  O     0.95518   0.59050   0.69760   0.00000  Uiso   1.00
O1810  O     0.94809   0.64858   0.67528   0.00000  Uiso   1.00
O1811  O     0.53271   0.87379   0.29360   0.00000  Uiso   1.00
O1812  O     0.57112   0.88772   0.34298   0.00000  Uiso   1.00
O1813  O     0.90791   0.95216   0.69208   0.00000  Uiso   1.00
O1814  O     0.75000   0.53036   0.33683   0.00000  Uiso   1.00
O1815  O     0.84848   0.94613   0.67381   0.00000  Uiso   1.00
O1816  O     0.62889   0.53547   0.29937   0.00000  Uiso   1.00
O1817  O     0.61799   0.57689   0.34690   0.00000  Uiso   1.00
O1818  O     0.54482   0.90950   0.69760   0.00000  Uiso   1.00
O1819  O     0.55191   0.85142   0.67528   0.00000  Uiso   1.00
O1820  O     0.96729   0.62621   0.29360   0.00000  Uiso   1.00
O1821  O     0.92888   0.61228   0.34298   0.00000  Uiso   1.00
O1822  O     0.59209   0.54784   0.69208   0.00000  Uiso   1.00
O1823  O     0.65152   0.55387   0.67381   0.00000  Uiso   1.00
O1824  O     0.87111   0.96453   0.29937   0.00000  Uiso   1.00
Zn1825 Zn    0.70660   0.50000   0.21760   0.00000  Uiso   1.00
Zn1826 Zn    0.54340   0.75000   0.28240   0.00000  Uiso   1.00
Zn1827 Zn    0.75000   0.95660   0.71760   0.00000  Uiso   1.00
Zn1828 Zn    0.75000   0.54340   0.28240   0.00000  Uiso   1.00
Zn1829 Zn    0.54340   0.75000   0.71760   0.00000  Uiso   1.00
Zn1830 Zn    0.95660   0.75000   0.28240   0.00000  Uiso   1.00
Zn1831 Zn    0.75000   0.54340   0.71760   0.00000  Uiso   1.00
Zn1832 Zn    0.75000   0.95660   0.28240   0.00000  Uiso   1.00
Zn1833 Zn    0.79340   0.50000   0.78240   0.00000  Uiso   1.00
Zn1834 Zn    0.50000   0.70660   0.21760   0.00000  Uiso   1.00
Zn1835 Zn    0.50000   0.79340   0.78240   0.00000  Uiso   1.00
Zn1836 Zn    0.79340   0.50000   0.21760   0.00000  Uiso   1.00
Zn1837 Zn    0.70660   0.50000   0.78240   0.00000  Uiso   1.00
Zn1838 Zn    0.50000   0.79340   0.21760   0.00000  Uiso   1.00
Zn1839 Zn    0.50000   0.70660   0.78240   0.00000  Uiso   1.00
Zn1840 Zn    0.95660   0.75000   0.71760   0.00000  Uiso   1.00
loop_
_geom_bond_atom_site_label_1
_geom_bond_atom_site_label_2
_geom_bond_distance
_geom_bond_site_symmetry_2
_ccdc_geom_bond_type
C1     C79     1.398   .     A
C1     H185    1.083   .     S
C1     C112    1.399   .     S
C2     C117    1.397   .     A
C2     C104    1.396   .     A
C2     H186    1.084   .     S
C3     C131    1.450   .     S
C3     C167    1.412   .     A
C3     C160    1.412   .     A
C4     C132    1.449   .     S
C4     C170    1.413   .     A
C4     C159    1.413   .     A
C5     C158    1.411   .     A
C5     C133    1.451   .     S
C5     C169    1.411   .     A
C6     C172    1.412   .     A
C6     C157    1.412   .     A
C6     C134    1.450   .     S
C7     C156    1.412   .     A
C7     C171    1.412   .     A
C7     C135    1.450   .     S
C8     C145    1.450   .     S
C8     C175    1.412   .     A
C8     C155    1.412   .     A
C9     C146    1.450   .     S
C9     C173    1.412   .     A
C9     C154    1.412   .     A
C10    C138    1.449   .     S
C10    C177    1.413   .     A
C10    C153    1.413   .     A
C11    C176    1.411   .     A
C11    C151    1.411   .     A
C11    C139    1.451   .     S
C12    C150    1.412   .     A
C12    C140    1.450   .     S
C12    C179    1.412   .     A
C13    C1038   1.397   .     A
C13    C105    1.396   .     A
C13    H197    1.084   .     S
C14    C149    1.412   .     A
C14    C142    1.450   .     S
C14    C178    1.412   .     A
C15    C143    1.449   .     S
C15    C181    1.413   .     A
C15    C148    1.413   .     A
C16    C144    1.451   .     S
C16    C180    1.411   .     A
C16    C147    1.411   .     A
C17    C1019   1.411   1_545 A
C17    C79     1.411   .     S
C17    C128    1.465   .     S
C18    C1020   1.417   1_545 A
C18    C90     1.417   .     S
C18    C127    1.478   .     S
C19    C126    1.478   .     S
C19    C556    1.417   1_455 A
C19    C101    1.417   .     S
C20    C558    1.411   1_455 A
C20    C102    1.411   .     S
C20    C125    1.465   .     S
C21    C124    1.465   .     S
C21    C107    1.411   .     A
C21    C563    1.411   1_455 S
C22    C569    1.417   1_455 A
C22    C123    1.478   .     S
C22    C104    1.417   .     S
C23    C1025   1.417   1_545 A
C23    C122    1.478   .     S
C23    C110    1.417   .     S
C24    C106    1.398   .     A
C24    H208    1.083   .     S
C24    C120    1.399   .     S
C25    C121    1.465   .     S
C25    C106    1.411   .     A
C25    C1031   1.411   1_545 S
C26    O394    1.223   .     D
C26    C147    1.490   .     S
C26    O395    1.398   .     S
C27    O397    1.398   .     S
C27    O396    1.223   .     D
C27    C148    1.493   .     S
C28    O399    1.398   .     S
C28    C149    1.492   .     S
C28    O398    1.223   .     D
C29    O402    1.398   .     S
C29    O400    1.223   .     D
C29    C150    1.492   .     S
C30    O403    1.223   .     D
C30    O404    1.398   .     S
C30    C151    1.490   .     S
C31    O406    1.398   .     S
C31    C153    1.493   .     S
C31    O405    1.223   .     D
C32    O408    1.398   .     S
C32    C154    1.492   .     S
C32    O407    1.223   .     D
C33    O410    1.398   .     S
C33    C155    1.492   .     S
C33    O409    1.223   .     D
C34    O411    1.223   .     D
C34    C156    1.492   .     S
C34    O413    1.398   .     S
C35    C107    1.398   .     A
C35    C116    1.399   .     A
C35    H218    1.083   .     S
C36    O414    1.223   .     D
C36    C157    1.492   .     S
C36    O415    1.398   .     S
C37    O417    1.398   .     S
C37    O416    1.223   .     D
C37    C158    1.490   .     S
C38    O419    1.398   .     S
C38    C159    1.493   .     S
C38    O418    1.223   .     D
C39    C160    1.492   .     S
C39    O421    1.398   .     S
C39    O420    1.223   .     D
C40    O422    1.223   .     D
C40    O424    1.398   .     S
C40    C161    1.492   .     S
C41    C162    1.490   .     S
C41    O426    1.398   .     S
C41    O425    1.223   .     D
C42    O427    1.223   .     D
C42    O428    1.398   .     S
C42    C164    1.493   .     S
C43    O430    1.398   .     S
C43    C165    1.490   .     S
C43    O429    1.223   .     D
C44    O431    1.223   .     D
C44    O432    1.398   .     S
C44    C166    1.493   .     S
C45    O435    1.398   .     S
C45    O433    1.223   .     D
C45    C167    1.492   .     S
C46    C109    1.396   .     A
C46    H219    1.084   .     S
C46    C577    1.397   .     S
C47    O436    1.223   .     D
C47    C168    1.492   .     S
C47    O437    1.398   .     S
C48    C169    1.490   .     S
C48    O439    1.398   .     S
C48    O438    1.223   .     D
C49    O441    1.398   .     S
C49    C170    1.493   .     S
C49    O440    1.223   .     D
C50    C171    1.492   .     S
C50    O443    1.398   .     S
C50    O442    1.223   .     D
C51    O315    1.398   .     S
C51    C172    1.492   .     S
C51    O444    1.223   .     D
C52    O317    1.398   .     S
C52    O316    1.223   .     D
C52    C173    1.492   .     S
C53    O318    1.223   .     D
C53    C175    1.492   .     S
C53    O319    1.398   .     S
C54    C176    1.490   .     S
C54    O320    1.223   .     D
C54    O321    1.398   .     S
C55    O322    1.223   .     D
C55    C177    1.493   .     S
C55    O323    1.398   .     S
C56    C178    1.492   .     S
C56    O326    1.398   .     S
C56    O324    1.223   .     D
C57    H220    1.084   .     S
C57    C110    1.396   .     A
C57    C118    1.397   .     S
C58    O328    1.398   .     S
C58    C179    1.492   .     S
C58    O327    1.223   .     D
C59    O330    1.398   .     S
C59    C180    1.490   .     S
C59    O329    1.223   .     D
C60    O331    1.223   .     D
C60    C181    1.493   .     S
C60    O332    1.398   .     S
C61    C62     1.521   .     S
C61    H259    1.113   .     S
C61    O333    1.413   .     S
C61    H1177   1.115   1_545 S
C62    H261    1.110   .     S
C62    H262    1.110   .     S
C62    H260    1.110   .     S
C63    O334    1.412   .     S
C63    H264    1.115   .     S
C63    C64     1.521   .     S
C63    H263    1.114   .     S
C64    H265    1.110   .     S
C64    H267    1.111   .     S
C64    H266    1.110   .     S
C65    H268    1.114   .     S
C65    H270    1.115   .     S
C65    O335    1.412   .     S
C65    C66     1.521   .     S
C66    H273    1.110   .     S
C66    H271    1.111   .     S
C66    H272    1.110   .     S
C67    O337    1.413   .     S
C67    H275    1.113   .     S
C67    C69     1.521   .     S
C67    H734    1.115   .     S
C68    C1040   1.399   .     A
C68    H221    1.083   .     S
C68    C111    1.398   .     A
C69    H278    1.110   .     S
C69    H277    1.110   .     S
C69    H276    1.110   .     S
C70    O338    1.413   .     S
C70    H281    1.113   .     S
C70    C71     1.521   .     S
C70    H1199   1.115   .     S
C71    H284    1.110   .     S
C71    H282    1.110   .     S
C71    H283    1.110   .     S
C72    H285    1.114   .     S
C72    C73     1.521   .     S
C72    O339    1.412   .     S
C72    H286    1.115   .     S
C73    H287    1.111   .     S
C73    H288    1.110   .     S
C73    H289    1.110   .     S
C74    O340    1.412   .     S
C74    H292    1.115   .     S
C74    H290    1.114   .     S
C74    C75     1.521   .     S
C75    H294    1.110   .     S
C75    H295    1.110   .     S
C75    H293    1.111   .     S
C76    O341    1.413   .     S
C76    H297    1.113   .     S
C76    C77     1.521   .     S
C76    H756    1.115   1_455 S
C77    H299    1.110   .     S
C77    H298    1.110   .     S
C77    H300    1.110   .     S
C78    O342    1.413   .     S
C78    C80     1.521   .     S
C78    H303    1.113   .     S
C78    H301    1.115   .     S
C79    O333    1.385   .     S
C80    H305    1.110   .     S
C80    H306    1.110   .     S
C80    H304    1.110   .     S
C81    O343    1.412   .     S
C81    H307    1.114   .     S
C81    C82     1.521   .     S
C81    H308    1.115   .     S
C82    H311    1.110   .     S
C82    H309    1.111   .     S
C82    H310    1.110   .     S
C83    H312    1.114   .     S
C83    C84     1.521   .     S
C83    O344    1.412   .     S
C83    H187    1.115   .     S
C84    H189    1.110   .     S
C84    H188    1.111   .     S
C84    H190    1.110   .     S
C85    H191    1.115   .     S
C85    C86     1.521   .     S
C85    H192    1.113   .     S
C85    O345    1.413   .     S
C86    H193    1.110   .     S
C86    H195    1.110   .     S
C86    H194    1.110   .     S
C87    H198    1.113   .     S
C87    O346    1.413   .     S
C87    C88     1.521   .     S
C87    H196    1.115   .     S
C88    H199    1.110   .     S
C88    H200    1.110   .     S
C88    H201    1.110   .     S
C89    C91     1.521   .     S
C89    H202    1.114   .     S
C89    O348    1.412   .     S
C89    H203    1.115   .     S
C90    C97     1.396   .     A
C90    O334    1.383   .     S
C91    H206    1.110   .     S
C91    H205    1.110   .     S
C91    H204    1.111   .     S
C92    O349    1.412   .     S
C92    H207    1.114   .     S
C92    C93     1.521   .     S
C92    H209    1.115   .     S
C93    H211    1.110   .     S
C93    H210    1.111   .     S
C93    H212    1.110   .     S
C94    H214    1.113   .     S
C94    O350    1.413   .     S
C94    H213    1.115   .     S
C94    C95     1.521   .     S
C95    H217    1.110   .     S
C95    H216    1.110   .     S
C95    H215    1.110   .     S
C96    C108    1.396   .     A
C96    O335    1.383   .     S
C96    C479    1.417   .     A
C97    H225    1.084   .     S
C97    C113    1.397   .     S
C98    C480    1.411   .     A
C98    C119    1.398   .     A
C98    O337    1.385   .     S
C99    O338    1.385   .     S
C99    C937    1.411   .     A
C99    C130    1.398   .     A
C100   O339    1.383   .     S
C100   C141    1.396   .     A
C100   C938    1.417   .     A
C101   C152    1.396   .     A
C101   O340    1.383   .     S
C102   C163    1.398   .     A
C102   O341    1.385   .     S
C103   C174    1.398   .     A
C103   O342    1.385   .     S
C103   C481    1.411   .     S
C104   O343    1.383   .     S
C105   C943    1.417   .     A
C105   O344    1.383   .     S
C106   O345    1.385   .     S
C107   O346    1.385   .     S
C108   H236    1.084   .     S
C108   C574    1.397   .     A
C109   C482    1.417   .     A
C109   O348    1.383   .     S
C110   O349    1.383   .     S
C111   O350    1.385   .     S
C111   C945    1.411   .     S
C112   C1050   1.399   1_545 A
C112   C113    1.467   1_554 S
C113   C1061   1.397   1_545 A
C113   C112    1.467   1_556 S
C114   C568    1.397   1_455 A
C114   C115    1.467   1_554 S
C114   C152    1.397   .     S
C115   C579    1.399   1_455 A
C115   C114    1.467   1_556 S
C115   C163    1.399   .     S
C116   C117    1.467   .     S
C116   C634    1.399   1_455 S
C117   C506    1.397   1_455 S
C118   C120    1.467   .     S
C118   C933    1.397   1_545 A
C119   H247    1.083   .     S
C119   C575    1.399   .     A
C120   C988    1.399   1_545 A
C121   O434    1.278   .     A
C121   O1310   1.278   1_545 S
C122   O1234   1.281   1_545 A
C122   O401    1.281   .     S
C123   O785    1.281   1_455 A
C123   O412    1.281   .     S
C124   O336    1.278   .     A
C124   O883    1.278   1_455 S
C125   O347    1.278   .     A
C125   O354    1.278   .     A
C126   O351    1.281   .     S
C126   O355    1.281   .     S
C127   O356    1.281   .     A
C127   O352    1.281   .     A
C128   O358    1.278   .     A
C128   O353    1.278   .     A
C129   O359    1.274   .     A
C129   O387    1.274   .     A
C129   C184    1.450   .     S
C130   H258    1.083   .     S
C130   C1032   1.399   .     A
C131   O388    1.275   .     A
C131   O360    1.275   .     A
C132   O361    1.274   .     A
C132   O385    1.274   .     A
C133   O386    1.275   .     A
C133   O362    1.275   .     A
C134   O363    1.274   .     A
C134   O392    1.274   .     A
C135   O364    1.275   .     A
C135   O393    1.275   .     A
C136   O365    1.274   .     A
C136   O389    1.274   .     A
C136   C182    1.449   .     S
C137   O366    1.275   .     A
C137   C183    1.451   .     S
C137   O391    1.275   .     A
C138   O367    1.274   .     A
C138   O378    1.274   .     A
C139   O369    1.275   .     A
C139   O380    1.275   .     A
C140   O370    1.274   .     A
C140   O376    1.274   .     A
C141   C1033   1.397   .     A
C141   H269    1.084   .     S
C142   O377    1.275   .     A
C142   O371    1.275   .     A
C143   O383    1.274   .     A
C143   O372    1.274   .     A
C144   O373    1.275   .     A
C144   O384    1.275   .     A
C145   O381    1.274   .     A
C145   O374    1.274   .     A
C146   O382    1.275   .     A
C146   O375    1.275   .     A
C147   C164    1.407   .     A
C148   C162    1.407   .     A
C149   C161    1.407   .     A
C150   C160    1.407   .     A
C151   C159    1.407   .     A
C152   H280    1.084   .     S
C153   C158    1.407   .     A
C154   C157    1.407   .     A
C155   C156    1.407   .     A
C161   C184    1.412   .     A
C162   C183    1.411   .     A
C163   H291    1.083   .     S
C164   C182    1.413   .     A
C165   C183    1.411   .     A
C165   C181    1.407   .     A
C166   C182    1.413   .     A
C166   C180    1.407   .     A
C167   C179    1.407   .     A
C168   C178    1.407   .     A
C168   C184    1.412   .     A
C169   C177    1.407   .     A
C170   C176    1.407   .     A
C171   C175    1.407   .     A
C172   C173    1.407   .     A
C174   H302    1.083   .     S
C174   C576    1.399   .     S
H222   O395    1.014   .     S
H223   O397    1.014   .     S
H224   O399    1.014   .     S
H226   O402    1.014   .     S
H227   O404    1.014   .     S
H228   O406    1.014   .     S
H229   O408    1.014   .     S
H230   O410    1.014   .     S
H231   O413    1.014   .     S
H232   O415    1.014   .     S
H233   O417    1.014   .     S
H234   O419    1.014   .     S
H235   O421    1.014   .     S
H237   O424    1.014   .     S
H238   O426    1.014   .     S
H239   O428    1.014   .     S
H240   O430    1.014   .     S
H241   O432    1.014   .     S
H242   O435    1.014   .     S
H243   O437    1.014   .     S
H244   O439    1.014   .     S
H245   O441    1.014   .     S
H246   O443    1.014   .     S
H248   O315    1.014   .     S
H249   O317    1.014   .     S
H250   O319    1.014   .     S
H251   O321    1.014   .     S
H252   O323    1.014   .     S
H253   O326    1.014   .     S
H254   O328    1.014   .     S
H255   O330    1.014   .     S
H256   O332    1.014   .     S
H257   C981    1.115   .     S
H274   C527    1.115   1_455 S
H279   C990    1.115   1_545 S
H296   C536    1.115   .     S
O313   Zn456   1.941   .     S
O313   Zn448   1.941   .     S
O313   Zn445   1.941   .     S
O313   Zn1372  1.941   1_545 S
O314   Zn447   1.944   .     S
O314   C1042   1.281   .     A
O325   Zn450   1.944   .     S
O325   C583    1.281   .     A
O336   Zn449   1.944   .     S
O347   Zn459   1.944   .     S
O351   Zn458   1.944   .     S
O352   Zn453   1.944   .     S
O353   Zn445   1.944   .     S
O354   Zn455   1.944   .     S
O355   Zn454   1.944   .     S
O356   Zn457   1.944   .     S
O357   Zn451   1.941   .     S
O357   Zn457   1.941   .     S
O357   Zn453   1.941   .     S
O357   Zn1367  1.941   1_545 S
O358   Zn456   1.944   .     S
O359   Zn448   1.929   .     S
O360   Zn447   1.929   .     S
O361   Zn450   1.928   .     S
O362   Zn449   1.928   .     S
O363   Zn452   1.929   .     S
O364   Zn451   1.929   .     S
O365   Zn446   1.928   .     S
O366   Zn460   1.928   .     S
O367   Zn447   1.928   .     S
O368   Zn458   1.941   .     S
O368   Zn454   1.941   .     S
O368   Zn446   1.941   .     S
O368   Zn910   1.941   1_455 S
O369   Zn448   1.928   .     S
O370   Zn460   1.929   .     S
O371   Zn446   1.929   .     S
O372   Zn451   1.928   .     S
O373   Zn452   1.928   .     S
O374   Zn449   1.929   .     S
O375   Zn450   1.929   .     S
O376   Zn915   1.929   .     S
O377   Zn454   1.929   .     S
O378   Zn1377  1.928   .     S
O379   Zn459   1.941   .     S
O379   Zn455   1.941   .     S
O379   Zn449   1.941   .     S
O379   Zn920   1.941   1_455 S
O380   Zn456   1.928   .     S
O381   Zn459   1.929   .     S
O382   Zn918   1.929   .     S
O383   Zn453   1.928   .     S
O384   Zn1365  1.928   .     S
O385   Zn914   1.928   .     S
O386   Zn455   1.928   .     S
O387   Zn445   1.929   .     S
O388   Zn1373  1.929   .     S
O389   Zn458   1.928   .     S
O390   Zn452   1.944   .     S
O390   C1041   1.278   .     S
O391   Zn919   1.928   .     S
O392   Zn1376  1.929   .     S
O393   Zn457   1.929   .     S
O401   Zn451   1.944   .     S
O412   Zn446   1.944   .     S
O423   Zn460   1.944   .     S
O423   C584    1.278   .     S
O434   Zn448   1.944   .     S
Zn445  O1304   1.928   1_545 S
Zn447  O1277   1.941   .     S
Zn450  O828    1.941   .     S
Zn452  O1233   1.941   .     S
Zn453  O1308   1.929   1_545 S
Zn454  O845    1.928   1_455 S
Zn455  O836    1.929   1_455 S
Zn456  O1312   1.929   1_545 S
Zn457  O1298   1.928   1_545 S
Zn458  O842    1.929   1_455 S
Zn459  O851    1.928   1_455 S
Zn460  O839    1.941   .     S
C461   C539    1.398   .     A
C461   H645    1.083   .     S
C461   C572    1.399   .     S
C462   C577    1.397   .     A
C462   C564    1.396   .     A
C462   H646    1.084   .     S
C463   C591    1.450   .     S
C463   C627    1.412   .     A
C463   C620    1.412   .     A
C464   C592    1.449   .     S
C464   C630    1.413   .     A
C464   C619    1.413   .     A
C465   C618    1.411   .     A
C465   C593    1.451   .     S
C465   C629    1.411   .     A
C466   C632    1.412   .     A
C466   C617    1.412   .     A
C466   C594    1.450   .     S
C467   C616    1.412   .     A
C467   C631    1.412   .     A
C467   C595    1.450   .     S
C468   C605    1.450   .     S
C468   C635    1.412   .     A
C468   C615    1.412   .     A
C469   C606    1.450   .     S
C469   C633    1.412   .     A
C469   C614    1.412   .     A
C470   C598    1.449   .     S
C470   C637    1.413   .     A
C470   C613    1.413   .     A
C471   C636    1.411   .     A
C471   C611    1.411   .     A
C471   C599    1.451   .     S
C472   C610    1.412   .     A
C472   C600    1.450   .     S
C472   C639    1.412   .     A
C473   C1498   1.397   .     A
C473   C565    1.396   .     A
C473   H657    1.084   .     S
C474   C609    1.412   .     A
C474   C602    1.450   .     S
C474   C638    1.412   .     A
C475   C603    1.449   .     S
C475   C641    1.413   .     A
C475   C608    1.413   .     A
C476   C604    1.451   .     S
C476   C640    1.411   .     A
C476   C607    1.411   .     A
C477   C1479   1.411   1_545 A
C477   C539    1.411   .     S
C477   C588    1.465   .     S
C478   C1480   1.417   1_545 A
C478   C550    1.417   .     S
C478   C587    1.478   .     S
C479   C586    1.478   .     S
C479   C561    1.417   .     S
C480   C562    1.411   .     S
C480   C585    1.465   .     S
C481   C584    1.465   .     S
C481   C567    1.411   .     A
C482   C583    1.478   .     S
C482   C564    1.417   .     S
C483   C1485   1.417   1_545 A
C483   C582    1.478   .     S
C483   C570    1.417   .     S
C484   C566    1.398   .     A
C484   H668    1.083   .     S
C484   C580    1.399   .     S
C485   C581    1.465   .     S
C485   C566    1.411   .     A
C485   C1491   1.411   1_545 S
C486   O854    1.223   .     D
C486   C607    1.490   .     S
C486   O855    1.398   .     S
C487   O857    1.398   .     S
C487   O856    1.223   .     D
C487   C608    1.493   .     S
C488   O859    1.398   .     S
C488   C609    1.492   .     S
C488   O858    1.223   .     D
C489   O862    1.398   .     S
C489   O860    1.223   .     D
C489   C610    1.492   .     S
C490   O863    1.223   .     D
C490   O864    1.398   .     S
C490   C611    1.490   .     S
C491   O866    1.398   .     S
C491   C613    1.493   .     S
C491   O865    1.223   .     D
C492   O868    1.398   .     S
C492   C614    1.492   .     S
C492   O867    1.223   .     D
C493   O870    1.398   .     S
C493   C615    1.492   .     S
C493   O869    1.223   .     D
C494   O871    1.223   .     D
C494   C616    1.492   .     S
C494   O873    1.398   .     S
C495   C567    1.398   .     A
C495   C576    1.399   .     A
C495   H678    1.083   .     S
C496   O874    1.223   .     D
C496   C617    1.492   .     S
C496   O875    1.398   .     S
C497   O877    1.398   .     S
C497   O876    1.223   .     D
C497   C618    1.490   .     S
C498   O879    1.398   .     S
C498   C619    1.493   .     S
C498   O878    1.223   .     D
C499   C620    1.492   .     S
C499   O881    1.398   .     S
C499   O880    1.223   .     D
C500   O882    1.223   .     D
C500   O884    1.398   .     S
C500   C621    1.492   .     S
C501   C622    1.490   .     S
C501   O886    1.398   .     S
C501   O885    1.223   .     D
C502   O887    1.223   .     D
C502   O888    1.398   .     S
C502   C624    1.493   .     S
C503   O890    1.398   .     S
C503   C625    1.490   .     S
C503   O889    1.223   .     D
C504   O891    1.223   .     D
C504   O892    1.398   .     S
C504   C626    1.493   .     S
C505   O895    1.398   .     S
C505   O893    1.223   .     D
C505   C627    1.492   .     S
C506   C569    1.396   .     A
C506   H679    1.084   .     S
C506   C117    1.397   1_655 S
C507   O896    1.223   .     D
C507   C628    1.492   .     S
C507   O897    1.398   .     S
C508   C629    1.490   .     S
C508   O899    1.398   .     S
C508   O898    1.223   .     D
C509   O901    1.398   .     S
C509   C630    1.493   .     S
C509   O900    1.223   .     D
C510   C631    1.492   .     S
C510   O903    1.398   .     S
C510   O902    1.223   .     D
C511   O775    1.398   .     S
C511   C632    1.492   .     S
C511   O904    1.223   .     D
C512   O777    1.398   .     S
C512   O776    1.223   .     D
C512   C633    1.492   .     S
C513   O778    1.223   .     D
C513   C635    1.492   .     S
C513   O779    1.398   .     S
C514   C636    1.490   .     S
C514   O780    1.223   .     D
C514   O781    1.398   .     S
C515   O782    1.223   .     D
C515   C637    1.493   .     S
C515   O783    1.398   .     S
C516   C638    1.492   .     S
C516   O786    1.398   .     S
C516   O784    1.223   .     D
C517   H680    1.084   .     S
C517   C570    1.396   .     A
C517   C578    1.397   .     S
C518   O788    1.398   .     S
C518   C639    1.492   .     S
C518   O787    1.223   .     D
C519   O790    1.398   .     S
C519   C640    1.490   .     S
C519   O789    1.223   .     D
C520   O791    1.223   .     D
C520   C641    1.493   .     S
C520   O792    1.398   .     S
C521   C522    1.521   .     S
C521   H719    1.113   .     S
C521   O793    1.413   .     S
C521   H1637   1.115   1_545 S
C522   H721    1.110   .     S
C522   H722    1.110   .     S
C522   H720    1.110   .     S
C523   O794    1.412   .     S
C523   H724    1.115   .     S
C523   C524    1.521   .     S
C523   H723    1.114   .     S
C524   H725    1.110   .     S
C524   H727    1.111   .     S
C524   H726    1.110   .     S
C525   H728    1.114   .     S
C525   H730    1.115   .     S
C525   O795    1.412   .     S
C525   C526    1.521   .     S
C526   H733    1.110   .     S
C526   H731    1.111   .     S
C526   H732    1.110   .     S
C527   O797    1.413   .     S
C527   H735    1.113   .     S
C527   C529    1.521   .     S
C527   H274    1.115   1_655 S
C528   C1500   1.399   .     A
C528   H681    1.083   .     S
C528   C571    1.398   .     A
C529   H738    1.110   .     S
C529   H737    1.110   .     S
C529   H736    1.110   .     S
C530   O798    1.413   .     S
C530   H741    1.113   .     S
C530   C531    1.521   .     S
C530   H1659   1.115   .     S
C531   H744    1.110   .     S
C531   H742    1.110   .     S
C531   H743    1.110   .     S
C532   H745    1.114   .     S
C532   C533    1.521   .     S
C532   O799    1.412   .     S
C532   H746    1.115   .     S
C533   H747    1.111   .     S
C533   H748    1.110   .     S
C533   H749    1.110   .     S
C534   O800    1.412   .     S
C534   H752    1.115   .     S
C534   H750    1.114   .     S
C534   C535    1.521   .     S
C535   H754    1.110   .     S
C535   H755    1.110   .     S
C535   H753    1.111   .     S
C536   O801    1.413   .     S
C536   H757    1.113   .     S
C536   C537    1.521   .     S
C537   H759    1.110   .     S
C537   H758    1.110   .     S
C537   H760    1.110   .     S
C538   O802    1.413   .     S
C538   C540    1.521   .     S
C538   H763    1.113   .     S
C538   H761    1.115   .     S
C539   O793    1.385   .     S
C540   H765    1.110   .     S
C540   H766    1.110   .     S
C540   H764    1.110   .     S
C541   O803    1.412   .     S
C541   H767    1.114   .     S
C541   C542    1.521   .     S
C541   H768    1.115   .     S
C542   H771    1.110   .     S
C542   H769    1.111   .     S
C542   H770    1.110   .     S
C543   H772    1.114   .     S
C543   C544    1.521   .     S
C543   O804    1.412   .     S
C543   H647    1.115   .     S
C544   H649    1.110   .     S
C544   H648    1.111   .     S
C544   H650    1.110   .     S
C545   H651    1.115   .     S
C545   C546    1.521   .     S
C545   H652    1.113   .     S
C545   O805    1.413   .     S
C546   H653    1.110   .     S
C546   H655    1.110   .     S
C546   H654    1.110   .     S
C547   H658    1.113   .     S
C547   O806    1.413   .     S
C547   C548    1.521   .     S
C547   H656    1.115   .     S
C548   H659    1.110   .     S
C548   H660    1.110   .     S
C548   H661    1.110   .     S
C549   C551    1.521   .     S
C549   H662    1.114   .     S
C549   O808    1.412   .     S
C549   H663    1.115   .     S
C550   C557    1.396   .     A
C550   O794    1.383   .     S
C551   H666    1.110   .     S
C551   H665    1.110   .     S
C551   H664    1.111   .     S
C552   O809    1.412   .     S
C552   H667    1.114   .     S
C552   C553    1.521   .     S
C552   H669    1.115   .     S
C553   H671    1.110   .     S
C553   H670    1.111   .     S
C553   H672    1.110   .     S
C554   H674    1.113   .     S
C554   O810    1.413   .     S
C554   H673    1.115   .     S
C554   C555    1.521   .     S
C555   H677    1.110   .     S
C555   H676    1.110   .     S
C555   H675    1.110   .     S
C556   C568    1.396   .     A
C556   O795    1.383   .     S
C556   C19     1.417   1_655 A
C557   H685    1.084   .     S
C557   C573    1.397   .     S
C558   C20     1.411   1_655 A
C558   C579    1.398   .     A
C558   O797    1.385   .     S
C559   O798    1.385   .     S
C559   C1397   1.411   .     A
C559   C590    1.398   .     A
C560   O799    1.383   .     S
C560   C601    1.396   .     A
C560   C1398   1.417   .     A
C561   C612    1.396   .     A
C561   O800    1.383   .     S
C562   C623    1.398   .     A
C562   O801    1.385   .     S
C563   C634    1.398   .     A
C563   O802    1.385   .     S
C563   C21     1.411   1_655 S
C564   O803    1.383   .     S
C565   C1403   1.417   .     A
C565   O804    1.383   .     S
C566   O805    1.385   .     S
C567   O806    1.385   .     S
C568   H696    1.084   .     S
C568   C114    1.397   1_655 A
C569   C22     1.417   1_655 A
C569   O808    1.383   .     S
C570   O809    1.383   .     S
C571   O810    1.385   .     S
C571   C1405   1.411   .     S
C572   C1510   1.399   1_545 A
C572   C573    1.467   1_554 S
C573   C1521   1.397   1_545 A
C573   C572    1.467   1_556 S
C574   C575    1.467   1_554 S
C574   C612    1.397   .     S
C575   C574    1.467   1_556 S
C575   C623    1.399   .     S
C576   C577    1.467   .     S
C578   C580    1.467   .     S
C578   C1393   1.397   1_545 A
C579   H707    1.083   .     S
C579   C115    1.399   1_655 A
C580   C1448   1.399   1_545 A
C581   O894    1.278   .     A
C581   O1770   1.278   1_545 S
C582   O1694   1.281   1_545 A
C582   O861    1.281   .     S
C583   O872    1.281   .     S
C584   O796    1.278   .     A
C585   O807    1.278   .     A
C585   O814    1.278   .     A
C586   O811    1.281   .     S
C586   O815    1.281   .     S
C587   O816    1.281   .     A
C587   O812    1.281   .     A
C588   O818    1.278   .     A
C588   O813    1.278   .     A
C589   O819    1.274   .     A
C589   O847    1.274   .     A
C589   C644    1.450   .     S
C590   H718    1.083   .     S
C590   C1492   1.399   .     A
C591   O848    1.275   .     A
C591   O820    1.275   .     A
C592   O821    1.274   .     A
C592   O845    1.274   .     A
C593   O846    1.275   .     A
C593   O822    1.275   .     A
C594   O823    1.274   .     A
C594   O852    1.274   .     A
C595   O824    1.275   .     A
C595   O853    1.275   .     A
C596   O825    1.274   .     A
C596   O849    1.274   .     A
C596   C642    1.449   .     S
C597   O826    1.275   .     A
C597   C643    1.451   .     S
C597   O851    1.275   .     A
C598   O827    1.274   .     A
C598   O838    1.274   .     A
C599   O829    1.275   .     A
C599   O840    1.275   .     A
C600   O830    1.274   .     A
C600   O836    1.274   .     A
C601   C1493   1.397   .     A
C601   H729    1.084   .     S
C602   O837    1.275   .     A
C602   O831    1.275   .     A
C603   O843    1.274   .     A
C603   O832    1.274   .     A
C604   O833    1.275   .     A
C604   O844    1.275   .     A
C605   O841    1.274   .     A
C605   O834    1.274   .     A
C606   O842    1.275   .     A
C606   O835    1.275   .     A
C607   C624    1.407   .     A
C608   C622    1.407   .     A
C609   C621    1.407   .     A
C610   C620    1.407   .     A
C611   C619    1.407   .     A
C612   H740    1.084   .     S
C613   C618    1.407   .     A
C614   C617    1.407   .     A
C615   C616    1.407   .     A
C621   C644    1.412   .     A
C622   C643    1.411   .     A
C623   H751    1.083   .     S
C624   C642    1.413   .     A
C625   C643    1.411   .     A
C625   C641    1.407   .     A
C626   C642    1.413   .     A
C626   C640    1.407   .     A
C627   C639    1.407   .     A
C628   C638    1.407   .     A
C628   C644    1.412   .     A
C629   C637    1.407   .     A
C630   C636    1.407   .     A
C631   C635    1.407   .     A
C632   C633    1.407   .     A
C634   H762    1.083   .     S
C634   C116    1.399   1_655 S
H682   O855    1.014   .     S
H683   O857    1.014   .     S
H684   O859    1.014   .     S
H686   O862    1.014   .     S
H687   O864    1.014   .     S
H688   O866    1.014   .     S
H689   O868    1.014   .     S
H690   O870    1.014   .     S
H691   O873    1.014   .     S
H692   O875    1.014   .     S
H693   O877    1.014   .     S
H694   O879    1.014   .     S
H695   O881    1.014   .     S
H697   O884    1.014   .     S
H698   O886    1.014   .     S
H699   O888    1.014   .     S
H700   O890    1.014   .     S
H701   O892    1.014   .     S
H702   O895    1.014   .     S
H703   O897    1.014   .     S
H704   O899    1.014   .     S
H705   O901    1.014   .     S
H706   O903    1.014   .     S
H708   O775    1.014   .     S
H709   O777    1.014   .     S
H710   O779    1.014   .     S
H711   O781    1.014   .     S
H712   O783    1.014   .     S
H713   O786    1.014   .     S
H714   O788    1.014   .     S
H715   O790    1.014   .     S
H716   O792    1.014   .     S
H717   C1441   1.115   .     S
H739   C1450   1.115   1_545 S
H756   C76     1.115   1_655 S
O773   Zn916   1.941   .     S
O773   Zn908   1.941   .     S
O773   Zn905   1.941   .     S
O773   Zn1832  1.941   1_545 S
O774   Zn907   1.944   .     S
O774   C1502   1.281   .     A
O785   Zn910   1.944   .     S
O785   C123    1.281   1_655 A
O796   Zn909   1.944   .     S
O807   Zn919   1.944   .     S
O811   Zn918   1.944   .     S
O812   Zn913   1.944   .     S
O813   Zn905   1.944   .     S
O814   Zn915   1.944   .     S
O815   Zn914   1.944   .     S
O816   Zn917   1.944   .     S
O817   Zn911   1.941   .     S
O817   Zn917   1.941   .     S
O817   Zn913   1.941   .     S
O817   Zn1827  1.941   1_545 S
O818   Zn916   1.944   .     S
O819   Zn908   1.929   .     S
O820   Zn907   1.929   .     S
O821   Zn910   1.928   .     S
O822   Zn909   1.928   .     S
O823   Zn912   1.929   .     S
O824   Zn911   1.929   .     S
O825   Zn906   1.928   .     S
O826   Zn920   1.928   .     S
O827   Zn907   1.928   .     S
O828   Zn918   1.941   .     S
O828   Zn914   1.941   .     S
O828   Zn906   1.941   .     S
O829   Zn908   1.928   .     S
O830   Zn920   1.929   .     S
O831   Zn906   1.929   .     S
O832   Zn911   1.928   .     S
O833   Zn912   1.928   .     S
O834   Zn909   1.929   .     S
O835   Zn910   1.929   .     S
O836   Zn455   1.929   1_655 S
O837   Zn914   1.929   .     S
O838   Zn1837  1.928   .     S
O839   Zn919   1.941   .     S
O839   Zn915   1.941   .     S
O839   Zn909   1.941   .     S
O840   Zn916   1.928   .     S
O841   Zn919   1.929   .     S
O842   Zn458   1.929   1_655 S
O843   Zn913   1.928   .     S
O844   Zn1825  1.928   .     S
O845   Zn454   1.928   1_655 S
O846   Zn915   1.928   .     S
O847   Zn905   1.929   .     S
O848   Zn1833  1.929   .     S
O849   Zn918   1.928   .     S
O850   Zn912   1.944   .     S
O850   C1501   1.278   .     S
O851   Zn459   1.928   1_655 S
O852   Zn1836  1.929   .     S
O853   Zn917   1.929   .     S
O861   Zn911   1.944   .     S
O872   Zn906   1.944   .     S
O883   Zn920   1.944   .     S
O883   C124    1.278   1_655 S
O894   Zn908   1.944   .     S
Zn905  O1764   1.928   1_545 S
Zn907  O1737   1.941   .     S
Zn910  O368    1.941   1_655 S
Zn912  O1693   1.941   .     S
Zn913  O1768   1.929   1_545 S
Zn916  O1772   1.929   1_545 S
Zn917  O1758   1.928   1_545 S
Zn920  O379    1.941   1_655 S
C921   C999    1.398   .     A
C921   H1105   1.083   .     S
C921   C1032   1.399   .     S
C922   C1037   1.397   .     A
C922   C1024   1.396   .     A
C922   H1106   1.084   .     S
C923   C1051   1.450   .     S
C923   C1087   1.412   .     A
C923   C1080   1.412   .     A
C924   C1052   1.449   .     S
C924   C1090   1.413   .     A
C924   C1079   1.413   .     A
C925   C1078   1.411   .     A
C925   C1053   1.451   .     S
C925   C1089   1.411   .     A
C926   C1092   1.412   .     A
C926   C1077   1.412   .     A
C926   C1054   1.450   .     S
C927   C1076   1.412   .     A
C927   C1091   1.412   .     A
C927   C1055   1.450   .     S
C928   C1065   1.450   .     S
C928   C1095   1.412   .     A
C928   C1075   1.412   .     A
C929   C1066   1.450   .     S
C929   C1093   1.412   .     A
C929   C1074   1.412   .     A
C930   C1058   1.449   .     S
C930   C1097   1.413   .     A
C930   C1073   1.413   .     A
C931   C1096   1.411   .     A
C931   C1071   1.411   .     A
C931   C1059   1.451   .     S
C932   C1070   1.412   .     A
C932   C1060   1.450   .     S
C932   C1099   1.412   .     A
C933   C118    1.397   1_565 A
C933   C1025   1.396   .     A
C933   H1117   1.084   .     S
C934   C1069   1.412   .     A
C934   C1062   1.450   .     S
C934   C1098   1.412   .     A
C935   C1063   1.449   .     S
C935   C1101   1.413   .     A
C935   C1068   1.413   .     A
C936   C1064   1.451   .     S
C936   C1100   1.411   .     A
C936   C1067   1.411   .     A
C937   C999    1.411   .     S
C937   C1048   1.465   .     S
C938   C1010   1.417   .     S
C938   C1047   1.478   .     S
C939   C1046   1.478   .     S
C939   C1476   1.417   1_455 A
C939   C1021   1.417   .     S
C940   C1478   1.411   1_455 A
C940   C1022   1.411   .     S
C940   C1045   1.465   .     S
C941   C1044   1.465   .     S
C941   C1027   1.411   .     A
C941   C1483   1.411   1_455 S
C942   C1489   1.417   1_455 A
C942   C1043   1.478   .     S
C942   C1024   1.417   .     S
C943   C1042   1.478   .     S
C943   C1030   1.417   .     S
C944   C1026   1.398   .     A
C944   H1128   1.083   .     S
C944   C1040   1.399   .     S
C945   C1041   1.465   .     S
C945   C1026   1.411   .     A
C946   O1314   1.223   .     D
C946   C1067   1.490   .     S
C946   O1315   1.398   .     S
C947   O1317   1.398   .     S
C947   O1316   1.223   .     D
C947   C1068   1.493   .     S
C948   O1319   1.398   .     S
C948   C1069   1.492   .     S
C948   O1318   1.223   .     D
C949   O1322   1.398   .     S
C949   O1320   1.223   .     D
C949   C1070   1.492   .     S
C950   O1323   1.223   .     D
C950   O1324   1.398   .     S
C950   C1071   1.490   .     S
C951   O1326   1.398   .     S
C951   C1073   1.493   .     S
C951   O1325   1.223   .     D
C952   O1328   1.398   .     S
C952   C1074   1.492   .     S
C952   O1327   1.223   .     D
C953   O1330   1.398   .     S
C953   C1075   1.492   .     S
C953   O1329   1.223   .     D
C954   O1331   1.223   .     D
C954   C1076   1.492   .     S
C954   O1333   1.398   .     S
C955   C1027   1.398   .     A
C955   C1036   1.399   .     A
C955   H1138   1.083   .     S
C956   O1334   1.223   .     D
C956   C1077   1.492   .     S
C956   O1335   1.398   .     S
C957   O1337   1.398   .     S
C957   O1336   1.223   .     D
C957   C1078   1.490   .     S
C958   O1339   1.398   .     S
C958   C1079   1.493   .     S
C958   O1338   1.223   .     D
C959   C1080   1.492   .     S
C959   O1341   1.398   .     S
C959   O1340   1.223   .     D
C960   O1342   1.223   .     D
C960   O1344   1.398   .     S
C960   C1081   1.492   .     S
C961   C1082   1.490   .     S
C961   O1346   1.398   .     S
C961   O1345   1.223   .     D
C962   O1347   1.223   .     D
C962   O1348   1.398   .     S
C962   C1084   1.493   .     S
C963   O1350   1.398   .     S
C963   C1085   1.490   .     S
C963   O1349   1.223   .     D
C964   O1351   1.223   .     D
C964   O1352   1.398   .     S
C964   C1086   1.493   .     S
C965   O1355   1.398   .     S
C965   O1353   1.223   .     D
C965   C1087   1.492   .     S
C966   C1029   1.396   .     A
C966   H1139   1.084   .     S
C966   C1497   1.397   .     S
C967   O1356   1.223   .     D
C967   C1088   1.492   .     S
C967   O1357   1.398   .     S
C968   C1089   1.490   .     S
C968   O1359   1.398   .     S
C968   O1358   1.223   .     D
C969   O1361   1.398   .     S
C969   C1090   1.493   .     S
C969   O1360   1.223   .     D
C970   C1091   1.492   .     S
C970   O1363   1.398   .     S
C970   O1362   1.223   .     D
C971   O1235   1.398   .     S
C971   C1092   1.492   .     S
C971   O1364   1.223   .     D
C972   O1237   1.398   .     S
C972   O1236   1.223   .     D
C972   C1093   1.492   .     S
C973   O1238   1.223   .     D
C973   C1095   1.492   .     S
C973   O1239   1.398   .     S
C974   C1096   1.490   .     S
C974   O1240   1.223   .     D
C974   O1241   1.398   .     S
C975   O1242   1.223   .     D
C975   C1097   1.493   .     S
C975   O1243   1.398   .     S
C976   C1098   1.492   .     S
C976   O1246   1.398   .     S
C976   O1244   1.223   .     D
C977   H1140   1.084   .     S
C977   C1030   1.396   .     A
C977   C1038   1.397   .     S
C978   O1248   1.398   .     S
C978   C1099   1.492   .     S
C978   O1247   1.223   .     D
C979   O1250   1.398   .     S
C979   C1100   1.490   .     S
C979   O1249   1.223   .     D
C980   O1251   1.223   .     D
C980   C1101   1.493   .     S
C980   O1252   1.398   .     S
C981   C982    1.521   .     S
C981   H1179   1.113   .     S
C981   O1253   1.413   .     S
C982   H1181   1.110   .     S
C982   H1182   1.110   .     S
C982   H1180   1.110   .     S
C983   O1254   1.412   .     S
C983   H1184   1.115   .     S
C983   C984    1.521   .     S
C983   H1183   1.114   .     S
C984   H1185   1.110   .     S
C984   H1187   1.111   .     S
C984   H1186   1.110   .     S
C985   H1188   1.114   .     S
C985   H1190   1.115   .     S
C985   O1255   1.412   .     S
C985   C986    1.521   .     S
C986   H1193   1.110   .     S
C986   H1191   1.111   .     S
C986   H1192   1.110   .     S
C987   O1257   1.413   .     S
C987   H1195   1.113   .     S
C987   C989    1.521   .     S
C987   H1654   1.115   .     S
C988   C120    1.399   1_565 A
C988   H1141   1.083   .     S
C988   C1031   1.398   .     A
C989   H1198   1.110   .     S
C989   H1197   1.110   .     S
C989   H1196   1.110   .     S
C990   O1258   1.413   .     S
C990   H1201   1.113   .     S
C990   C991    1.521   .     S
C990   H279    1.115   1_565 S
C991   H1204   1.110   .     S
C991   H1202   1.110   .     S
C991   H1203   1.110   .     S
C992   H1205   1.114   .     S
C992   C993    1.521   .     S
C992   O1259   1.412   .     S
C992   H1206   1.115   .     S
C993   H1207   1.111   .     S
C993   H1208   1.110   .     S
C993   H1209   1.110   .     S
C994   O1260   1.412   .     S
C994   H1212   1.115   .     S
C994   H1210   1.114   .     S
C994   C995    1.521   .     S
C995   H1214   1.110   .     S
C995   H1215   1.110   .     S
C995   H1213   1.111   .     S
C996   O1261   1.413   .     S
C996   H1217   1.113   .     S
C996   C997    1.521   .     S
C996   H1676   1.115   1_455 S
C997   H1219   1.110   .     S
C997   H1218   1.110   .     S
C997   H1220   1.110   .     S
C998   O1262   1.413   .     S
C998   C1000   1.521   .     S
C998   H1223   1.113   .     S
C998   H1221   1.115   .     S
C999   O1253   1.385   .     S
C1000  H1225   1.110   .     S
C1000  H1226   1.110   .     S
C1000  H1224   1.110   .     S
C1001  O1263   1.412   .     S
C1001  H1227   1.114   .     S
C1001  C1002   1.521   .     S
C1001  H1228   1.115   .     S
C1002  H1231   1.110   .     S
C1002  H1229   1.111   .     S
C1002  H1230   1.110   .     S
C1003  H1232   1.114   .     S
C1003  C1004   1.521   .     S
C1003  O1264   1.412   .     S
C1003  H1107   1.115   .     S
C1004  H1109   1.110   .     S
C1004  H1108   1.111   .     S
C1004  H1110   1.110   .     S
C1005  H1111   1.115   .     S
C1005  C1006   1.521   .     S
C1005  H1112   1.113   .     S
C1005  O1265   1.413   .     S
C1006  H1113   1.110   .     S
C1006  H1115   1.110   .     S
C1006  H1114   1.110   .     S
C1007  H1118   1.113   .     S
C1007  O1266   1.413   .     S
C1007  C1008   1.521   .     S
C1007  H1116   1.115   .     S
C1008  H1119   1.110   .     S
C1008  H1120   1.110   .     S
C1008  H1121   1.110   .     S
C1009  C1011   1.521   .     S
C1009  H1122   1.114   .     S
C1009  O1268   1.412   .     S
C1009  H1123   1.115   .     S
C1010  C1017   1.396   .     A
C1010  O1254   1.383   .     S
C1011  H1126   1.110   .     S
C1011  H1125   1.110   .     S
C1011  H1124   1.111   .     S
C1012  O1269   1.412   .     S
C1012  H1127   1.114   .     S
C1012  C1013   1.521   .     S
C1012  H1129   1.115   .     S
C1013  H1131   1.110   .     S
C1013  H1130   1.111   .     S
C1013  H1132   1.110   .     S
C1014  H1134   1.113   .     S
C1014  O1270   1.413   .     S
C1014  H1133   1.115   .     S
C1014  C1015   1.521   .     S
C1015  H1137   1.110   .     S
C1015  H1136   1.110   .     S
C1015  H1135   1.110   .     S
C1016  C1028   1.396   .     A
C1016  O1255   1.383   .     S
C1016  C1399   1.417   .     A
C1017  H1145   1.084   .     S
C1017  C1033   1.397   .     S
C1018  C1400   1.411   .     A
C1018  C1039   1.398   .     A
C1018  O1257   1.385   .     S
C1019  O1258   1.385   .     S
C1019  C17     1.411   1_565 A
C1019  C1050   1.398   .     A
C1020  O1259   1.383   .     S
C1020  C1061   1.396   .     A
C1020  C18     1.417   1_565 A
C1021  C1072   1.396   .     A
C1021  O1260   1.383   .     S
C1022  C1083   1.398   .     A
C1022  O1261   1.385   .     S
C1023  C1094   1.398   .     A
C1023  O1262   1.385   .     S
C1023  C1401   1.411   .     S
C1024  O1263   1.383   .     S
C1025  C23     1.417   1_565 A
C1025  O1264   1.383   .     S
C1026  O1265   1.385   .     S
C1027  O1266   1.385   .     S
C1028  H1156   1.084   .     S
C1028  C1494   1.397   .     A
C1029  C1402   1.417   .     A
C1029  O1268   1.383   .     S
C1030  O1269   1.383   .     S
C1031  O1270   1.385   .     S
C1031  C25     1.411   1_565 S
C1032  C1033   1.467   1_554 S
C1033  C1032   1.467   1_556 S
C1034  C1488   1.397   1_455 A
C1034  C1035   1.467   1_554 S
C1034  C1072   1.397   .     S
C1035  C1499   1.399   1_455 A
C1035  C1034   1.467   1_556 S
C1035  C1083   1.399   .     S
C1036  C1037   1.467   .     S
C1036  C1554   1.399   1_455 S
C1037  C1426   1.397   1_455 S
C1038  C1040   1.467   .     S
C1039  H1167   1.083   .     S
C1039  C1495   1.399   .     A
C1041  O1354   1.278   .     A
C1042  O1321   1.281   .     S
C1043  O1705   1.281   1_455 A
C1043  O1332   1.281   .     S
C1044  O1256   1.278   .     A
C1044  O1803   1.278   1_455 S
C1045  O1267   1.278   .     A
C1045  O1274   1.278   .     A
C1046  O1271   1.281   .     S
C1046  O1275   1.281   .     S
C1047  O1276   1.281   .     A
C1047  O1272   1.281   .     A
C1048  O1278   1.278   .     A
C1048  O1273   1.278   .     A
C1049  O1279   1.274   .     A
C1049  O1307   1.274   .     A
C1049  C1104   1.450   .     S
C1050  H1178   1.083   .     S
C1050  C112    1.399   1_565 A
C1051  O1308   1.275   .     A
C1051  O1280   1.275   .     A
C1052  O1281   1.274   .     A
C1052  O1305   1.274   .     A
C1053  O1306   1.275   .     A
C1053  O1282   1.275   .     A
C1054  O1283   1.274   .     A
C1054  O1312   1.274   .     A
C1055  O1284   1.275   .     A
C1055  O1313   1.275   .     A
C1056  O1285   1.274   .     A
C1056  O1309   1.274   .     A
C1056  C1102   1.449   .     S
C1057  O1286   1.275   .     A
C1057  C1103   1.451   .     S
C1057  O1311   1.275   .     A
C1058  O1287   1.274   .     A
C1058  O1298   1.274   .     A
C1059  O1289   1.275   .     A
C1059  O1300   1.275   .     A
C1060  O1290   1.274   .     A
C1060  O1296   1.274   .     A
C1061  C113    1.397   1_565 A
C1061  H1189   1.084   .     S
C1062  O1297   1.275   .     A
C1062  O1291   1.275   .     A
C1063  O1303   1.274   .     A
C1063  O1292   1.274   .     A
C1064  O1293   1.275   .     A
C1064  O1304   1.275   .     A
C1065  O1301   1.274   .     A
C1065  O1294   1.274   .     A
C1066  O1302   1.275   .     A
C1066  O1295   1.275   .     A
C1067  C1084   1.407   .     A
C1068  C1082   1.407   .     A
C1069  C1081   1.407   .     A
C1070  C1080   1.407   .     A
C1071  C1079   1.407   .     A
C1072  H1200   1.084   .     S
C1073  C1078   1.407   .     A
C1074  C1077   1.407   .     A
C1075  C1076   1.407   .     A
C1081  C1104   1.412   .     A
C1082  C1103   1.411   .     A
C1083  H1211   1.083   .     S
C1084  C1102   1.413   .     A
C1085  C1103   1.411   .     A
C1085  C1101   1.407   .     A
C1086  C1102   1.413   .     A
C1086  C1100   1.407   .     A
C1087  C1099   1.407   .     A
C1088  C1098   1.407   .     A
C1088  C1104   1.412   .     A
C1089  C1097   1.407   .     A
C1090  C1096   1.407   .     A
C1091  C1095   1.407   .     A
C1092  C1093   1.407   .     A
C1094  H1222   1.083   .     S
C1094  C1496   1.399   .     S
H1142  O1315   1.014   .     S
H1143  O1317   1.014   .     S
H1144  O1319   1.014   .     S
H1146  O1322   1.014   .     S
H1147  O1324   1.014   .     S
H1148  O1326   1.014   .     S
H1149  O1328   1.014   .     S
H1150  O1330   1.014   .     S
H1151  O1333   1.014   .     S
H1152  O1335   1.014   .     S
H1153  O1337   1.014   .     S
H1154  O1339   1.014   .     S
H1155  O1341   1.014   .     S
H1157  O1344   1.014   .     S
H1158  O1346   1.014   .     S
H1159  O1348   1.014   .     S
H1160  O1350   1.014   .     S
H1161  O1352   1.014   .     S
H1162  O1355   1.014   .     S
H1163  O1357   1.014   .     S
H1164  O1359   1.014   .     S
H1165  O1361   1.014   .     S
H1166  O1363   1.014   .     S
H1168  O1235   1.014   .     S
H1169  O1237   1.014   .     S
H1170  O1239   1.014   .     S
H1171  O1241   1.014   .     S
H1172  O1243   1.014   .     S
H1173  O1246   1.014   .     S
H1174  O1248   1.014   .     S
H1175  O1250   1.014   .     S
H1176  O1252   1.014   .     S
H1177  C61     1.115   1_565 S
H1194  C1447   1.115   1_455 S
H1216  C1456   1.115   .     S
O1233  Zn1376  1.941   .     S
O1233  Zn1368  1.941   .     S
O1233  Zn1365  1.941   .     S
O1234  Zn1367  1.944   .     S
O1234  C122    1.281   1_565 A
O1245  Zn1370  1.944   .     S
O1245  C1503   1.281   .     A
O1256  Zn1369  1.944   .     S
O1267  Zn1379  1.944   .     S
O1271  Zn1378  1.944   .     S
O1272  Zn1373  1.944   .     S
O1273  Zn1365  1.944   .     S
O1274  Zn1375  1.944   .     S
O1275  Zn1374  1.944   .     S
O1276  Zn1377  1.944   .     S
O1277  Zn1371  1.941   .     S
O1277  Zn1377  1.941   .     S
O1277  Zn1373  1.941   .     S
O1278  Zn1376  1.944   .     S
O1279  Zn1368  1.929   .     S
O1280  Zn1367  1.929   .     S
O1281  Zn1370  1.928   .     S
O1282  Zn1369  1.928   .     S
O1283  Zn1372  1.929   .     S
O1284  Zn1371  1.929   .     S
O1285  Zn1366  1.928   .     S
O1286  Zn1380  1.928   .     S
O1287  Zn1367  1.928   .     S
O1288  Zn1378  1.941   .     S
O1288  Zn1374  1.941   .     S
O1288  Zn1366  1.941   .     S
O1288  Zn1830  1.941   1_455 S
O1289  Zn1368  1.928   .     S
O1290  Zn1380  1.929   .     S
O1291  Zn1366  1.929   .     S
O1292  Zn1371  1.928   .     S
O1293  Zn1372  1.928   .     S
O1294  Zn1369  1.929   .     S
O1295  Zn1370  1.929   .     S
O1296  Zn1835  1.929   .     S
O1297  Zn1374  1.929   .     S
O1298  Zn457   1.928   1_565 S
O1299  Zn1379  1.941   .     S
O1299  Zn1375  1.941   .     S
O1299  Zn1369  1.941   .     S
O1299  Zn1840  1.941   1_455 S
O1300  Zn1376  1.928   .     S
O1301  Zn1379  1.929   .     S
O1302  Zn1838  1.929   .     S
O1303  Zn1373  1.928   .     S
O1304  Zn445   1.928   1_565 S
O1305  Zn1834  1.928   .     S
O1306  Zn1375  1.928   .     S
O1307  Zn1365  1.929   .     S
O1308  Zn453   1.929   1_565 S
O1309  Zn1378  1.928   .     S
O1310  Zn1372  1.944   .     S
O1310  C121    1.278   1_565 S
O1311  Zn1839  1.928   .     S
O1312  Zn456   1.929   1_565 S
O1313  Zn1377  1.929   .     S
O1321  Zn1371  1.944   .     S
O1332  Zn1366  1.944   .     S
O1343  Zn1380  1.944   .     S
O1343  C1504   1.278   .     S
O1354  Zn1368  1.944   .     S
Zn1367 O357    1.941   1_565 S
Zn1370 O1748   1.941   .     S
Zn1372 O313    1.941   1_565 S
Zn1374 O1765   1.928   1_455 S
Zn1375 O1756   1.929   1_455 S
Zn1378 O1762   1.929   1_455 S
Zn1379 O1771   1.928   1_455 S
Zn1380 O1759   1.941   .     S
C1381  C1459   1.398   .     A
C1381  H1565   1.083   .     S
C1381  C1492   1.399   .     S
C1382  C1497   1.397   .     A
C1382  C1484   1.396   .     A
C1382  H1566   1.084   .     S
C1383  C1511   1.450   .     S
C1383  C1547   1.412   .     A
C1383  C1540   1.412   .     A
C1384  C1512   1.449   .     S
C1384  C1550   1.413   .     A
C1384  C1539   1.413   .     A
C1385  C1538   1.411   .     A
C1385  C1513   1.451   .     S
C1385  C1549   1.411   .     A
C1386  C1552   1.412   .     A
C1386  C1537   1.412   .     A
C1386  C1514   1.450   .     S
C1387  C1536   1.412   .     A
C1387  C1551   1.412   .     A
C1387  C1515   1.450   .     S
C1388  C1525   1.450   .     S
C1388  C1555   1.412   .     A
C1388  C1535   1.412   .     A
C1389  C1526   1.450   .     S
C1389  C1553   1.412   .     A
C1389  C1534   1.412   .     A
C1390  C1518   1.449   .     S
C1390  C1557   1.413   .     A
C1390  C1533   1.413   .     A
C1391  C1556   1.411   .     A
C1391  C1531   1.411   .     A
C1391  C1519   1.451   .     S
C1392  C1530   1.412   .     A
C1392  C1520   1.450   .     S
C1392  C1559   1.412   .     A
C1393  C578    1.397   1_565 A
C1393  C1485   1.396   .     A
C1393  H1577   1.084   .     S
C1394  C1529   1.412   .     A
C1394  C1522   1.450   .     S
C1394  C1558   1.412   .     A
C1395  C1523   1.449   .     S
C1395  C1561   1.413   .     A
C1395  C1528   1.413   .     A
C1396  C1524   1.451   .     S
C1396  C1560   1.411   .     A
C1396  C1527   1.411   .     A
C1397  C1459   1.411   .     S
C1397  C1508   1.465   .     S
C1398  C1470   1.417   .     S
C1398  C1507   1.478   .     S
C1399  C1506   1.478   .     S
C1399  C1481   1.417   .     S
C1400  C1482   1.411   .     S
C1400  C1505   1.465   .     S
C1401  C1504   1.465   .     S
C1401  C1487   1.411   .     A
C1402  C1503   1.478   .     S
C1402  C1484   1.417   .     S
C1403  C1502   1.478   .     S
C1403  C1490   1.417   .     S
C1404  C1486   1.398   .     A
C1404  H1588   1.083   .     S
C1404  C1500   1.399   .     S
C1405  C1501   1.465   .     S
C1405  C1486   1.411   .     A
C1406  O1774   1.223   .     D
C1406  C1527   1.490   .     S
C1406  O1775   1.398   .     S
C1407  O1777   1.398   .     S
C1407  O1776   1.223   .     D
C1407  C1528   1.493   .     S
C1408  O1779   1.398   .     S
C1408  C1529   1.492   .     S
C1408  O1778   1.223   .     D
C1409  O1782   1.398   .     S
C1409  O1780   1.223   .     D
C1409  C1530   1.492   .     S
C1410  O1783   1.223   .     D
C1410  O1784   1.398   .     S
C1410  C1531   1.490   .     S
C1411  O1786   1.398   .     S
C1411  C1533   1.493   .     S
C1411  O1785   1.223   .     D
C1412  O1788   1.398   .     S
C1412  C1534   1.492   .     S
C1412  O1787   1.223   .     D
C1413  O1790   1.398   .     S
C1413  C1535   1.492   .     S
C1413  O1789   1.223   .     D
C1414  O1791   1.223   .     D
C1414  C1536   1.492   .     S
C1414  O1793   1.398   .     S
C1415  C1487   1.398   .     A
C1415  C1496   1.399   .     A
C1415  H1598   1.083   .     S
C1416  O1794   1.223   .     D
C1416  C1537   1.492   .     S
C1416  O1795   1.398   .     S
C1417  O1797   1.398   .     S
C1417  O1796   1.223   .     D
C1417  C1538   1.490   .     S
C1418  O1799   1.398   .     S
C1418  C1539   1.493   .     S
C1418  O1798   1.223   .     D
C1419  C1540   1.492   .     S
C1419  O1801   1.398   .     S
C1419  O1800   1.223   .     D
C1420  O1802   1.223   .     D
C1420  O1804   1.398   .     S
C1420  C1541   1.492   .     S
C1421  C1542   1.490   .     S
C1421  O1806   1.398   .     S
C1421  O1805   1.223   .     D
C1422  O1807   1.223   .     D
C1422  O1808   1.398   .     S
C1422  C1544   1.493   .     S
C1423  O1810   1.398   .     S
C1423  C1545   1.490   .     S
C1423  O1809   1.223   .     D
C1424  O1811   1.223   .     D
C1424  O1812   1.398   .     S
C1424  C1546   1.493   .     S
C1425  O1815   1.398   .     S
C1425  O1813   1.223   .     D
C1425  C1547   1.492   .     S
C1426  C1489   1.396   .     A
C1426  H1599   1.084   .     S
C1426  C1037   1.397   1_655 S
C1427  O1816   1.223   .     D
C1427  C1548   1.492   .     S
C1427  O1817   1.398   .     S
C1428  C1549   1.490   .     S
C1428  O1819   1.398   .     S
C1428  O1818   1.223   .     D
C1429  O1821   1.398   .     S
C1429  C1550   1.493   .     S
C1429  O1820   1.223   .     D
C1430  C1551   1.492   .     S
C1430  O1823   1.398   .     S
C1430  O1822   1.223   .     D
C1431  O1695   1.398   .     S
C1431  C1552   1.492   .     S
C1431  O1824   1.223   .     D
C1432  O1697   1.398   .     S
C1432  O1696   1.223   .     D
C1432  C1553   1.492   .     S
C1433  O1698   1.223   .     D
C1433  C1555   1.492   .     S
C1433  O1699   1.398   .     S
C1434  C1556   1.490   .     S
C1434  O1700   1.223   .     D
C1434  O1701   1.398   .     S
C1435  O1702   1.223   .     D
C1435  C1557   1.493   .     S
C1435  O1703   1.398   .     S
C1436  C1558   1.492   .     S
C1436  O1706   1.398   .     S
C1436  O1704   1.223   .     D
C1437  H1600   1.084   .     S
C1437  C1490   1.396   .     A
C1437  C1498   1.397   .     S
C1438  O1708   1.398   .     S
C1438  C1559   1.492   .     S
C1438  O1707   1.223   .     D
C1439  O1710   1.398   .     S
C1439  C1560   1.490   .     S
C1439  O1709   1.223   .     D
C1440  O1711   1.223   .     D
C1440  C1561   1.493   .     S
C1440  O1712   1.398   .     S
C1441  C1442   1.521   .     S
C1441  H1639   1.113   .     S
C1441  O1713   1.413   .     S
C1442  H1641   1.110   .     S
C1442  H1642   1.110   .     S
C1442  H1640   1.110   .     S
C1443  O1714   1.412   .     S
C1443  H1644   1.115   .     S
C1443  C1444   1.521   .     S
C1443  H1643   1.114   .     S
C1444  H1645   1.110   .     S
C1444  H1647   1.111   .     S
C1444  H1646   1.110   .     S
C1445  H1648   1.114   .     S
C1445  H1650   1.115   .     S
C1445  O1715   1.412   .     S
C1445  C1446   1.521   .     S
C1446  H1653   1.110   .     S
C1446  H1651   1.111   .     S
C1446  H1652   1.110   .     S
C1447  O1717   1.413   .     S
C1447  H1655   1.113   .     S
C1447  C1449   1.521   .     S
C1447  H1194   1.115   1_655 S
C1448  C580    1.399   1_565 A
C1448  H1601   1.083   .     S
C1448  C1491   1.398   .     A
C1449  H1658   1.110   .     S
C1449  H1657   1.110   .     S
C1449  H1656   1.110   .     S
C1450  O1718   1.413   .     S
C1450  H1661   1.113   .     S
C1450  C1451   1.521   .     S
C1450  H739    1.115   1_565 S
C1451  H1664   1.110   .     S
C1451  H1662   1.110   .     S
C1451  H1663   1.110   .     S
C1452  H1665   1.114   .     S
C1452  C1453   1.521   .     S
C1452  O1719   1.412   .     S
C1452  H1666   1.115   .     S
C1453  H1667   1.111   .     S
C1453  H1668   1.110   .     S
C1453  H1669   1.110   .     S
C1454  O1720   1.412   .     S
C1454  H1672   1.115   .     S
C1454  H1670   1.114   .     S
C1454  C1455   1.521   .     S
C1455  H1674   1.110   .     S
C1455  H1675   1.110   .     S
C1455  H1673   1.111   .     S
C1456  O1721   1.413   .     S
C1456  H1677   1.113   .     S
C1456  C1457   1.521   .     S
C1457  H1679   1.110   .     S
C1457  H1678   1.110   .     S
C1457  H1680   1.110   .     S
C1458  O1722   1.413   .     S
C1458  C1460   1.521   .     S
C1458  H1683   1.113   .     S
C1458  H1681   1.115   .     S
C1459  O1713   1.385   .     S
C1460  H1685   1.110   .     S
C1460  H1686   1.110   .     S
C1460  H1684   1.110   .     S
C1461  O1723   1.412   .     S
C1461  H1687   1.114   .     S
C1461  C1462   1.521   .     S
C1461  H1688   1.115   .     S
C1462  H1691   1.110   .     S
C1462  H1689   1.111   .     S
C1462  H1690   1.110   .     S
C1463  H1692   1.114   .     S
C1463  C1464   1.521   .     S
C1463  O1724   1.412   .     S
C1463  H1567   1.115   .     S
C1464  H1569   1.110   .     S
C1464  H1568   1.111   .     S
C1464  H1570   1.110   .     S
C1465  H1571   1.115   .     S
C1465  C1466   1.521   .     S
C1465  H1572   1.113   .     S
C1465  O1725   1.413   .     S
C1466  H1573   1.110   .     S
C1466  H1575   1.110   .     S
C1466  H1574   1.110   .     S
C1467  H1578   1.113   .     S
C1467  O1726   1.413   .     S
C1467  C1468   1.521   .     S
C1467  H1576   1.115   .     S
C1468  H1579   1.110   .     S
C1468  H1580   1.110   .     S
C1468  H1581   1.110   .     S
C1469  C1471   1.521   .     S
C1469  H1582   1.114   .     S
C1469  O1728   1.412   .     S
C1469  H1583   1.115   .     S
C1470  C1477   1.396   .     A
C1470  O1714   1.383   .     S
C1471  H1586   1.110   .     S
C1471  H1585   1.110   .     S
C1471  H1584   1.111   .     S
C1472  O1729   1.412   .     S
C1472  H1587   1.114   .     S
C1472  C1473   1.521   .     S
C1472  H1589   1.115   .     S
C1473  H1591   1.110   .     S
C1473  H1590   1.111   .     S
C1473  H1592   1.110   .     S
C1474  H1594   1.113   .     S
C1474  O1730   1.413   .     S
C1474  H1593   1.115   .     S
C1474  C1475   1.521   .     S
C1475  H1597   1.110   .     S
C1475  H1596   1.110   .     S
C1475  H1595   1.110   .     S
C1476  C1488   1.396   .     A
C1476  O1715   1.383   .     S
C1476  C939    1.417   1_655 A
C1477  H1605   1.084   .     S
C1477  C1493   1.397   .     S
C1478  C940    1.411   1_655 A
C1478  C1499   1.398   .     A
C1478  O1717   1.385   .     S
C1479  O1718   1.385   .     S
C1479  C477    1.411   1_565 A
C1479  C1510   1.398   .     A
C1480  O1719   1.383   .     S
C1480  C1521   1.396   .     A
C1480  C478    1.417   1_565 A
C1481  C1532   1.396   .     A
C1481  O1720   1.383   .     S
C1482  C1543   1.398   .     A
C1482  O1721   1.385   .     S
C1483  C1554   1.398   .     A
C1483  O1722   1.385   .     S
C1483  C941    1.411   1_655 S
C1484  O1723   1.383   .     S
C1485  C483    1.417   1_565 A
C1485  O1724   1.383   .     S
C1486  O1725   1.385   .     S
C1487  O1726   1.385   .     S
C1488  H1616   1.084   .     S
C1488  C1034   1.397   1_655 A
C1489  C942    1.417   1_655 A
C1489  O1728   1.383   .     S
C1490  O1729   1.383   .     S
C1491  O1730   1.385   .     S
C1491  C485    1.411   1_565 S
C1492  C1493   1.467   1_554 S
C1493  C1492   1.467   1_556 S
C1494  C1495   1.467   1_554 S
C1494  C1532   1.397   .     S
C1495  C1494   1.467   1_556 S
C1495  C1543   1.399   .     S
C1496  C1497   1.467   .     S
C1498  C1500   1.467   .     S
C1499  H1627   1.083   .     S
C1499  C1035   1.399   1_655 A
C1501  O1814   1.278   .     A
C1502  O1781   1.281   .     S
C1503  O1792   1.281   .     S
C1504  O1716   1.278   .     A
C1505  O1727   1.278   .     A
C1505  O1734   1.278   .     A
C1506  O1731   1.281   .     S
C1506  O1735   1.281   .     S
C1507  O1736   1.281   .     A
C1507  O1732   1.281   .     A
C1508  O1738   1.278   .     A
C1508  O1733   1.278   .     A
C1509  O1739   1.274   .     A
C1509  O1767   1.274   .     A
C1509  C1564   1.450   .     S
C1510  H1638   1.083   .     S
C1510  C572    1.399   1_565 A
C1511  O1768   1.275   .     A
C1511  O1740   1.275   .     A
C1512  O1741   1.274   .     A
C1512  O1765   1.274   .     A
C1513  O1766   1.275   .     A
C1513  O1742   1.275   .     A
C1514  O1743   1.274   .     A
C1514  O1772   1.274   .     A
C1515  O1744   1.275   .     A
C1515  O1773   1.275   .     A
C1516  O1745   1.274   .     A
C1516  O1769   1.274   .     A
C1516  C1562   1.449   .     S
C1517  O1746   1.275   .     A
C1517  C1563   1.451   .     S
C1517  O1771   1.275   .     A
C1518  O1747   1.274   .     A
C1518  O1758   1.274   .     A
C1519  O1749   1.275   .     A
C1519  O1760   1.275   .     A
C1520  O1750   1.274   .     A
C1520  O1756   1.274   .     A
C1521  C573    1.397   1_565 A
C1521  H1649   1.084   .     S
C1522  O1757   1.275   .     A
C1522  O1751   1.275   .     A
C1523  O1763   1.274   .     A
C1523  O1752   1.274   .     A
C1524  O1753   1.275   .     A
C1524  O1764   1.275   .     A
C1525  O1761   1.274   .     A
C1525  O1754   1.274   .     A
C1526  O1762   1.275   .     A
C1526  O1755   1.275   .     A
C1527  C1544   1.407   .     A
C1528  C1542   1.407   .     A
C1529  C1541   1.407   .     A
C1530  C1540   1.407   .     A
C1531  C1539   1.407   .     A
C1532  H1660   1.084   .     S
C1533  C1538   1.407   .     A
C1534  C1537   1.407   .     A
C1535  C1536   1.407   .     A
C1541  C1564   1.412   .     A
C1542  C1563   1.411   .     A
C1543  H1671   1.083   .     S
C1544  C1562   1.413   .     A
C1545  C1563   1.411   .     A
C1545  C1561   1.407   .     A
C1546  C1562   1.413   .     A
C1546  C1560   1.407   .     A
C1547  C1559   1.407   .     A
C1548  C1558   1.407   .     A
C1548  C1564   1.412   .     A
C1549  C1557   1.407   .     A
C1550  C1556   1.407   .     A
C1551  C1555   1.407   .     A
C1552  C1553   1.407   .     A
C1554  H1682   1.083   .     S
C1554  C1036   1.399   1_655 S
H1602  O1775   1.014   .     S
H1603  O1777   1.014   .     S
H1604  O1779   1.014   .     S
H1606  O1782   1.014   .     S
H1607  O1784   1.014   .     S
H1608  O1786   1.014   .     S
H1609  O1788   1.014   .     S
H1610  O1790   1.014   .     S
H1611  O1793   1.014   .     S
H1612  O1795   1.014   .     S
H1613  O1797   1.014   .     S
H1614  O1799   1.014   .     S
H1615  O1801   1.014   .     S
H1617  O1804   1.014   .     S
H1618  O1806   1.014   .     S
H1619  O1808   1.014   .     S
H1620  O1810   1.014   .     S
H1621  O1812   1.014   .     S
H1622  O1815   1.014   .     S
H1623  O1817   1.014   .     S
H1624  O1819   1.014   .     S
H1625  O1821   1.014   .     S
H1626  O1823   1.014   .     S
H1628  O1695   1.014   .     S
H1629  O1697   1.014   .     S
H1630  O1699   1.014   .     S
H1631  O1701   1.014   .     S
H1632  O1703   1.014   .     S
H1633  O1706   1.014   .     S
H1634  O1708   1.014   .     S
H1635  O1710   1.014   .     S
H1636  O1712   1.014   .     S
H1637  C521    1.115   1_565 S
H1676  C996    1.115   1_655 S
O1693  Zn1836  1.941   .     S
O1693  Zn1828  1.941   .     S
O1693  Zn1825  1.941   .     S
O1694  Zn1827  1.944   .     S
O1694  C582    1.281   1_565 A
O1705  Zn1830  1.944   .     S
O1705  C1043   1.281   1_655 A
O1716  Zn1829  1.944   .     S
O1727  Zn1839  1.944   .     S
O1731  Zn1838  1.944   .     S
O1732  Zn1833  1.944   .     S
O1733  Zn1825  1.944   .     S
O1734  Zn1835  1.944   .     S
O1735  Zn1834  1.944   .     S
O1736  Zn1837  1.944   .     S
O1737  Zn1831  1.941   .     S
O1737  Zn1837  1.941   .     S
O1737  Zn1833  1.941   .     S
O1738  Zn1836  1.944   .     S
O1739  Zn1828  1.929   .     S
O1740  Zn1827  1.929   .     S
O1741  Zn1830  1.928   .     S
O1742  Zn1829  1.928   .     S
O1743  Zn1832  1.929   .     S
O1744  Zn1831  1.929   .     S
O1745  Zn1826  1.928   .     S
O1746  Zn1840  1.928   .     S
O1747  Zn1827  1.928   .     S
O1748  Zn1838  1.941   .     S
O1748  Zn1834  1.941   .     S
O1748  Zn1826  1.941   .     S
O1749  Zn1828  1.928   .     S
O1750  Zn1840  1.929   .     S
O1751  Zn1826  1.929   .     S
O1752  Zn1831  1.928   .     S
O1753  Zn1832  1.928   .     S
O1754  Zn1829  1.929   .     S
O1755  Zn1830  1.929   .     S
O1756  Zn1375  1.929   1_655 S
O1757  Zn1834  1.929   .     S
O1758  Zn917   1.928   1_565 S
O1759  Zn1839  1.941   .     S
O1759  Zn1835  1.941   .     S
O1759  Zn1829  1.941   .     S
O1760  Zn1836  1.928   .     S
O1761  Zn1839  1.929   .     S
O1762  Zn1378  1.929   1_655 S
O1763  Zn1833  1.928   .     S
O1764  Zn905   1.928   1_565 S
O1765  Zn1374  1.928   1_655 S
O1766  Zn1835  1.928   .     S
O1767  Zn1825  1.929   .     S
O1768  Zn913   1.929   1_565 S
O1769  Zn1838  1.928   .     S
O1770  Zn1832  1.944   .     S
O1770  C581    1.278   1_565 S
O1771  Zn1379  1.928   1_655 S
O1772  Zn916   1.929   1_565 S
O1773  Zn1837  1.929   .     S
O1781  Zn1831  1.944   .     S
O1792  Zn1826  1.944   .     S
O1803  Zn1840  1.944   .     S
O1803  C1044   1.278   1_655 S
O1814  Zn1828  1.944   .     S
Zn1827 O817    1.941   1_565 S
Zn1830 O1288   1.941   1_655 S
Zn1832 O773    1.941   1_565 S
Zn1840 O1299   1.941   1_655 S
