data_str_m2_o2_o10_pcu_sym.81
_audit_creation_date              2020-01-03
_audit_creation_method            'Materials Studio'
_symmetry_space_group_name_H-M    'P1'
_symmetry_Int_Tables_number       1
_symmetry_cell_setting            triclinic
loop_
_symmetry_equiv_pos_as_xyz
  x,y,z
_cell_length_a                    26.2022
_cell_length_b                    30.3213
_cell_length_c                    27.7187
_cell_angle_alpha                 89.2543
_cell_angle_beta                  97.9281
_cell_angle_gamma                 90.2762
loop_
_atom_site_label
_atom_site_type_symbol
_atom_site_fract_x
_atom_site_fract_y
_atom_site_fract_z
_atom_site_U_iso_or_equiv
_atom_site_adp_type
_atom_site_occupancy
C1     C     0.16588   0.16489   0.25026   0.00000  Uiso   1.00
C2     C     0.20823   0.26775   0.45127   0.00000  Uiso   1.00
C3     C     0.16666   0.25017   0.02737   0.00000  Uiso   1.00
C4     C     0.16664   0.25021   0.47272   0.00000  Uiso   1.00
C5     C     0.06789   0.24998   0.23755   0.00000  Uiso   1.00
C6     C     0.26544   0.25001   0.26245   0.00000  Uiso   1.00
C7     C     0.01263   0.25000   0.23068   0.00000  Uiso   1.00
C8     C     0.32070   0.24998   0.26933   0.00000  Uiso   1.00
C9     C     0.14773   0.04584   0.28749   0.00000  Uiso   1.00
C10    C     0.14993   0.45402   0.20655   0.00000  Uiso   1.00
C11    C     0.14590   0.09174   0.28805   0.00000  Uiso   1.00
C12    C     0.16598   0.33512   0.24951   0.00000  Uiso   1.00
C13    C     0.14814   0.40809   0.20562   0.00000  Uiso   1.00
C14    C     0.16567   0.11648   0.25103   0.00000  Uiso   1.00
C15    C     0.16582   0.38356   0.24850   0.00000  Uiso   1.00
C16    C     0.18608   0.09434   0.21386   0.00000  Uiso   1.00
C17    C     0.18427   0.40592   0.29147   0.00000  Uiso   1.00
C18    C     0.18744   0.04856   0.21355   0.00000  Uiso   1.00
C19    C     0.18560   0.45170   0.29200   0.00000  Uiso   1.00
C20    C     0.16842   0.02416   0.25043   0.00000  Uiso   1.00
C21    C     0.16854   0.47591   0.24956   0.00000  Uiso   1.00
C22    C     0.12155   0.11197   0.32585   0.00000  Uiso   1.00
C23    C     0.19301   0.28285   0.05699   0.00000  Uiso   1.00
C24    C     0.12619   0.38757   0.16067   0.00000  Uiso   1.00
C25    C     0.12498   0.23271   0.44098   0.00000  Uiso   1.00
C26    C     0.19275   0.28202   0.10772   0.00000  Uiso   1.00
C27    C     0.12587   0.23277   0.39035   0.00000  Uiso   1.00
C28    C     0.14055   0.21810   0.10170   0.00000  Uiso   1.00
C29    C     0.20732   0.26758   0.40040   0.00000  Uiso   1.00
C30    C     0.14031   0.21742   0.05093   0.00000  Uiso   1.00
Cu31   Cu    0.16667   0.24999   0.29821   0.00000  Uiso   1.00
Cu32   Cu    0.16667   0.25000   0.20178   0.00000  Uiso   1.00
H33    H     0.32599   0.25004   0.19359   0.00000  Uiso   1.00
H34    H     0.09135   0.21955   0.45486   0.00000  Uiso   1.00
H35    H     0.21336   0.30728   0.12980   0.00000  Uiso   1.00
H36    H     0.09348   0.21908   0.36688   0.00000  Uiso   1.00
H37    H     0.11984   0.19282   0.11898   0.00000  Uiso   1.00
H38    H     0.23948   0.28159   0.38484   0.00000  Uiso   1.00
H39    H     0.12009   0.19093   0.03057   0.00000  Uiso   1.00
H40    H     0.24179   0.28108   0.47350   0.00000  Uiso   1.00
H41    H     0.00733   0.24994   0.30642   0.00000  Uiso   1.00
H42    H     0.13187   0.02685   0.31539   0.00000  Uiso   1.00
H43    H     0.13565   0.47285   0.17397   0.00000  Uiso   1.00
H44    H     0.20158   0.11248   0.18520   0.00000  Uiso   1.00
H45    H     0.19823   0.38799   0.32469   0.00000  Uiso   1.00
H46    H     0.20373   0.03216   0.18474   0.00000  Uiso   1.00
H47    H     0.20031   0.46827   0.32548   0.00000  Uiso   1.00
H48    H     0.21321   0.30940   0.04122   0.00000  Uiso   1.00
N49    N     0.16667   0.25001   0.12934   0.00000  Uiso   1.00
N50    N     0.16667   0.24999   0.37065   0.00000  Uiso   1.00
N51    N     0.10192   0.12790   0.35622   0.00000  Uiso   1.00
N52    N     0.10857   0.37121   0.12464   0.00000  Uiso   1.00
O53    O     0.16667   0.18572   0.29071   0.00000  Uiso   1.00
O54    O     0.16666   0.31427   0.20928   0.00000  Uiso   1.00
O55    O     0.16667   0.18573   0.20928   0.00000  Uiso   1.00
O56    O     0.16666   0.31427   0.29072   0.00000  Uiso   1.00
O57    O     0.09161   0.24999   0.28132   0.00000  Uiso   1.00
O58    O     0.24172   0.25000   0.21868   0.00000  Uiso   1.00
O59    O     0.09161   0.25000   0.19988   0.00000  Uiso   1.00
O60    O     0.24172   0.25000   0.30011   0.00000  Uiso   1.00
C61    C     0.49921   0.16489   0.25026   0.00000  Uiso   1.00
C62    C     0.54157   0.26775   0.45127   0.00000  Uiso   1.00
C63    C     0.49999   0.25017   0.02737   0.00000  Uiso   1.00
C64    C     0.49997   0.25021   0.47272   0.00000  Uiso   1.00
C65    C     0.40122   0.24998   0.23755   0.00000  Uiso   1.00
C66    C     0.59878   0.25001   0.26245   0.00000  Uiso   1.00
C67    C     0.34597   0.25000   0.23068   0.00000  Uiso   1.00
C68    C     0.65404   0.24998   0.26933   0.00000  Uiso   1.00
C69    C     0.48106   0.04584   0.28749   0.00000  Uiso   1.00
C70    C     0.48327   0.45402   0.20655   0.00000  Uiso   1.00
C71    C     0.47923   0.09174   0.28805   0.00000  Uiso   1.00
C72    C     0.49931   0.33512   0.24951   0.00000  Uiso   1.00
C73    C     0.48148   0.40809   0.20562   0.00000  Uiso   1.00
C74    C     0.49900   0.11648   0.25103   0.00000  Uiso   1.00
C75    C     0.49916   0.38356   0.24850   0.00000  Uiso   1.00
C76    C     0.51941   0.09434   0.21386   0.00000  Uiso   1.00
C77    C     0.51760   0.40592   0.29147   0.00000  Uiso   1.00
C78    C     0.52077   0.04856   0.21355   0.00000  Uiso   1.00
C79    C     0.51893   0.45170   0.29200   0.00000  Uiso   1.00
C80    C     0.50176   0.02416   0.25043   0.00000  Uiso   1.00
C81    C     0.50188   0.47591   0.24956   0.00000  Uiso   1.00
C82    C     0.45488   0.11197   0.32585   0.00000  Uiso   1.00
C83    C     0.52634   0.28285   0.05699   0.00000  Uiso   1.00
C84    C     0.45953   0.38757   0.16067   0.00000  Uiso   1.00
C85    C     0.45832   0.23271   0.44098   0.00000  Uiso   1.00
C86    C     0.52608   0.28202   0.10772   0.00000  Uiso   1.00
C87    C     0.45920   0.23277   0.39035   0.00000  Uiso   1.00
C88    C     0.47388   0.21810   0.10170   0.00000  Uiso   1.00
C89    C     0.54065   0.26758   0.40040   0.00000  Uiso   1.00
C90    C     0.47364   0.21742   0.05093   0.00000  Uiso   1.00
Cu91   Cu    0.50000   0.24999   0.29821   0.00000  Uiso   1.00
Cu92   Cu    0.50000   0.25000   0.20178   0.00000  Uiso   1.00
H93    H     0.65933   0.25004   0.19359   0.00000  Uiso   1.00
H94    H     0.42468   0.21955   0.45486   0.00000  Uiso   1.00
H95    H     0.54669   0.30728   0.12980   0.00000  Uiso   1.00
H96    H     0.42682   0.21908   0.36688   0.00000  Uiso   1.00
H97    H     0.45317   0.19282   0.11898   0.00000  Uiso   1.00
H98    H     0.57281   0.28159   0.38484   0.00000  Uiso   1.00
H99    H     0.45342   0.19093   0.03057   0.00000  Uiso   1.00
H100   H     0.57513   0.28108   0.47350   0.00000  Uiso   1.00
H101   H     0.34067   0.24994   0.30642   0.00000  Uiso   1.00
H102   H     0.46521   0.02685   0.31539   0.00000  Uiso   1.00
H103   H     0.46899   0.47285   0.17397   0.00000  Uiso   1.00
H104   H     0.53491   0.11248   0.18520   0.00000  Uiso   1.00
H105   H     0.53156   0.38799   0.32469   0.00000  Uiso   1.00
H106   H     0.53706   0.03216   0.18474   0.00000  Uiso   1.00
H107   H     0.53364   0.46827   0.32548   0.00000  Uiso   1.00
H108   H     0.54654   0.30940   0.04122   0.00000  Uiso   1.00
N109   N     0.50000   0.25001   0.12934   0.00000  Uiso   1.00
N110   N     0.50000   0.24999   0.37065   0.00000  Uiso   1.00
N111   N     0.43525   0.12790   0.35622   0.00000  Uiso   1.00
N112   N     0.44191   0.37121   0.12464   0.00000  Uiso   1.00
O113   O     0.50000   0.18572   0.29071   0.00000  Uiso   1.00
O114   O     0.50000   0.31427   0.20928   0.00000  Uiso   1.00
O115   O     0.50000   0.18573   0.20928   0.00000  Uiso   1.00
O116   O     0.50000   0.31427   0.29072   0.00000  Uiso   1.00
O117   O     0.42495   0.24999   0.28132   0.00000  Uiso   1.00
O118   O     0.57505   0.25000   0.21868   0.00000  Uiso   1.00
O119   O     0.42495   0.25000   0.19988   0.00000  Uiso   1.00
O120   O     0.57505   0.25000   0.30011   0.00000  Uiso   1.00
C121   C     0.83255   0.16489   0.25026   0.00000  Uiso   1.00
C122   C     0.87490   0.26775   0.45127   0.00000  Uiso   1.00
C123   C     0.83333   0.25017   0.02737   0.00000  Uiso   1.00
C124   C     0.83331   0.25021   0.47272   0.00000  Uiso   1.00
C125   C     0.73456   0.24998   0.23755   0.00000  Uiso   1.00
C126   C     0.93211   0.25001   0.26245   0.00000  Uiso   1.00
C127   C     0.67930   0.25000   0.23068   0.00000  Uiso   1.00
C128   C     0.98737   0.24998   0.26933   0.00000  Uiso   1.00
C129   C     0.81440   0.04584   0.28749   0.00000  Uiso   1.00
C130   C     0.81660   0.45402   0.20655   0.00000  Uiso   1.00
C131   C     0.81257   0.09174   0.28805   0.00000  Uiso   1.00
C132   C     0.83265   0.33512   0.24951   0.00000  Uiso   1.00
C133   C     0.81481   0.40809   0.20562   0.00000  Uiso   1.00
C134   C     0.83233   0.11648   0.25103   0.00000  Uiso   1.00
C135   C     0.83249   0.38356   0.24850   0.00000  Uiso   1.00
C136   C     0.85274   0.09434   0.21386   0.00000  Uiso   1.00
C137   C     0.85094   0.40592   0.29147   0.00000  Uiso   1.00
C138   C     0.85410   0.04856   0.21355   0.00000  Uiso   1.00
C139   C     0.85227   0.45170   0.29200   0.00000  Uiso   1.00
C140   C     0.83509   0.02416   0.25043   0.00000  Uiso   1.00
C141   C     0.83521   0.47591   0.24956   0.00000  Uiso   1.00
C142   C     0.78822   0.11197   0.32585   0.00000  Uiso   1.00
C143   C     0.85967   0.28285   0.05699   0.00000  Uiso   1.00
C144   C     0.79286   0.38757   0.16067   0.00000  Uiso   1.00
C145   C     0.79165   0.23271   0.44098   0.00000  Uiso   1.00
C146   C     0.85942   0.28202   0.10772   0.00000  Uiso   1.00
C147   C     0.79254   0.23277   0.39035   0.00000  Uiso   1.00
C148   C     0.80722   0.21810   0.10170   0.00000  Uiso   1.00
C149   C     0.87399   0.26758   0.40040   0.00000  Uiso   1.00
C150   C     0.80697   0.21742   0.05093   0.00000  Uiso   1.00
Cu151  Cu    0.83333   0.24999   0.29821   0.00000  Uiso   1.00
Cu152  Cu    0.83333   0.25000   0.20178   0.00000  Uiso   1.00
H153   H     0.99266   0.25004   0.19359   0.00000  Uiso   1.00
H154   H     0.75802   0.21955   0.45486   0.00000  Uiso   1.00
H155   H     0.88002   0.30728   0.12980   0.00000  Uiso   1.00
H156   H     0.76015   0.21908   0.36688   0.00000  Uiso   1.00
H157   H     0.78651   0.19282   0.11898   0.00000  Uiso   1.00
H158   H     0.90615   0.28159   0.38484   0.00000  Uiso   1.00
H159   H     0.78675   0.19093   0.03057   0.00000  Uiso   1.00
H160   H     0.90846   0.28108   0.47350   0.00000  Uiso   1.00
H161   H     0.67400   0.24994   0.30642   0.00000  Uiso   1.00
H162   H     0.79854   0.02685   0.31539   0.00000  Uiso   1.00
H163   H     0.80232   0.47285   0.17397   0.00000  Uiso   1.00
H164   H     0.86824   0.11248   0.18520   0.00000  Uiso   1.00
H165   H     0.86489   0.38799   0.32469   0.00000  Uiso   1.00
H166   H     0.87039   0.03216   0.18474   0.00000  Uiso   1.00
H167   H     0.86697   0.46827   0.32548   0.00000  Uiso   1.00
H168   H     0.87988   0.30940   0.04122   0.00000  Uiso   1.00
N169   N     0.83333   0.25001   0.12934   0.00000  Uiso   1.00
N170   N     0.83333   0.24999   0.37065   0.00000  Uiso   1.00
N171   N     0.76858   0.12790   0.35622   0.00000  Uiso   1.00
N172   N     0.77524   0.37121   0.12464   0.00000  Uiso   1.00
O173   O     0.83334   0.18572   0.29071   0.00000  Uiso   1.00
O174   O     0.83333   0.31427   0.20928   0.00000  Uiso   1.00
O175   O     0.83334   0.18573   0.20928   0.00000  Uiso   1.00
O176   O     0.83333   0.31427   0.29072   0.00000  Uiso   1.00
O177   O     0.75828   0.24999   0.28132   0.00000  Uiso   1.00
O178   O     0.90839   0.25000   0.21868   0.00000  Uiso   1.00
O179   O     0.75828   0.25000   0.19988   0.00000  Uiso   1.00
O180   O     0.90839   0.25000   0.30011   0.00000  Uiso   1.00
C181   C     0.16588   0.66489   0.25026   0.00000  Uiso   1.00
C182   C     0.20823   0.76775   0.45127   0.00000  Uiso   1.00
C183   C     0.16666   0.75017   0.02737   0.00000  Uiso   1.00
C184   C     0.16664   0.75021   0.47272   0.00000  Uiso   1.00
C185   C     0.06789   0.74998   0.23755   0.00000  Uiso   1.00
C186   C     0.26544   0.75001   0.26245   0.00000  Uiso   1.00
C187   C     0.01263   0.75000   0.23068   0.00000  Uiso   1.00
C188   C     0.32070   0.74998   0.26933   0.00000  Uiso   1.00
C189   C     0.14773   0.54584   0.28749   0.00000  Uiso   1.00
C190   C     0.14993   0.95402   0.20655   0.00000  Uiso   1.00
C191   C     0.14590   0.59174   0.28805   0.00000  Uiso   1.00
C192   C     0.16598   0.83512   0.24951   0.00000  Uiso   1.00
C193   C     0.14814   0.90809   0.20562   0.00000  Uiso   1.00
C194   C     0.16567   0.61648   0.25103   0.00000  Uiso   1.00
C195   C     0.16582   0.88356   0.24850   0.00000  Uiso   1.00
C196   C     0.18608   0.59434   0.21386   0.00000  Uiso   1.00
C197   C     0.18427   0.90592   0.29147   0.00000  Uiso   1.00
C198   C     0.18744   0.54856   0.21355   0.00000  Uiso   1.00
C199   C     0.18560   0.95170   0.29200   0.00000  Uiso   1.00
C200   C     0.16842   0.52416   0.25043   0.00000  Uiso   1.00
C201   C     0.16854   0.97591   0.24956   0.00000  Uiso   1.00
C202   C     0.12155   0.61197   0.32585   0.00000  Uiso   1.00
C203   C     0.19301   0.78285   0.05699   0.00000  Uiso   1.00
C204   C     0.12619   0.88757   0.16067   0.00000  Uiso   1.00
C205   C     0.12498   0.73271   0.44098   0.00000  Uiso   1.00
C206   C     0.19275   0.78202   0.10772   0.00000  Uiso   1.00
C207   C     0.12587   0.73277   0.39035   0.00000  Uiso   1.00
C208   C     0.14055   0.71810   0.10170   0.00000  Uiso   1.00
C209   C     0.20732   0.76758   0.40040   0.00000  Uiso   1.00
C210   C     0.14031   0.71742   0.05093   0.00000  Uiso   1.00
Cu211  Cu    0.16667   0.74999   0.29821   0.00000  Uiso   1.00
Cu212  Cu    0.16667   0.75000   0.20178   0.00000  Uiso   1.00
H213   H     0.32599   0.75004   0.19359   0.00000  Uiso   1.00
H214   H     0.09135   0.71955   0.45486   0.00000  Uiso   1.00
H215   H     0.21336   0.80728   0.12980   0.00000  Uiso   1.00
H216   H     0.09348   0.71908   0.36688   0.00000  Uiso   1.00
H217   H     0.11984   0.69282   0.11898   0.00000  Uiso   1.00
H218   H     0.23948   0.78159   0.38484   0.00000  Uiso   1.00
H219   H     0.12009   0.69093   0.03057   0.00000  Uiso   1.00
H220   H     0.24179   0.78108   0.47350   0.00000  Uiso   1.00
H221   H     0.00733   0.74994   0.30642   0.00000  Uiso   1.00
H222   H     0.13187   0.52685   0.31539   0.00000  Uiso   1.00
H223   H     0.13565   0.97285   0.17397   0.00000  Uiso   1.00
H224   H     0.20158   0.61248   0.18520   0.00000  Uiso   1.00
H225   H     0.19823   0.88799   0.32469   0.00000  Uiso   1.00
H226   H     0.20373   0.53216   0.18474   0.00000  Uiso   1.00
H227   H     0.20031   0.96827   0.32548   0.00000  Uiso   1.00
H228   H     0.21321   0.80940   0.04122   0.00000  Uiso   1.00
N229   N     0.16667   0.75001   0.12934   0.00000  Uiso   1.00
N230   N     0.16667   0.74999   0.37065   0.00000  Uiso   1.00
N231   N     0.10192   0.62790   0.35622   0.00000  Uiso   1.00
N232   N     0.10857   0.87121   0.12464   0.00000  Uiso   1.00
O233   O     0.16667   0.68572   0.29071   0.00000  Uiso   1.00
O234   O     0.16666   0.81427   0.20928   0.00000  Uiso   1.00
O235   O     0.16667   0.68573   0.20928   0.00000  Uiso   1.00
O236   O     0.16666   0.81427   0.29072   0.00000  Uiso   1.00
O237   O     0.09161   0.74999   0.28132   0.00000  Uiso   1.00
O238   O     0.24172   0.75000   0.21868   0.00000  Uiso   1.00
O239   O     0.09161   0.75000   0.19988   0.00000  Uiso   1.00
O240   O     0.24172   0.75000   0.30011   0.00000  Uiso   1.00
C241   C     0.49921   0.66489   0.25026   0.00000  Uiso   1.00
C242   C     0.54157   0.76775   0.45127   0.00000  Uiso   1.00
C243   C     0.49999   0.75017   0.02737   0.00000  Uiso   1.00
C244   C     0.49997   0.75021   0.47272   0.00000  Uiso   1.00
C245   C     0.40122   0.74998   0.23755   0.00000  Uiso   1.00
C246   C     0.59878   0.75001   0.26245   0.00000  Uiso   1.00
C247   C     0.34597   0.75000   0.23068   0.00000  Uiso   1.00
C248   C     0.65404   0.74998   0.26933   0.00000  Uiso   1.00
C249   C     0.48106   0.54584   0.28749   0.00000  Uiso   1.00
C250   C     0.48327   0.95402   0.20655   0.00000  Uiso   1.00
C251   C     0.47923   0.59174   0.28805   0.00000  Uiso   1.00
C252   C     0.49931   0.83512   0.24951   0.00000  Uiso   1.00
C253   C     0.48148   0.90809   0.20562   0.00000  Uiso   1.00
C254   C     0.49900   0.61648   0.25103   0.00000  Uiso   1.00
C255   C     0.49916   0.88356   0.24850   0.00000  Uiso   1.00
C256   C     0.51941   0.59434   0.21386   0.00000  Uiso   1.00
C257   C     0.51760   0.90592   0.29147   0.00000  Uiso   1.00
C258   C     0.52077   0.54856   0.21355   0.00000  Uiso   1.00
C259   C     0.51893   0.95170   0.29200   0.00000  Uiso   1.00
C260   C     0.50176   0.52416   0.25043   0.00000  Uiso   1.00
C261   C     0.50188   0.97591   0.24956   0.00000  Uiso   1.00
C262   C     0.45488   0.61197   0.32585   0.00000  Uiso   1.00
C263   C     0.52634   0.78285   0.05699   0.00000  Uiso   1.00
C264   C     0.45953   0.88757   0.16067   0.00000  Uiso   1.00
C265   C     0.45832   0.73271   0.44098   0.00000  Uiso   1.00
C266   C     0.52608   0.78202   0.10772   0.00000  Uiso   1.00
C267   C     0.45920   0.73277   0.39035   0.00000  Uiso   1.00
C268   C     0.47388   0.71810   0.10170   0.00000  Uiso   1.00
C269   C     0.54065   0.76758   0.40040   0.00000  Uiso   1.00
C270   C     0.47364   0.71742   0.05093   0.00000  Uiso   1.00
Cu271  Cu    0.50000   0.74999   0.29821   0.00000  Uiso   1.00
Cu272  Cu    0.50000   0.75000   0.20178   0.00000  Uiso   1.00
H273   H     0.65933   0.75004   0.19359   0.00000  Uiso   1.00
H274   H     0.42468   0.71955   0.45486   0.00000  Uiso   1.00
H275   H     0.54669   0.80728   0.12980   0.00000  Uiso   1.00
H276   H     0.42682   0.71908   0.36688   0.00000  Uiso   1.00
H277   H     0.45317   0.69282   0.11898   0.00000  Uiso   1.00
H278   H     0.57281   0.78159   0.38484   0.00000  Uiso   1.00
H279   H     0.45342   0.69093   0.03057   0.00000  Uiso   1.00
H280   H     0.57513   0.78108   0.47350   0.00000  Uiso   1.00
H281   H     0.34067   0.74994   0.30642   0.00000  Uiso   1.00
H282   H     0.46521   0.52685   0.31539   0.00000  Uiso   1.00
H283   H     0.46899   0.97285   0.17397   0.00000  Uiso   1.00
H284   H     0.53491   0.61248   0.18520   0.00000  Uiso   1.00
H285   H     0.53156   0.88799   0.32469   0.00000  Uiso   1.00
H286   H     0.53706   0.53216   0.18474   0.00000  Uiso   1.00
H287   H     0.53364   0.96827   0.32548   0.00000  Uiso   1.00
H288   H     0.54654   0.80940   0.04122   0.00000  Uiso   1.00
N289   N     0.50000   0.75001   0.12934   0.00000  Uiso   1.00
N290   N     0.50000   0.74999   0.37065   0.00000  Uiso   1.00
N291   N     0.43525   0.62790   0.35622   0.00000  Uiso   1.00
N292   N     0.44191   0.87121   0.12464   0.00000  Uiso   1.00
O293   O     0.50000   0.68572   0.29071   0.00000  Uiso   1.00
O294   O     0.50000   0.81427   0.20928   0.00000  Uiso   1.00
O295   O     0.50000   0.68573   0.20928   0.00000  Uiso   1.00
O296   O     0.50000   0.81427   0.29072   0.00000  Uiso   1.00
O297   O     0.42495   0.74999   0.28132   0.00000  Uiso   1.00
O298   O     0.57505   0.75000   0.21868   0.00000  Uiso   1.00
O299   O     0.42495   0.75000   0.19988   0.00000  Uiso   1.00
O300   O     0.57505   0.75000   0.30011   0.00000  Uiso   1.00
C301   C     0.83255   0.66489   0.25026   0.00000  Uiso   1.00
C302   C     0.87490   0.76775   0.45127   0.00000  Uiso   1.00
C303   C     0.83333   0.75017   0.02737   0.00000  Uiso   1.00
C304   C     0.83331   0.75021   0.47272   0.00000  Uiso   1.00
C305   C     0.73456   0.74998   0.23755   0.00000  Uiso   1.00
C306   C     0.93211   0.75001   0.26245   0.00000  Uiso   1.00
C307   C     0.67930   0.75000   0.23068   0.00000  Uiso   1.00
C308   C     0.98737   0.74998   0.26933   0.00000  Uiso   1.00
C309   C     0.81440   0.54584   0.28749   0.00000  Uiso   1.00
C310   C     0.81660   0.95402   0.20655   0.00000  Uiso   1.00
C311   C     0.81257   0.59174   0.28805   0.00000  Uiso   1.00
C312   C     0.83265   0.83512   0.24951   0.00000  Uiso   1.00
C313   C     0.81481   0.90809   0.20562   0.00000  Uiso   1.00
C314   C     0.83233   0.61648   0.25103   0.00000  Uiso   1.00
C315   C     0.83249   0.88356   0.24850   0.00000  Uiso   1.00
C316   C     0.85274   0.59434   0.21386   0.00000  Uiso   1.00
C317   C     0.85094   0.90592   0.29147   0.00000  Uiso   1.00
C318   C     0.85410   0.54856   0.21355   0.00000  Uiso   1.00
C319   C     0.85227   0.95170   0.29200   0.00000  Uiso   1.00
C320   C     0.83509   0.52416   0.25043   0.00000  Uiso   1.00
C321   C     0.83521   0.97591   0.24956   0.00000  Uiso   1.00
C322   C     0.78822   0.61197   0.32585   0.00000  Uiso   1.00
C323   C     0.85967   0.78285   0.05699   0.00000  Uiso   1.00
C324   C     0.79286   0.88757   0.16067   0.00000  Uiso   1.00
C325   C     0.79165   0.73271   0.44098   0.00000  Uiso   1.00
C326   C     0.85942   0.78202   0.10772   0.00000  Uiso   1.00
C327   C     0.79254   0.73277   0.39035   0.00000  Uiso   1.00
C328   C     0.80722   0.71810   0.10170   0.00000  Uiso   1.00
C329   C     0.87399   0.76758   0.40040   0.00000  Uiso   1.00
C330   C     0.80697   0.71742   0.05093   0.00000  Uiso   1.00
Cu331  Cu    0.83333   0.74999   0.29821   0.00000  Uiso   1.00
Cu332  Cu    0.83333   0.75000   0.20178   0.00000  Uiso   1.00
H333   H     0.99266   0.75004   0.19359   0.00000  Uiso   1.00
H334   H     0.75802   0.71955   0.45486   0.00000  Uiso   1.00
H335   H     0.88002   0.80728   0.12980   0.00000  Uiso   1.00
H336   H     0.76015   0.71908   0.36688   0.00000  Uiso   1.00
H337   H     0.78651   0.69282   0.11898   0.00000  Uiso   1.00
H338   H     0.90615   0.78159   0.38484   0.00000  Uiso   1.00
H339   H     0.78675   0.69093   0.03057   0.00000  Uiso   1.00
H340   H     0.90846   0.78108   0.47350   0.00000  Uiso   1.00
H341   H     0.67400   0.74994   0.30642   0.00000  Uiso   1.00
H342   H     0.79854   0.52685   0.31539   0.00000  Uiso   1.00
H343   H     0.80232   0.97285   0.17397   0.00000  Uiso   1.00
H344   H     0.86824   0.61248   0.18520   0.00000  Uiso   1.00
H345   H     0.86489   0.88799   0.32469   0.00000  Uiso   1.00
H346   H     0.87039   0.53216   0.18474   0.00000  Uiso   1.00
H347   H     0.86697   0.96827   0.32548   0.00000  Uiso   1.00
H348   H     0.87988   0.80940   0.04122   0.00000  Uiso   1.00
N349   N     0.83333   0.75001   0.12934   0.00000  Uiso   1.00
N350   N     0.83333   0.74999   0.37065   0.00000  Uiso   1.00
N351   N     0.76858   0.62790   0.35622   0.00000  Uiso   1.00
N352   N     0.77524   0.87121   0.12464   0.00000  Uiso   1.00
O353   O     0.83334   0.68572   0.29071   0.00000  Uiso   1.00
O354   O     0.83333   0.81427   0.20928   0.00000  Uiso   1.00
O355   O     0.83334   0.68573   0.20928   0.00000  Uiso   1.00
O356   O     0.83333   0.81427   0.29072   0.00000  Uiso   1.00
O357   O     0.75828   0.74999   0.28132   0.00000  Uiso   1.00
O358   O     0.90839   0.75000   0.21868   0.00000  Uiso   1.00
O359   O     0.75828   0.75000   0.19988   0.00000  Uiso   1.00
O360   O     0.90839   0.75000   0.30011   0.00000  Uiso   1.00
C361   C     0.16588   0.16489   0.75026   0.00000  Uiso   1.00
C362   C     0.20823   0.26775   0.95127   0.00000  Uiso   1.00
C363   C     0.16666   0.25017   0.52737   0.00000  Uiso   1.00
C364   C     0.16664   0.25021   0.97272   0.00000  Uiso   1.00
C365   C     0.06789   0.24998   0.73755   0.00000  Uiso   1.00
C366   C     0.26544   0.25001   0.76245   0.00000  Uiso   1.00
C367   C     0.01263   0.25000   0.73068   0.00000  Uiso   1.00
C368   C     0.32070   0.24998   0.76933   0.00000  Uiso   1.00
C369   C     0.14773   0.04584   0.78749   0.00000  Uiso   1.00
C370   C     0.14993   0.45402   0.70655   0.00000  Uiso   1.00
C371   C     0.14590   0.09174   0.78805   0.00000  Uiso   1.00
C372   C     0.16598   0.33512   0.74951   0.00000  Uiso   1.00
C373   C     0.14814   0.40809   0.70562   0.00000  Uiso   1.00
C374   C     0.16567   0.11648   0.75103   0.00000  Uiso   1.00
C375   C     0.16582   0.38356   0.74850   0.00000  Uiso   1.00
C376   C     0.18608   0.09434   0.71386   0.00000  Uiso   1.00
C377   C     0.18427   0.40592   0.79147   0.00000  Uiso   1.00
C378   C     0.18744   0.04856   0.71355   0.00000  Uiso   1.00
C379   C     0.18560   0.45170   0.79200   0.00000  Uiso   1.00
C380   C     0.16842   0.02416   0.75043   0.00000  Uiso   1.00
C381   C     0.16854   0.47591   0.74956   0.00000  Uiso   1.00
C382   C     0.12155   0.11197   0.82585   0.00000  Uiso   1.00
C383   C     0.19301   0.28285   0.55699   0.00000  Uiso   1.00
C384   C     0.12619   0.38757   0.66067   0.00000  Uiso   1.00
C385   C     0.12498   0.23271   0.94098   0.00000  Uiso   1.00
C386   C     0.19275   0.28202   0.60772   0.00000  Uiso   1.00
C387   C     0.12587   0.23277   0.89035   0.00000  Uiso   1.00
C388   C     0.14055   0.21810   0.60170   0.00000  Uiso   1.00
C389   C     0.20732   0.26758   0.90040   0.00000  Uiso   1.00
C390   C     0.14031   0.21742   0.55093   0.00000  Uiso   1.00
Cu391  Cu    0.16667   0.24999   0.79821   0.00000  Uiso   1.00
Cu392  Cu    0.16667   0.25000   0.70178   0.00000  Uiso   1.00
H393   H     0.32599   0.25004   0.69359   0.00000  Uiso   1.00
H394   H     0.09135   0.21955   0.95486   0.00000  Uiso   1.00
H395   H     0.21336   0.30728   0.62980   0.00000  Uiso   1.00
H396   H     0.09348   0.21908   0.86688   0.00000  Uiso   1.00
H397   H     0.11984   0.19282   0.61898   0.00000  Uiso   1.00
H398   H     0.23948   0.28159   0.88484   0.00000  Uiso   1.00
H399   H     0.12009   0.19093   0.53057   0.00000  Uiso   1.00
H400   H     0.24179   0.28108   0.97350   0.00000  Uiso   1.00
H401   H     0.00733   0.24994   0.80642   0.00000  Uiso   1.00
H402   H     0.13187   0.02685   0.81539   0.00000  Uiso   1.00
H403   H     0.13565   0.47285   0.67397   0.00000  Uiso   1.00
H404   H     0.20158   0.11248   0.68520   0.00000  Uiso   1.00
H405   H     0.19823   0.38799   0.82469   0.00000  Uiso   1.00
H406   H     0.20373   0.03216   0.68474   0.00000  Uiso   1.00
H407   H     0.20031   0.46827   0.82548   0.00000  Uiso   1.00
H408   H     0.21321   0.30940   0.54122   0.00000  Uiso   1.00
N409   N     0.16667   0.25001   0.62934   0.00000  Uiso   1.00
N410   N     0.16667   0.24999   0.87065   0.00000  Uiso   1.00
N411   N     0.10192   0.12790   0.85622   0.00000  Uiso   1.00
N412   N     0.10857   0.37121   0.62464   0.00000  Uiso   1.00
O413   O     0.16667   0.18572   0.79071   0.00000  Uiso   1.00
O414   O     0.16666   0.31427   0.70928   0.00000  Uiso   1.00
O415   O     0.16667   0.18573   0.70928   0.00000  Uiso   1.00
O416   O     0.16666   0.31427   0.79072   0.00000  Uiso   1.00
O417   O     0.09161   0.24999   0.78132   0.00000  Uiso   1.00
O418   O     0.24172   0.25000   0.71868   0.00000  Uiso   1.00
O419   O     0.09161   0.25000   0.69988   0.00000  Uiso   1.00
O420   O     0.24172   0.25000   0.80011   0.00000  Uiso   1.00
C421   C     0.49921   0.16489   0.75026   0.00000  Uiso   1.00
C422   C     0.54157   0.26775   0.95127   0.00000  Uiso   1.00
C423   C     0.49999   0.25017   0.52737   0.00000  Uiso   1.00
C424   C     0.49997   0.25021   0.97272   0.00000  Uiso   1.00
C425   C     0.40122   0.24998   0.73755   0.00000  Uiso   1.00
C426   C     0.59878   0.25001   0.76245   0.00000  Uiso   1.00
C427   C     0.34597   0.25000   0.73068   0.00000  Uiso   1.00
C428   C     0.65404   0.24998   0.76933   0.00000  Uiso   1.00
C429   C     0.48106   0.04584   0.78749   0.00000  Uiso   1.00
C430   C     0.48327   0.45402   0.70655   0.00000  Uiso   1.00
C431   C     0.47923   0.09174   0.78805   0.00000  Uiso   1.00
C432   C     0.49931   0.33512   0.74951   0.00000  Uiso   1.00
C433   C     0.48148   0.40809   0.70562   0.00000  Uiso   1.00
C434   C     0.49900   0.11648   0.75103   0.00000  Uiso   1.00
C435   C     0.49916   0.38356   0.74850   0.00000  Uiso   1.00
C436   C     0.51941   0.09434   0.71386   0.00000  Uiso   1.00
C437   C     0.51760   0.40592   0.79147   0.00000  Uiso   1.00
C438   C     0.52077   0.04856   0.71355   0.00000  Uiso   1.00
C439   C     0.51893   0.45170   0.79200   0.00000  Uiso   1.00
C440   C     0.50176   0.02416   0.75043   0.00000  Uiso   1.00
C441   C     0.50188   0.47591   0.74956   0.00000  Uiso   1.00
C442   C     0.45488   0.11197   0.82585   0.00000  Uiso   1.00
C443   C     0.52634   0.28285   0.55699   0.00000  Uiso   1.00
C444   C     0.45953   0.38757   0.66067   0.00000  Uiso   1.00
C445   C     0.45832   0.23271   0.94098   0.00000  Uiso   1.00
C446   C     0.52608   0.28202   0.60772   0.00000  Uiso   1.00
C447   C     0.45920   0.23277   0.89035   0.00000  Uiso   1.00
C448   C     0.47388   0.21810   0.60170   0.00000  Uiso   1.00
C449   C     0.54065   0.26758   0.90040   0.00000  Uiso   1.00
C450   C     0.47364   0.21742   0.55093   0.00000  Uiso   1.00
Cu451  Cu    0.50000   0.24999   0.79821   0.00000  Uiso   1.00
Cu452  Cu    0.50000   0.25000   0.70178   0.00000  Uiso   1.00
H453   H     0.65933   0.25004   0.69359   0.00000  Uiso   1.00
H454   H     0.42468   0.21955   0.95486   0.00000  Uiso   1.00
H455   H     0.54669   0.30728   0.62980   0.00000  Uiso   1.00
H456   H     0.42682   0.21908   0.86688   0.00000  Uiso   1.00
H457   H     0.45317   0.19282   0.61898   0.00000  Uiso   1.00
H458   H     0.57281   0.28159   0.88484   0.00000  Uiso   1.00
H459   H     0.45342   0.19093   0.53057   0.00000  Uiso   1.00
H460   H     0.57513   0.28108   0.97350   0.00000  Uiso   1.00
H461   H     0.34067   0.24994   0.80642   0.00000  Uiso   1.00
H462   H     0.46521   0.02685   0.81539   0.00000  Uiso   1.00
H463   H     0.46899   0.47285   0.67397   0.00000  Uiso   1.00
H464   H     0.53491   0.11248   0.68520   0.00000  Uiso   1.00
H465   H     0.53156   0.38799   0.82469   0.00000  Uiso   1.00
H466   H     0.53706   0.03216   0.68474   0.00000  Uiso   1.00
H467   H     0.53364   0.46827   0.82548   0.00000  Uiso   1.00
H468   H     0.54654   0.30940   0.54122   0.00000  Uiso   1.00
N469   N     0.50000   0.25001   0.62934   0.00000  Uiso   1.00
N470   N     0.50000   0.24999   0.87065   0.00000  Uiso   1.00
N471   N     0.43525   0.12790   0.85622   0.00000  Uiso   1.00
N472   N     0.44191   0.37121   0.62464   0.00000  Uiso   1.00
O473   O     0.50000   0.18572   0.79071   0.00000  Uiso   1.00
O474   O     0.50000   0.31427   0.70928   0.00000  Uiso   1.00
O475   O     0.50000   0.18573   0.70928   0.00000  Uiso   1.00
O476   O     0.50000   0.31427   0.79072   0.00000  Uiso   1.00
O477   O     0.42495   0.24999   0.78132   0.00000  Uiso   1.00
O478   O     0.57505   0.25000   0.71868   0.00000  Uiso   1.00
O479   O     0.42495   0.25000   0.69988   0.00000  Uiso   1.00
O480   O     0.57505   0.25000   0.80011   0.00000  Uiso   1.00
C481   C     0.83255   0.16489   0.75026   0.00000  Uiso   1.00
C482   C     0.87490   0.26775   0.95127   0.00000  Uiso   1.00
C483   C     0.83333   0.25017   0.52737   0.00000  Uiso   1.00
C484   C     0.83331   0.25021   0.97272   0.00000  Uiso   1.00
C485   C     0.73456   0.24998   0.73755   0.00000  Uiso   1.00
C486   C     0.93211   0.25001   0.76245   0.00000  Uiso   1.00
C487   C     0.67930   0.25000   0.73068   0.00000  Uiso   1.00
C488   C     0.98737   0.24998   0.76933   0.00000  Uiso   1.00
C489   C     0.81440   0.04584   0.78749   0.00000  Uiso   1.00
C490   C     0.81660   0.45402   0.70655   0.00000  Uiso   1.00
C491   C     0.81257   0.09174   0.78805   0.00000  Uiso   1.00
C492   C     0.83265   0.33512   0.74951   0.00000  Uiso   1.00
C493   C     0.81481   0.40809   0.70562   0.00000  Uiso   1.00
C494   C     0.83233   0.11648   0.75103   0.00000  Uiso   1.00
C495   C     0.83249   0.38356   0.74850   0.00000  Uiso   1.00
C496   C     0.85274   0.09434   0.71386   0.00000  Uiso   1.00
C497   C     0.85094   0.40592   0.79147   0.00000  Uiso   1.00
C498   C     0.85410   0.04856   0.71355   0.00000  Uiso   1.00
C499   C     0.85227   0.45170   0.79200   0.00000  Uiso   1.00
C500   C     0.83509   0.02416   0.75043   0.00000  Uiso   1.00
C501   C     0.83521   0.47591   0.74956   0.00000  Uiso   1.00
C502   C     0.78822   0.11197   0.82585   0.00000  Uiso   1.00
C503   C     0.85967   0.28285   0.55699   0.00000  Uiso   1.00
C504   C     0.79286   0.38757   0.66067   0.00000  Uiso   1.00
C505   C     0.79165   0.23271   0.94098   0.00000  Uiso   1.00
C506   C     0.85942   0.28202   0.60772   0.00000  Uiso   1.00
C507   C     0.79254   0.23277   0.89035   0.00000  Uiso   1.00
C508   C     0.80722   0.21810   0.60170   0.00000  Uiso   1.00
C509   C     0.87399   0.26758   0.90040   0.00000  Uiso   1.00
C510   C     0.80697   0.21742   0.55093   0.00000  Uiso   1.00
Cu511  Cu    0.83333   0.24999   0.79821   0.00000  Uiso   1.00
Cu512  Cu    0.83333   0.25000   0.70178   0.00000  Uiso   1.00
H513   H     0.99266   0.25004   0.69359   0.00000  Uiso   1.00
H514   H     0.75802   0.21955   0.95486   0.00000  Uiso   1.00
H515   H     0.88002   0.30728   0.62980   0.00000  Uiso   1.00
H516   H     0.76015   0.21908   0.86688   0.00000  Uiso   1.00
H517   H     0.78651   0.19282   0.61898   0.00000  Uiso   1.00
H518   H     0.90615   0.28159   0.88484   0.00000  Uiso   1.00
H519   H     0.78675   0.19093   0.53057   0.00000  Uiso   1.00
H520   H     0.90846   0.28108   0.97350   0.00000  Uiso   1.00
H521   H     0.67400   0.24994   0.80642   0.00000  Uiso   1.00
H522   H     0.79854   0.02685   0.81539   0.00000  Uiso   1.00
H523   H     0.80232   0.47285   0.67397   0.00000  Uiso   1.00
H524   H     0.86824   0.11248   0.68520   0.00000  Uiso   1.00
H525   H     0.86489   0.38799   0.82469   0.00000  Uiso   1.00
H526   H     0.87039   0.03216   0.68474   0.00000  Uiso   1.00
H527   H     0.86697   0.46827   0.82548   0.00000  Uiso   1.00
H528   H     0.87988   0.30940   0.54122   0.00000  Uiso   1.00
N529   N     0.83333   0.25001   0.62934   0.00000  Uiso   1.00
N530   N     0.83333   0.24999   0.87065   0.00000  Uiso   1.00
N531   N     0.76858   0.12790   0.85622   0.00000  Uiso   1.00
N532   N     0.77524   0.37121   0.62464   0.00000  Uiso   1.00
O533   O     0.83334   0.18572   0.79071   0.00000  Uiso   1.00
O534   O     0.83333   0.31427   0.70928   0.00000  Uiso   1.00
O535   O     0.83334   0.18573   0.70928   0.00000  Uiso   1.00
O536   O     0.83333   0.31427   0.79072   0.00000  Uiso   1.00
O537   O     0.75828   0.24999   0.78132   0.00000  Uiso   1.00
O538   O     0.90839   0.25000   0.71868   0.00000  Uiso   1.00
O539   O     0.75828   0.25000   0.69988   0.00000  Uiso   1.00
O540   O     0.90839   0.25000   0.80011   0.00000  Uiso   1.00
C541   C     0.16588   0.66489   0.75026   0.00000  Uiso   1.00
C542   C     0.20823   0.76775   0.95127   0.00000  Uiso   1.00
C543   C     0.16666   0.75017   0.52737   0.00000  Uiso   1.00
C544   C     0.16664   0.75021   0.97272   0.00000  Uiso   1.00
C545   C     0.06789   0.74998   0.73755   0.00000  Uiso   1.00
C546   C     0.26544   0.75001   0.76245   0.00000  Uiso   1.00
C547   C     0.01263   0.75000   0.73068   0.00000  Uiso   1.00
C548   C     0.32070   0.74998   0.76933   0.00000  Uiso   1.00
C549   C     0.14773   0.54584   0.78749   0.00000  Uiso   1.00
C550   C     0.14993   0.95402   0.70655   0.00000  Uiso   1.00
C551   C     0.14590   0.59174   0.78805   0.00000  Uiso   1.00
C552   C     0.16598   0.83512   0.74951   0.00000  Uiso   1.00
C553   C     0.14814   0.90809   0.70562   0.00000  Uiso   1.00
C554   C     0.16567   0.61648   0.75103   0.00000  Uiso   1.00
C555   C     0.16582   0.88356   0.74850   0.00000  Uiso   1.00
C556   C     0.18608   0.59434   0.71386   0.00000  Uiso   1.00
C557   C     0.18427   0.90592   0.79147   0.00000  Uiso   1.00
C558   C     0.18744   0.54856   0.71355   0.00000  Uiso   1.00
C559   C     0.18560   0.95170   0.79200   0.00000  Uiso   1.00
C560   C     0.16842   0.52416   0.75043   0.00000  Uiso   1.00
C561   C     0.16854   0.97591   0.74956   0.00000  Uiso   1.00
C562   C     0.12155   0.61197   0.82585   0.00000  Uiso   1.00
C563   C     0.19301   0.78285   0.55699   0.00000  Uiso   1.00
C564   C     0.12619   0.88757   0.66067   0.00000  Uiso   1.00
C565   C     0.12498   0.73271   0.94098   0.00000  Uiso   1.00
C566   C     0.19275   0.78202   0.60772   0.00000  Uiso   1.00
C567   C     0.12587   0.73277   0.89035   0.00000  Uiso   1.00
C568   C     0.14055   0.71810   0.60170   0.00000  Uiso   1.00
C569   C     0.20732   0.76758   0.90040   0.00000  Uiso   1.00
C570   C     0.14031   0.71742   0.55093   0.00000  Uiso   1.00
Cu571  Cu    0.16667   0.74999   0.79821   0.00000  Uiso   1.00
Cu572  Cu    0.16667   0.75000   0.70178   0.00000  Uiso   1.00
H573   H     0.32599   0.75004   0.69359   0.00000  Uiso   1.00
H574   H     0.09135   0.71955   0.95486   0.00000  Uiso   1.00
H575   H     0.21336   0.80728   0.62980   0.00000  Uiso   1.00
H576   H     0.09348   0.71908   0.86688   0.00000  Uiso   1.00
H577   H     0.11984   0.69282   0.61898   0.00000  Uiso   1.00
H578   H     0.23948   0.78159   0.88484   0.00000  Uiso   1.00
H579   H     0.12009   0.69093   0.53057   0.00000  Uiso   1.00
H580   H     0.24179   0.78108   0.97350   0.00000  Uiso   1.00
H581   H     0.00733   0.74994   0.80642   0.00000  Uiso   1.00
H582   H     0.13187   0.52685   0.81539   0.00000  Uiso   1.00
H583   H     0.13565   0.97285   0.67397   0.00000  Uiso   1.00
H584   H     0.20158   0.61248   0.68520   0.00000  Uiso   1.00
H585   H     0.19823   0.88799   0.82469   0.00000  Uiso   1.00
H586   H     0.20373   0.53216   0.68474   0.00000  Uiso   1.00
H587   H     0.20031   0.96827   0.82548   0.00000  Uiso   1.00
H588   H     0.21321   0.80940   0.54122   0.00000  Uiso   1.00
N589   N     0.16667   0.75001   0.62934   0.00000  Uiso   1.00
N590   N     0.16667   0.74999   0.87065   0.00000  Uiso   1.00
N591   N     0.10192   0.62790   0.85622   0.00000  Uiso   1.00
N592   N     0.10857   0.87121   0.62464   0.00000  Uiso   1.00
O593   O     0.16667   0.68572   0.79071   0.00000  Uiso   1.00
O594   O     0.16666   0.81427   0.70928   0.00000  Uiso   1.00
O595   O     0.16667   0.68573   0.70928   0.00000  Uiso   1.00
O596   O     0.16666   0.81427   0.79072   0.00000  Uiso   1.00
O597   O     0.09161   0.74999   0.78132   0.00000  Uiso   1.00
O598   O     0.24172   0.75000   0.71868   0.00000  Uiso   1.00
O599   O     0.09161   0.75000   0.69988   0.00000  Uiso   1.00
O600   O     0.24172   0.75000   0.80011   0.00000  Uiso   1.00
C601   C     0.49921   0.66489   0.75026   0.00000  Uiso   1.00
C602   C     0.54157   0.76775   0.95127   0.00000  Uiso   1.00
C603   C     0.49999   0.75017   0.52737   0.00000  Uiso   1.00
C604   C     0.49997   0.75021   0.97272   0.00000  Uiso   1.00
C605   C     0.40122   0.74998   0.73755   0.00000  Uiso   1.00
C606   C     0.59878   0.75001   0.76245   0.00000  Uiso   1.00
C607   C     0.34597   0.75000   0.73068   0.00000  Uiso   1.00
C608   C     0.65404   0.74998   0.76933   0.00000  Uiso   1.00
C609   C     0.48106   0.54584   0.78749   0.00000  Uiso   1.00
C610   C     0.48327   0.95402   0.70655   0.00000  Uiso   1.00
C611   C     0.47923   0.59174   0.78805   0.00000  Uiso   1.00
C612   C     0.49931   0.83512   0.74951   0.00000  Uiso   1.00
C613   C     0.48148   0.90809   0.70562   0.00000  Uiso   1.00
C614   C     0.49900   0.61648   0.75103   0.00000  Uiso   1.00
C615   C     0.49916   0.88356   0.74850   0.00000  Uiso   1.00
C616   C     0.51941   0.59434   0.71386   0.00000  Uiso   1.00
C617   C     0.51760   0.90592   0.79147   0.00000  Uiso   1.00
C618   C     0.52077   0.54856   0.71355   0.00000  Uiso   1.00
C619   C     0.51893   0.95170   0.79200   0.00000  Uiso   1.00
C620   C     0.50176   0.52416   0.75043   0.00000  Uiso   1.00
C621   C     0.50188   0.97591   0.74956   0.00000  Uiso   1.00
C622   C     0.45488   0.61197   0.82585   0.00000  Uiso   1.00
C623   C     0.52634   0.78285   0.55699   0.00000  Uiso   1.00
C624   C     0.45953   0.88757   0.66067   0.00000  Uiso   1.00
C625   C     0.45832   0.73271   0.94098   0.00000  Uiso   1.00
C626   C     0.52608   0.78202   0.60772   0.00000  Uiso   1.00
C627   C     0.45920   0.73277   0.89035   0.00000  Uiso   1.00
C628   C     0.47388   0.71810   0.60170   0.00000  Uiso   1.00
C629   C     0.54065   0.76758   0.90040   0.00000  Uiso   1.00
C630   C     0.47364   0.71742   0.55093   0.00000  Uiso   1.00
Cu631  Cu    0.50000   0.74999   0.79821   0.00000  Uiso   1.00
Cu632  Cu    0.50000   0.75000   0.70178   0.00000  Uiso   1.00
H633   H     0.65933   0.75004   0.69359   0.00000  Uiso   1.00
H634   H     0.42468   0.71955   0.95486   0.00000  Uiso   1.00
H635   H     0.54669   0.80728   0.62980   0.00000  Uiso   1.00
H636   H     0.42682   0.71908   0.86688   0.00000  Uiso   1.00
H637   H     0.45317   0.69282   0.61898   0.00000  Uiso   1.00
H638   H     0.57281   0.78159   0.88484   0.00000  Uiso   1.00
H639   H     0.45342   0.69093   0.53057   0.00000  Uiso   1.00
H640   H     0.57513   0.78108   0.97350   0.00000  Uiso   1.00
H641   H     0.34067   0.74994   0.80642   0.00000  Uiso   1.00
H642   H     0.46521   0.52685   0.81539   0.00000  Uiso   1.00
H643   H     0.46899   0.97285   0.67397   0.00000  Uiso   1.00
H644   H     0.53491   0.61248   0.68520   0.00000  Uiso   1.00
H645   H     0.53156   0.88799   0.82469   0.00000  Uiso   1.00
H646   H     0.53706   0.53216   0.68474   0.00000  Uiso   1.00
H647   H     0.53364   0.96827   0.82548   0.00000  Uiso   1.00
H648   H     0.54654   0.80940   0.54122   0.00000  Uiso   1.00
N649   N     0.50000   0.75001   0.62934   0.00000  Uiso   1.00
N650   N     0.50000   0.74999   0.87065   0.00000  Uiso   1.00
N651   N     0.43525   0.62790   0.85622   0.00000  Uiso   1.00
N652   N     0.44191   0.87121   0.62464   0.00000  Uiso   1.00
O653   O     0.50000   0.68572   0.79071   0.00000  Uiso   1.00
O654   O     0.50000   0.81427   0.70928   0.00000  Uiso   1.00
O655   O     0.50000   0.68573   0.70928   0.00000  Uiso   1.00
O656   O     0.50000   0.81427   0.79072   0.00000  Uiso   1.00
O657   O     0.42495   0.74999   0.78132   0.00000  Uiso   1.00
O658   O     0.57505   0.75000   0.71868   0.00000  Uiso   1.00
O659   O     0.42495   0.75000   0.69988   0.00000  Uiso   1.00
O660   O     0.57505   0.75000   0.80011   0.00000  Uiso   1.00
C661   C     0.83255   0.66489   0.75026   0.00000  Uiso   1.00
C662   C     0.87490   0.76775   0.95127   0.00000  Uiso   1.00
C663   C     0.83333   0.75017   0.52737   0.00000  Uiso   1.00
C664   C     0.83331   0.75021   0.97272   0.00000  Uiso   1.00
C665   C     0.73456   0.74998   0.73755   0.00000  Uiso   1.00
C666   C     0.93211   0.75001   0.76245   0.00000  Uiso   1.00
C667   C     0.67930   0.75000   0.73068   0.00000  Uiso   1.00
C668   C     0.98737   0.74998   0.76933   0.00000  Uiso   1.00
C669   C     0.81440   0.54584   0.78749   0.00000  Uiso   1.00
C670   C     0.81660   0.95402   0.70655   0.00000  Uiso   1.00
C671   C     0.81257   0.59174   0.78805   0.00000  Uiso   1.00
C672   C     0.83265   0.83512   0.74951   0.00000  Uiso   1.00
C673   C     0.81481   0.90809   0.70562   0.00000  Uiso   1.00
C674   C     0.83233   0.61648   0.75103   0.00000  Uiso   1.00
C675   C     0.83249   0.88356   0.74850   0.00000  Uiso   1.00
C676   C     0.85274   0.59434   0.71386   0.00000  Uiso   1.00
C677   C     0.85094   0.90592   0.79147   0.00000  Uiso   1.00
C678   C     0.85410   0.54856   0.71355   0.00000  Uiso   1.00
C679   C     0.85227   0.95170   0.79200   0.00000  Uiso   1.00
C680   C     0.83509   0.52416   0.75043   0.00000  Uiso   1.00
C681   C     0.83521   0.97591   0.74956   0.00000  Uiso   1.00
C682   C     0.78822   0.61197   0.82585   0.00000  Uiso   1.00
C683   C     0.85967   0.78285   0.55699   0.00000  Uiso   1.00
C684   C     0.79286   0.88757   0.66067   0.00000  Uiso   1.00
C685   C     0.79165   0.73271   0.94098   0.00000  Uiso   1.00
C686   C     0.85942   0.78202   0.60772   0.00000  Uiso   1.00
C687   C     0.79254   0.73277   0.89035   0.00000  Uiso   1.00
C688   C     0.80722   0.71810   0.60170   0.00000  Uiso   1.00
C689   C     0.87399   0.76758   0.90040   0.00000  Uiso   1.00
C690   C     0.80697   0.71742   0.55093   0.00000  Uiso   1.00
Cu691  Cu    0.83333   0.74999   0.79821   0.00000  Uiso   1.00
Cu692  Cu    0.83333   0.75000   0.70178   0.00000  Uiso   1.00
H693   H     0.99266   0.75004   0.69359   0.00000  Uiso   1.00
H694   H     0.75802   0.71955   0.95486   0.00000  Uiso   1.00
H695   H     0.88002   0.80728   0.62980   0.00000  Uiso   1.00
H696   H     0.76015   0.71908   0.86688   0.00000  Uiso   1.00
H697   H     0.78651   0.69282   0.61898   0.00000  Uiso   1.00
H698   H     0.90615   0.78159   0.88484   0.00000  Uiso   1.00
H699   H     0.78675   0.69093   0.53057   0.00000  Uiso   1.00
H700   H     0.90846   0.78108   0.97350   0.00000  Uiso   1.00
H701   H     0.67400   0.74994   0.80642   0.00000  Uiso   1.00
H702   H     0.79854   0.52685   0.81539   0.00000  Uiso   1.00
H703   H     0.80232   0.97285   0.67397   0.00000  Uiso   1.00
H704   H     0.86824   0.61248   0.68520   0.00000  Uiso   1.00
H705   H     0.86489   0.88799   0.82469   0.00000  Uiso   1.00
H706   H     0.87039   0.53216   0.68474   0.00000  Uiso   1.00
H707   H     0.86697   0.96827   0.82548   0.00000  Uiso   1.00
H708   H     0.87988   0.80940   0.54122   0.00000  Uiso   1.00
N709   N     0.83333   0.75001   0.62934   0.00000  Uiso   1.00
N710   N     0.83333   0.74999   0.87065   0.00000  Uiso   1.00
N711   N     0.76858   0.62790   0.85622   0.00000  Uiso   1.00
N712   N     0.77524   0.87121   0.62464   0.00000  Uiso   1.00
O713   O     0.83334   0.68572   0.79071   0.00000  Uiso   1.00
O714   O     0.83333   0.81427   0.70928   0.00000  Uiso   1.00
O715   O     0.83334   0.68573   0.70928   0.00000  Uiso   1.00
O716   O     0.83333   0.81427   0.79072   0.00000  Uiso   1.00
O717   O     0.75828   0.74999   0.78132   0.00000  Uiso   1.00
O718   O     0.90839   0.75000   0.71868   0.00000  Uiso   1.00
O719   O     0.75828   0.75000   0.69988   0.00000  Uiso   1.00
O720   O     0.90839   0.75000   0.80011   0.00000  Uiso   1.00
loop_
_geom_bond_atom_site_label_1
_geom_bond_atom_site_label_2
_geom_bond_distance
_geom_bond_site_symmetry_2
_ccdc_geom_bond_type
C1     C14     1.468   .     S
C1     O55     1.295   .     A
C1     O53     1.292   .     A
C2     C4      1.410   .     A
C2     C29     1.407   .     A
C2     H40     1.082   .     S
C3     C30     1.411   .     A
C3     C23     1.411   .     A
C3     C364    1.515   1_554 S
C4     C25     1.410   .     A
C4     C363    1.515   .     S
C5     O57     1.285   .     A
C5     C7      1.434   .     S
C5     O59     1.287   .     A
C6     O58     1.285   .     A
C6     O60     1.287   .     A
C6     C8      1.434   .     S
C7     C128    1.335   1_455 S
C7     H153    1.087   1_455 S
C8     C67     1.335   .     S
C8     H101    1.087   .     S
C9     C11     1.393   .     A
C9     H42     1.085   .     S
C9     C20     1.399   .     A
C10    C21     1.399   .     A
C10    H43     1.085   .     S
C10    C13     1.393   .     A
C11    C14     1.417   .     A
C11    C22     1.444   .     S
C12    C15     1.469   .     S
C12    O56     1.296   .     A
C12    O54     1.291   .     A
C13    C15     1.418   .     A
C13    C24     1.445   .     S
C14    C16     1.404   .     A
C15    C17     1.404   .     A
C16    H44     1.083   .     S
C16    C18     1.389   .     A
C17    C19     1.389   .     A
C17    H45     1.083   .     S
C18    H46     1.083   .     S
C18    C20     1.399   .     A
C19    H47     1.083   .     S
C19    C21     1.399   .     A
C20    C201    1.464   1_545 S
C21    C200    1.464   .     S
C22    N51     1.157   .     T
C23    C26     1.407   .     A
C23    H48     1.082   .     S
C24    N52     1.157   .     T
C25    C27     1.407   .     A
C25    H34     1.082   .     S
C26    N49     1.364   .     A
C26    H35     1.082   .     S
C27    N50     1.364   .     A
C27    H36     1.080   .     S
C28    N49     1.364   .     A
C28    C30     1.407   .     A
C28    H37     1.081   .     S
C29    N50     1.365   .     A
C29    H38     1.081   .     S
C30    H39     1.082   .     S
Cu31   O60     1.960   .     S
Cu31   O56     1.957   .     S
Cu31   Cu32    2.673   .     S
Cu31   O57     1.958   .     S
Cu31   O53     1.962   .     S
Cu31   N50     2.008   .     S
Cu32   O58     1.958   .     S
Cu32   O55     1.957   .     S
Cu32   O54     1.962   .     S
Cu32   N49     2.008   .     S
Cu32   O59     1.960   .     S
H33    C67     1.087   .     S
H41    C128    1.087   1_455 S
C61    C74     1.468   .     S
C61    O115    1.295   .     A
C61    O113    1.292   .     A
C62    C64     1.410   .     A
C62    C89     1.407   .     A
C62    H100    1.082   .     S
C63    C90     1.411   .     A
C63    C83     1.411   .     A
C63    C424    1.515   1_554 S
C64    C85     1.410   .     A
C64    C423    1.515   .     S
C65    O117    1.285   .     A
C65    C67     1.434   .     S
C65    O119    1.287   .     A
C66    O118    1.285   .     A
C66    O120    1.287   .     A
C66    C68     1.434   .     S
C68    C127    1.335   .     S
C68    H161    1.087   .     S
C69    C71     1.393   .     A
C69    H102    1.085   .     S
C69    C80     1.399   .     A
C70    C81     1.399   .     A
C70    H103    1.085   .     S
C70    C73     1.393   .     A
C71    C74     1.417   .     A
C71    C82     1.444   .     S
C72    C75     1.469   .     S
C72    O116    1.296   .     A
C72    O114    1.291   .     A
C73    C75     1.418   .     A
C73    C84     1.445   .     S
C74    C76     1.404   .     A
C75    C77     1.404   .     A
C76    H104    1.083   .     S
C76    C78     1.389   .     A
C77    C79     1.389   .     A
C77    H105    1.083   .     S
C78    H106    1.083   .     S
C78    C80     1.399   .     A
C79    H107    1.083   .     S
C79    C81     1.399   .     A
C80    C261    1.464   1_545 S
C81    C260    1.464   .     S
C82    N111    1.157   .     T
C83    C86     1.407   .     A
C83    H108    1.082   .     S
C84    N112    1.157   .     T
C85    C87     1.407   .     A
C85    H94     1.082   .     S
C86    N109    1.364   .     A
C86    H95     1.082   .     S
C87    N110    1.364   .     A
C87    H96     1.080   .     S
C88    N109    1.364   .     A
C88    C90     1.407   .     A
C88    H97     1.081   .     S
C89    N110    1.365   .     A
C89    H98     1.081   .     S
C90    H99     1.082   .     S
Cu91   O120    1.960   .     S
Cu91   O116    1.957   .     S
Cu91   Cu92    2.673   .     S
Cu91   O117    1.958   .     S
Cu91   O113    1.962   .     S
Cu91   N110    2.008   .     S
Cu92   O118    1.958   .     S
Cu92   O115    1.957   .     S
Cu92   O114    1.962   .     S
Cu92   N109    2.008   .     S
Cu92   O119    1.960   .     S
H93    C127    1.087   .     S
C121   C134    1.468   .     S
C121   O175    1.295   .     A
C121   O173    1.292   .     A
C122   C124    1.410   .     A
C122   C149    1.407   .     A
C122   H160    1.082   .     S
C123   C150    1.411   .     A
C123   C143    1.411   .     A
C123   C484    1.515   1_554 S
C124   C145    1.410   .     A
C124   C483    1.515   .     S
C125   O177    1.285   .     A
C125   C127    1.434   .     S
C125   O179    1.287   .     A
C126   O178    1.285   .     A
C126   O180    1.287   .     A
C126   C128    1.434   .     S
C128   C7      1.335   1_655 S
C128   H41     1.087   1_655 S
C129   C131    1.393   .     A
C129   H162    1.085   .     S
C129   C140    1.399   .     A
C130   C141    1.399   .     A
C130   H163    1.085   .     S
C130   C133    1.393   .     A
C131   C134    1.417   .     A
C131   C142    1.444   .     S
C132   C135    1.469   .     S
C132   O176    1.296   .     A
C132   O174    1.291   .     A
C133   C135    1.418   .     A
C133   C144    1.445   .     S
C134   C136    1.404   .     A
C135   C137    1.404   .     A
C136   H164    1.083   .     S
C136   C138    1.389   .     A
C137   C139    1.389   .     A
C137   H165    1.083   .     S
C138   H166    1.083   .     S
C138   C140    1.399   .     A
C139   H167    1.083   .     S
C139   C141    1.399   .     A
C140   C321    1.464   1_545 S
C141   C320    1.464   .     S
C142   N171    1.157   .     T
C143   C146    1.407   .     A
C143   H168    1.082   .     S
C144   N172    1.157   .     T
C145   C147    1.407   .     A
C145   H154    1.082   .     S
C146   N169    1.364   .     A
C146   H155    1.082   .     S
C147   N170    1.364   .     A
C147   H156    1.080   .     S
C148   N169    1.364   .     A
C148   C150    1.407   .     A
C148   H157    1.081   .     S
C149   N170    1.365   .     A
C149   H158    1.081   .     S
C150   H159    1.082   .     S
Cu151  O180    1.960   .     S
Cu151  O176    1.957   .     S
Cu151  Cu152   2.673   .     S
Cu151  O177    1.958   .     S
Cu151  O173    1.962   .     S
Cu151  N170    2.008   .     S
Cu152  O178    1.958   .     S
Cu152  O175    1.957   .     S
Cu152  O174    1.962   .     S
Cu152  N169    2.008   .     S
Cu152  O179    1.960   .     S
H153   C7      1.087   1_655 S
C181   C194    1.468   .     S
C181   O235    1.295   .     A
C181   O233    1.292   .     A
C182   C184    1.410   .     A
C182   C209    1.407   .     A
C182   H220    1.082   .     S
C183   C210    1.411   .     A
C183   C203    1.411   .     A
C183   C544    1.515   1_554 S
C184   C205    1.410   .     A
C184   C543    1.515   .     S
C185   O237    1.285   .     A
C185   C187    1.434   .     S
C185   O239    1.287   .     A
C186   O238    1.285   .     A
C186   O240    1.287   .     A
C186   C188    1.434   .     S
C187   C308    1.335   1_455 S
C187   H333    1.087   1_455 S
C188   C247    1.335   .     S
C188   H281    1.087   .     S
C189   C191    1.393   .     A
C189   H222    1.085   .     S
C189   C200    1.399   .     A
C190   C201    1.399   .     A
C190   H223    1.085   .     S
C190   C193    1.393   .     A
C191   C194    1.417   .     A
C191   C202    1.444   .     S
C192   C195    1.469   .     S
C192   O236    1.296   .     A
C192   O234    1.291   .     A
C193   C195    1.418   .     A
C193   C204    1.445   .     S
C194   C196    1.404   .     A
C195   C197    1.404   .     A
C196   H224    1.083   .     S
C196   C198    1.389   .     A
C197   C199    1.389   .     A
C197   H225    1.083   .     S
C198   H226    1.083   .     S
C198   C200    1.399   .     A
C199   H227    1.083   .     S
C199   C201    1.399   .     A
C201   C20     1.464   1_565 S
C202   N231    1.157   .     T
C203   C206    1.407   .     A
C203   H228    1.082   .     S
C204   N232    1.157   .     T
C205   C207    1.407   .     A
C205   H214    1.082   .     S
C206   N229    1.364   .     A
C206   H215    1.082   .     S
C207   N230    1.364   .     A
C207   H216    1.080   .     S
C208   N229    1.364   .     A
C208   C210    1.407   .     A
C208   H217    1.081   .     S
C209   N230    1.365   .     A
C209   H218    1.081   .     S
C210   H219    1.082   .     S
Cu211  O240    1.960   .     S
Cu211  O236    1.957   .     S
Cu211  Cu212   2.673   .     S
Cu211  O237    1.958   .     S
Cu211  O233    1.962   .     S
Cu211  N230    2.008   .     S
Cu212  O238    1.958   .     S
Cu212  O235    1.957   .     S
Cu212  O234    1.962   .     S
Cu212  N229    2.008   .     S
Cu212  O239    1.960   .     S
H213   C247    1.087   .     S
H221   C308    1.087   1_455 S
C241   C254    1.468   .     S
C241   O295    1.295   .     A
C241   O293    1.292   .     A
C242   C244    1.410   .     A
C242   C269    1.407   .     A
C242   H280    1.082   .     S
C243   C270    1.411   .     A
C243   C263    1.411   .     A
C243   C604    1.515   1_554 S
C244   C265    1.410   .     A
C244   C603    1.515   .     S
C245   O297    1.285   .     A
C245   C247    1.434   .     S
C245   O299    1.287   .     A
C246   O298    1.285   .     A
C246   O300    1.287   .     A
C246   C248    1.434   .     S
C248   C307    1.335   .     S
C248   H341    1.087   .     S
C249   C251    1.393   .     A
C249   H282    1.085   .     S
C249   C260    1.399   .     A
C250   C261    1.399   .     A
C250   H283    1.085   .     S
C250   C253    1.393   .     A
C251   C254    1.417   .     A
C251   C262    1.444   .     S
C252   C255    1.469   .     S
C252   O296    1.296   .     A
C252   O294    1.291   .     A
C253   C255    1.418   .     A
C253   C264    1.445   .     S
C254   C256    1.404   .     A
C255   C257    1.404   .     A
C256   H284    1.083   .     S
C256   C258    1.389   .     A
C257   C259    1.389   .     A
C257   H285    1.083   .     S
C258   H286    1.083   .     S
C258   C260    1.399   .     A
C259   H287    1.083   .     S
C259   C261    1.399   .     A
C261   C80     1.464   1_565 S
C262   N291    1.157   .     T
C263   C266    1.407   .     A
C263   H288    1.082   .     S
C264   N292    1.157   .     T
C265   C267    1.407   .     A
C265   H274    1.082   .     S
C266   N289    1.364   .     A
C266   H275    1.082   .     S
C267   N290    1.364   .     A
C267   H276    1.080   .     S
C268   N289    1.364   .     A
C268   C270    1.407   .     A
C268   H277    1.081   .     S
C269   N290    1.365   .     A
C269   H278    1.081   .     S
C270   H279    1.082   .     S
Cu271  O300    1.960   .     S
Cu271  O296    1.957   .     S
Cu271  Cu272   2.673   .     S
Cu271  O297    1.958   .     S
Cu271  O293    1.962   .     S
Cu271  N290    2.008   .     S
Cu272  O298    1.958   .     S
Cu272  O295    1.957   .     S
Cu272  O294    1.962   .     S
Cu272  N289    2.008   .     S
Cu272  O299    1.960   .     S
H273   C307    1.087   .     S
C301   C314    1.468   .     S
C301   O355    1.295   .     A
C301   O353    1.292   .     A
C302   C304    1.410   .     A
C302   C329    1.407   .     A
C302   H340    1.082   .     S
C303   C330    1.411   .     A
C303   C323    1.411   .     A
C303   C664    1.515   1_554 S
C304   C325    1.410   .     A
C304   C663    1.515   .     S
C305   O357    1.285   .     A
C305   C307    1.434   .     S
C305   O359    1.287   .     A
C306   O358    1.285   .     A
C306   O360    1.287   .     A
C306   C308    1.434   .     S
C308   C187    1.335   1_655 S
C308   H221    1.087   1_655 S
C309   C311    1.393   .     A
C309   H342    1.085   .     S
C309   C320    1.399   .     A
C310   C321    1.399   .     A
C310   H343    1.085   .     S
C310   C313    1.393   .     A
C311   C314    1.417   .     A
C311   C322    1.444   .     S
C312   C315    1.469   .     S
C312   O356    1.296   .     A
C312   O354    1.291   .     A
C313   C315    1.418   .     A
C313   C324    1.445   .     S
C314   C316    1.404   .     A
C315   C317    1.404   .     A
C316   H344    1.083   .     S
C316   C318    1.389   .     A
C317   C319    1.389   .     A
C317   H345    1.083   .     S
C318   H346    1.083   .     S
C318   C320    1.399   .     A
C319   H347    1.083   .     S
C319   C321    1.399   .     A
C321   C140    1.464   1_565 S
C322   N351    1.157   .     T
C323   C326    1.407   .     A
C323   H348    1.082   .     S
C324   N352    1.157   .     T
C325   C327    1.407   .     A
C325   H334    1.082   .     S
C326   N349    1.364   .     A
C326   H335    1.082   .     S
C327   N350    1.364   .     A
C327   H336    1.080   .     S
C328   N349    1.364   .     A
C328   C330    1.407   .     A
C328   H337    1.081   .     S
C329   N350    1.365   .     A
C329   H338    1.081   .     S
C330   H339    1.082   .     S
Cu331  O360    1.960   .     S
Cu331  O356    1.957   .     S
Cu331  Cu332   2.673   .     S
Cu331  O357    1.958   .     S
Cu331  O353    1.962   .     S
Cu331  N350    2.008   .     S
Cu332  O358    1.958   .     S
Cu332  O355    1.957   .     S
Cu332  O354    1.962   .     S
Cu332  N349    2.008   .     S
Cu332  O359    1.960   .     S
H333   C187    1.087   1_655 S
C361   C374    1.468   .     S
C361   O415    1.295   .     A
C361   O413    1.292   .     A
C362   C364    1.410   .     A
C362   C389    1.407   .     A
C362   H400    1.082   .     S
C363   C390    1.411   .     A
C363   C383    1.411   .     A
C364   C385    1.410   .     A
C364   C3      1.515   1_556 S
C365   O417    1.285   .     A
C365   C367    1.434   .     S
C365   O419    1.287   .     A
C366   O418    1.285   .     A
C366   O420    1.287   .     A
C366   C368    1.434   .     S
C367   C488    1.335   1_455 S
C367   H513    1.087   1_455 S
C368   C427    1.335   .     S
C368   H461    1.087   .     S
C369   C371    1.393   .     A
C369   H402    1.085   .     S
C369   C380    1.399   .     A
C370   C381    1.399   .     A
C370   H403    1.085   .     S
C370   C373    1.393   .     A
C371   C374    1.417   .     A
C371   C382    1.444   .     S
C372   C375    1.469   .     S
C372   O416    1.296   .     A
C372   O414    1.291   .     A
C373   C375    1.418   .     A
C373   C384    1.445   .     S
C374   C376    1.404   .     A
C375   C377    1.404   .     A
C376   H404    1.083   .     S
C376   C378    1.389   .     A
C377   C379    1.389   .     A
C377   H405    1.083   .     S
C378   H406    1.083   .     S
C378   C380    1.399   .     A
C379   H407    1.083   .     S
C379   C381    1.399   .     A
C380   C561    1.464   1_545 S
C381   C560    1.464   .     S
C382   N411    1.157   .     T
C383   C386    1.407   .     A
C383   H408    1.082   .     S
C384   N412    1.157   .     T
C385   C387    1.407   .     A
C385   H394    1.082   .     S
C386   N409    1.364   .     A
C386   H395    1.082   .     S
C387   N410    1.364   .     A
C387   H396    1.080   .     S
C388   N409    1.364   .     A
C388   C390    1.407   .     A
C388   H397    1.081   .     S
C389   N410    1.365   .     A
C389   H398    1.081   .     S
C390   H399    1.082   .     S
Cu391  O420    1.960   .     S
Cu391  O416    1.957   .     S
Cu391  Cu392   2.673   .     S
Cu391  O417    1.958   .     S
Cu391  O413    1.962   .     S
Cu391  N410    2.008   .     S
Cu392  O418    1.958   .     S
Cu392  O415    1.957   .     S
Cu392  O414    1.962   .     S
Cu392  N409    2.008   .     S
Cu392  O419    1.960   .     S
H393   C427    1.087   .     S
H401   C488    1.087   1_455 S
C421   C434    1.468   .     S
C421   O475    1.295   .     A
C421   O473    1.292   .     A
C422   C424    1.410   .     A
C422   C449    1.407   .     A
C422   H460    1.082   .     S
C423   C450    1.411   .     A
C423   C443    1.411   .     A
C424   C445    1.410   .     A
C424   C63     1.515   1_556 S
C425   O477    1.285   .     A
C425   C427    1.434   .     S
C425   O479    1.287   .     A
C426   O478    1.285   .     A
C426   O480    1.287   .     A
C426   C428    1.434   .     S
C428   C487    1.335   .     S
C428   H521    1.087   .     S
C429   C431    1.393   .     A
C429   H462    1.085   .     S
C429   C440    1.399   .     A
C430   C441    1.399   .     A
C430   H463    1.085   .     S
C430   C433    1.393   .     A
C431   C434    1.417   .     A
C431   C442    1.444   .     S
C432   C435    1.469   .     S
C432   O476    1.296   .     A
C432   O474    1.291   .     A
C433   C435    1.418   .     A
C433   C444    1.445   .     S
C434   C436    1.404   .     A
C435   C437    1.404   .     A
C436   H464    1.083   .     S
C436   C438    1.389   .     A
C437   C439    1.389   .     A
C437   H465    1.083   .     S
C438   H466    1.083   .     S
C438   C440    1.399   .     A
C439   H467    1.083   .     S
C439   C441    1.399   .     A
C440   C621    1.464   1_545 S
C441   C620    1.464   .     S
C442   N471    1.157   .     T
C443   C446    1.407   .     A
C443   H468    1.082   .     S
C444   N472    1.157   .     T
C445   C447    1.407   .     A
C445   H454    1.082   .     S
C446   N469    1.364   .     A
C446   H455    1.082   .     S
C447   N470    1.364   .     A
C447   H456    1.080   .     S
C448   N469    1.364   .     A
C448   C450    1.407   .     A
C448   H457    1.081   .     S
C449   N470    1.365   .     A
C449   H458    1.081   .     S
C450   H459    1.082   .     S
Cu451  O480    1.960   .     S
Cu451  O476    1.957   .     S
Cu451  Cu452   2.673   .     S
Cu451  O477    1.958   .     S
Cu451  O473    1.962   .     S
Cu451  N470    2.008   .     S
Cu452  O478    1.958   .     S
Cu452  O475    1.957   .     S
Cu452  O474    1.962   .     S
Cu452  N469    2.008   .     S
Cu452  O479    1.960   .     S
H453   C487    1.087   .     S
C481   C494    1.468   .     S
C481   O535    1.295   .     A
C481   O533    1.292   .     A
C482   C484    1.410   .     A
C482   C509    1.407   .     A
C482   H520    1.082   .     S
C483   C510    1.411   .     A
C483   C503    1.411   .     A
C484   C505    1.410   .     A
C484   C123    1.515   1_556 S
C485   O537    1.285   .     A
C485   C487    1.434   .     S
C485   O539    1.287   .     A
C486   O538    1.285   .     A
C486   O540    1.287   .     A
C486   C488    1.434   .     S
C488   C367    1.335   1_655 S
C488   H401    1.087   1_655 S
C489   C491    1.393   .     A
C489   H522    1.085   .     S
C489   C500    1.399   .     A
C490   C501    1.399   .     A
C490   H523    1.085   .     S
C490   C493    1.393   .     A
C491   C494    1.417   .     A
C491   C502    1.444   .     S
C492   C495    1.469   .     S
C492   O536    1.296   .     A
C492   O534    1.291   .     A
C493   C495    1.418   .     A
C493   C504    1.445   .     S
C494   C496    1.404   .     A
C495   C497    1.404   .     A
C496   H524    1.083   .     S
C496   C498    1.389   .     A
C497   C499    1.389   .     A
C497   H525    1.083   .     S
C498   H526    1.083   .     S
C498   C500    1.399   .     A
C499   H527    1.083   .     S
C499   C501    1.399   .     A
C500   C681    1.464   1_545 S
C501   C680    1.464   .     S
C502   N531    1.157   .     T
C503   C506    1.407   .     A
C503   H528    1.082   .     S
C504   N532    1.157   .     T
C505   C507    1.407   .     A
C505   H514    1.082   .     S
C506   N529    1.364   .     A
C506   H515    1.082   .     S
C507   N530    1.364   .     A
C507   H516    1.080   .     S
C508   N529    1.364   .     A
C508   C510    1.407   .     A
C508   H517    1.081   .     S
C509   N530    1.365   .     A
C509   H518    1.081   .     S
C510   H519    1.082   .     S
Cu511  O540    1.960   .     S
Cu511  O536    1.957   .     S
Cu511  Cu512   2.673   .     S
Cu511  O537    1.958   .     S
Cu511  O533    1.962   .     S
Cu511  N530    2.008   .     S
Cu512  O538    1.958   .     S
Cu512  O535    1.957   .     S
Cu512  O534    1.962   .     S
Cu512  N529    2.008   .     S
Cu512  O539    1.960   .     S
H513   C367    1.087   1_655 S
C541   C554    1.468   .     S
C541   O595    1.295   .     A
C541   O593    1.292   .     A
C542   C544    1.410   .     A
C542   C569    1.407   .     A
C542   H580    1.082   .     S
C543   C570    1.411   .     A
C543   C563    1.411   .     A
C544   C565    1.410   .     A
C544   C183    1.515   1_556 S
C545   O597    1.285   .     A
C545   C547    1.434   .     S
C545   O599    1.287   .     A
C546   O598    1.285   .     A
C546   O600    1.287   .     A
C546   C548    1.434   .     S
C547   C668    1.335   1_455 S
C547   H693    1.087   1_455 S
C548   C607    1.335   .     S
C548   H641    1.087   .     S
C549   C551    1.393   .     A
C549   H582    1.085   .     S
C549   C560    1.399   .     A
C550   C561    1.399   .     A
C550   H583    1.085   .     S
C550   C553    1.393   .     A
C551   C554    1.417   .     A
C551   C562    1.444   .     S
C552   C555    1.469   .     S
C552   O596    1.296   .     A
C552   O594    1.291   .     A
C553   C555    1.418   .     A
C553   C564    1.445   .     S
C554   C556    1.404   .     A
C555   C557    1.404   .     A
C556   H584    1.083   .     S
C556   C558    1.389   .     A
C557   C559    1.389   .     A
C557   H585    1.083   .     S
C558   H586    1.083   .     S
C558   C560    1.399   .     A
C559   H587    1.083   .     S
C559   C561    1.399   .     A
C561   C380    1.464   1_565 S
C562   N591    1.157   .     T
C563   C566    1.407   .     A
C563   H588    1.082   .     S
C564   N592    1.157   .     T
C565   C567    1.407   .     A
C565   H574    1.082   .     S
C566   N589    1.364   .     A
C566   H575    1.082   .     S
C567   N590    1.364   .     A
C567   H576    1.080   .     S
C568   N589    1.364   .     A
C568   C570    1.407   .     A
C568   H577    1.081   .     S
C569   N590    1.365   .     A
C569   H578    1.081   .     S
C570   H579    1.082   .     S
Cu571  O600    1.960   .     S
Cu571  O596    1.957   .     S
Cu571  Cu572   2.673   .     S
Cu571  O597    1.958   .     S
Cu571  O593    1.962   .     S
Cu571  N590    2.008   .     S
Cu572  O598    1.958   .     S
Cu572  O595    1.957   .     S
Cu572  O594    1.962   .     S
Cu572  N589    2.008   .     S
Cu572  O599    1.960   .     S
H573   C607    1.087   .     S
H581   C668    1.087   1_455 S
C601   C614    1.468   .     S
C601   O655    1.295   .     A
C601   O653    1.292   .     A
C602   C604    1.410   .     A
C602   C629    1.407   .     A
C602   H640    1.082   .     S
C603   C630    1.411   .     A
C603   C623    1.411   .     A
C604   C625    1.410   .     A
C604   C243    1.515   1_556 S
C605   O657    1.285   .     A
C605   C607    1.434   .     S
C605   O659    1.287   .     A
C606   O658    1.285   .     A
C606   O660    1.287   .     A
C606   C608    1.434   .     S
C608   C667    1.335   .     S
C608   H701    1.087   .     S
C609   C611    1.393   .     A
C609   H642    1.085   .     S
C609   C620    1.399   .     A
C610   C621    1.399   .     A
C610   H643    1.085   .     S
C610   C613    1.393   .     A
C611   C614    1.417   .     A
C611   C622    1.444   .     S
C612   C615    1.469   .     S
C612   O656    1.296   .     A
C612   O654    1.291   .     A
C613   C615    1.418   .     A
C613   C624    1.445   .     S
C614   C616    1.404   .     A
C615   C617    1.404   .     A
C616   H644    1.083   .     S
C616   C618    1.389   .     A
C617   C619    1.389   .     A
C617   H645    1.083   .     S
C618   H646    1.083   .     S
C618   C620    1.399   .     A
C619   H647    1.083   .     S
C619   C621    1.399   .     A
C621   C440    1.464   1_565 S
C622   N651    1.157   .     T
C623   C626    1.407   .     A
C623   H648    1.082   .     S
C624   N652    1.157   .     T
C625   C627    1.407   .     A
C625   H634    1.082   .     S
C626   N649    1.364   .     A
C626   H635    1.082   .     S
C627   N650    1.364   .     A
C627   H636    1.080   .     S
C628   N649    1.364   .     A
C628   C630    1.407   .     A
C628   H637    1.081   .     S
C629   N650    1.365   .     A
C629   H638    1.081   .     S
C630   H639    1.082   .     S
Cu631  O660    1.960   .     S
Cu631  O656    1.957   .     S
Cu631  Cu632   2.673   .     S
Cu631  O657    1.958   .     S
Cu631  O653    1.962   .     S
Cu631  N650    2.008   .     S
Cu632  O658    1.958   .     S
Cu632  O655    1.957   .     S
Cu632  O654    1.962   .     S
Cu632  N649    2.008   .     S
Cu632  O659    1.960   .     S
H633   C667    1.087   .     S
C661   C674    1.468   .     S
C661   O715    1.295   .     A
C661   O713    1.292   .     A
C662   C664    1.410   .     A
C662   C689    1.407   .     A
C662   H700    1.082   .     S
C663   C690    1.411   .     A
C663   C683    1.411   .     A
C664   C685    1.410   .     A
C664   C303    1.515   1_556 S
C665   O717    1.285   .     A
C665   C667    1.434   .     S
C665   O719    1.287   .     A
C666   O718    1.285   .     A
C666   O720    1.287   .     A
C666   C668    1.434   .     S
C668   C547    1.335   1_655 S
C668   H581    1.087   1_655 S
C669   C671    1.393   .     A
C669   H702    1.085   .     S
C669   C680    1.399   .     A
C670   C681    1.399   .     A
C670   H703    1.085   .     S
C670   C673    1.393   .     A
C671   C674    1.417   .     A
C671   C682    1.444   .     S
C672   C675    1.469   .     S
C672   O716    1.296   .     A
C672   O714    1.291   .     A
C673   C675    1.418   .     A
C673   C684    1.445   .     S
C674   C676    1.404   .     A
C675   C677    1.404   .     A
C676   H704    1.083   .     S
C676   C678    1.389   .     A
C677   C679    1.389   .     A
C677   H705    1.083   .     S
C678   H706    1.083   .     S
C678   C680    1.399   .     A
C679   H707    1.083   .     S
C679   C681    1.399   .     A
C681   C500    1.464   1_565 S
C682   N711    1.157   .     T
C683   C686    1.407   .     A
C683   H708    1.082   .     S
C684   N712    1.157   .     T
C685   C687    1.407   .     A
C685   H694    1.082   .     S
C686   N709    1.364   .     A
C686   H695    1.082   .     S
C687   N710    1.364   .     A
C687   H696    1.080   .     S
C688   N709    1.364   .     A
C688   C690    1.407   .     A
C688   H697    1.081   .     S
C689   N710    1.365   .     A
C689   H698    1.081   .     S
C690   H699    1.082   .     S
Cu691  O720    1.960   .     S
Cu691  O716    1.957   .     S
Cu691  Cu692   2.673   .     S
Cu691  O717    1.958   .     S
Cu691  O713    1.962   .     S
Cu691  N710    2.008   .     S
Cu692  O718    1.958   .     S
Cu692  O715    1.957   .     S
Cu692  O714    1.962   .     S
Cu692  N709    2.008   .     S
Cu692  O719    1.960   .     S
H693   C547    1.087   1_655 S
