data_str_m1_o5_o17_pcu_sym.36
_audit_creation_date              2020-01-03
_audit_creation_method            'Materials Studio'
_symmetry_space_group_name_H-M    'P1'
_symmetry_Int_Tables_number       1
_symmetry_cell_setting            triclinic
loop_
_symmetry_equiv_pos_as_xyz
  x,y,z
_cell_length_a                    31.7661
_cell_length_b                    31.7608
_cell_length_c                    34.4694
_cell_angle_alpha                 89.9968
_cell_angle_beta                  89.9946
_cell_angle_gamma                 90.0205
loop_
_atom_site_label
_atom_site_type_symbol
_atom_site_fract_x
_atom_site_fract_y
_atom_site_fract_z
_atom_site_U_iso_or_equiv
_atom_site_adp_type
_atom_site_occupancy
C1     C     0.25000  -0.00000   0.35581   0.00000  Uiso   1.00
C2     C     0.33002   0.41998   0.75000   0.00000  Uiso   1.00
C3     C     0.42504   0.23141   0.02046   0.00000  Uiso   1.00
C4     C     0.25326   0.07719   0.97959   0.00000  Uiso   1.00
C5     C     0.24877   0.42280   0.02038   0.00000  Uiso   1.00
C6     C     0.42454   0.23354   0.97974   0.00000  Uiso   1.00
C7     C     0.07497   0.26857   0.02044   0.00000  Uiso   1.00
C8     C     0.00593   0.34518   0.37103   0.00000  Uiso   1.00
C9     C     0.01558   0.15570   0.62884   0.00000  Uiso   1.00
C10    C     0.15471   0.00131   0.37102   0.00000  Uiso   1.00
C11    C     0.34356   0.02021   0.62871   0.00000  Uiso   1.00
C12    C     0.49404   0.15480   0.37104   0.00000  Uiso   1.00
C13    C     0.41997   0.16998   0.24999   0.00000  Uiso   1.00
C14    C     0.48439   0.34430   0.62881   0.00000  Uiso   1.00
C15    C     0.34530   0.49881   0.37099   0.00000  Uiso   1.00
C16    C     0.15644   0.47979   0.62872   0.00000  Uiso   1.00
C17    C     0.26277   0.09460   0.87096   0.00000  Uiso   1.00
C18    C     0.25667   0.40495   0.12912   0.00000  Uiso   1.00
C19    C     0.40531   0.23919   0.87108   0.00000  Uiso   1.00
C20    C     0.09100   0.28147   0.12830   0.00000  Uiso   1.00
C21    C     0.23696   0.40540   0.87105   0.00000  Uiso   1.00
C22    C     0.24349   0.09508   0.12911   0.00000  Uiso   1.00
C23    C     0.09469   0.26074   0.87107   0.00000  Uiso   1.00
C24    C     0.08003   0.33002   0.75001   0.00000  Uiso   1.00
C25    C     0.40900   0.21858   0.12836   0.00000  Uiso   1.00
C26    C     0.45396   0.12048   0.45672   0.00000  Uiso   1.00
C27    C     0.44047   0.37374   0.54338   0.00000  Uiso   1.00
C28    C     0.38152   0.46030   0.45673   0.00000  Uiso   1.00
C29    C     0.12938   0.43442   0.54341   0.00000  Uiso   1.00
C30    C     0.04602   0.37954   0.45674   0.00000  Uiso   1.00
C31    C     0.05946   0.12620   0.54339   0.00000  Uiso   1.00
C32    C     0.11850   0.03974   0.45679   0.00000  Uiso   1.00
C33    C     0.37060   0.06559   0.54339   0.00000  Uiso   1.00
C34    C     0.19446   0.37408   0.95639   0.00000  Uiso   1.00
C35    C     0.33002   0.41998   0.25000   0.00000  Uiso   1.00
C36    C     0.20153   0.12827   0.04400   0.00000  Uiso   1.00
C37    C     0.13531   0.22700   0.95677   0.00000  Uiso   1.00
C38    C     0.38873   0.16967   0.04354   0.00000  Uiso   1.00
C39    C     0.30589   0.12559   0.95606   0.00000  Uiso   1.00
C40    C     0.29913   0.37218   0.04402   0.00000  Uiso   1.00
C41    C     0.36464   0.27291   0.95679   0.00000  Uiso   1.00
C42    C     0.11135   0.33029   0.04345   0.00000  Uiso   1.00
C43    C     0.16998   0.08002   0.75000   0.00000  Uiso   1.00
C44    C     0.08002   0.33002   0.24999   0.00000  Uiso   1.00
C45    C     0.41998   0.16998   0.75001   0.00000  Uiso   1.00
C46    C     0.16998   0.41998   0.75000   0.00000  Uiso   1.00
C47    C     0.33002   0.08002   0.25000   0.00000  Uiso   1.00
C48    C     0.41998   0.33003   0.74999   0.00000  Uiso   1.00
C49    C     0.25000   0.00000   0.64420   0.00000  Uiso   1.00
C50    C     0.08002   0.16997   0.25001   0.00000  Uiso   1.00
C51    C     0.33002   0.08002   0.75000   0.00000  Uiso   1.00
C52    C     0.16998   0.41998   0.25000   0.00000  Uiso   1.00
C53    C     0.08002   0.16997   0.74999   0.00000  Uiso   1.00
C54    C     0.41998   0.33003   0.25001   0.00000  Uiso   1.00
C55    C     0.13834   0.38833   0.24999   0.00000  Uiso   1.00
C56    C     0.36166   0.11167   0.75000   0.00000  Uiso   1.00
C57    C     0.11166   0.13832   0.25001   0.00000  Uiso   1.00
C58    C     0.38834   0.36168   0.74999   0.00000  Uiso   1.00
C59    C     0.36166   0.11167   0.24999   0.00000  Uiso   1.00
C60    C    -0.00000   0.25000   0.35580   0.00000  Uiso   1.00
C61    C     0.13834   0.38833   0.75001   0.00000  Uiso   1.00
C62    C     0.38834   0.36168   0.25001   0.00000  Uiso   1.00
C63    C     0.11166   0.13833   0.74999   0.00000  Uiso   1.00
C64    C     0.13833   0.11167   0.74999   0.00000  Uiso   1.00
C65    C     0.36167   0.38834   0.25001   0.00000  Uiso   1.00
C66    C     0.11167   0.36166   0.75001   0.00000  Uiso   1.00
C67    C     0.38833   0.13834   0.24999   0.00000  Uiso   1.00
C68    C     0.36167   0.38833   0.74999   0.00000  Uiso   1.00
C69    C     0.13833   0.11167   0.25001   0.00000  Uiso   1.00
C70    C     0.38833   0.13834   0.75001   0.00000  Uiso   1.00
C71    C     0.00000   0.25000   0.64420   0.00000  Uiso   1.00
C72    C     0.11167   0.36166   0.24999   0.00000  Uiso   1.00
C73    C     0.49265   0.28776   0.41790   0.00000  Uiso   1.00
C74    C     0.49670   0.21166   0.58212   0.00000  Uiso   1.00
C75    C     0.21265   0.49076   0.41793   0.00000  Uiso   1.00
C76    C     0.28845   0.49865   0.58213   0.00000  Uiso   1.00
C77    C     0.00735   0.21223   0.41790   0.00000  Uiso   1.00
C78    C     0.00330   0.28833   0.58211   0.00000  Uiso   1.00
C79    C     0.28735   0.00925   0.41792   0.00000  Uiso   1.00
C80    C     0.21155   0.00135   0.58214   0.00000  Uiso   1.00
C81    C     0.24562   0.03822   0.91787   0.00000  Uiso   1.00
C82    C    -0.00000   0.25000   0.85583   0.00000  Uiso   1.00
C83    C     0.24320   0.46214   0.08206   0.00000  Uiso   1.00
C84    C     0.46414   0.23601   0.91800   0.00000  Uiso   1.00
C85    C     0.03832   0.25356   0.08217   0.00000  Uiso   1.00
C86    C     0.25438   0.46177   0.91786   0.00000  Uiso   1.00
C87    C     0.25690   0.03787   0.08205   0.00000  Uiso   1.00
C88    C     0.03587   0.26397   0.91799   0.00000  Uiso   1.00
C89    C     0.46168   0.24645   0.08217   0.00000  Uiso   1.00
C90    C    -0.00000   0.25000   0.39804   0.00000  Uiso   1.00
C91    C     0.00000   0.25000   0.60197   0.00000  Uiso   1.00
C92    C     0.25000  -0.00000   0.39805   0.00000  Uiso   1.00
C93    C    -0.00000   0.25000   0.14421   0.00000  Uiso   1.00
C94    C     0.25000   0.00000   0.60199   0.00000  Uiso   1.00
C95    C     0.24999  -0.00000   0.89801   0.00000  Uiso   1.00
C96    C     0.25002   0.00001   0.10194   0.00000  Uiso   1.00
C97    C    -0.00000   0.25000   0.89810   0.00000  Uiso   1.00
C98    C    -0.00000   0.25001   0.10202   0.00000  Uiso   1.00
C99    C     0.00329   0.21127   0.45885   0.00000  Uiso   1.00
C100   C     0.49917   0.28885   0.54116   0.00000  Uiso   1.00
C101   C     0.28851   0.00520   0.45887   0.00000  Uiso   1.00
C102   C     0.21125   0.49724   0.54119   0.00000  Uiso   1.00
C103   C     0.49670   0.28872   0.45885   0.00000  Uiso   1.00
C104   C     0.25000  -0.00000   0.85579   0.00000  Uiso   1.00
C105   C     0.00082   0.21114   0.54116   0.00000  Uiso   1.00
C106   C     0.21149   0.49479   0.45888   0.00000  Uiso   1.00
C107   C     0.28875   0.00276   0.54118   0.00000  Uiso   1.00
C108   C     0.25025   0.46113   0.95882   0.00000  Uiso   1.00
C109   C     0.25266   0.03877   0.04111   0.00000  Uiso   1.00
C110   C     0.03753   0.26006   0.95893   0.00000  Uiso   1.00
C111   C     0.46191   0.24233   0.04123   0.00000  Uiso   1.00
C112   C     0.24983   0.03886   0.95881   0.00000  Uiso   1.00
C113   C     0.24748   0.46126   0.04112   0.00000  Uiso   1.00
C114   C     0.46247   0.23993   0.95894   0.00000  Uiso   1.00
C115   C     0.25000   0.00000   0.14419   0.00000  Uiso   1.00
C116   C     0.03809   0.25768   0.04122   0.00000  Uiso   1.00
C117   C    -0.00000   0.25000   0.47944   0.00000  Uiso   1.00
C118   C    -0.00000   0.25000   0.52057   0.00000  Uiso   1.00
C119   C     0.25000   0.49999   0.47946   0.00000  Uiso   1.00
C120   C     0.25000  -0.00000   0.52059   0.00000  Uiso   1.00
C121   C     0.25004   0.00000   0.97940   0.00000  Uiso   1.00
C122   C     0.25005   0.00001   0.02052   0.00000  Uiso   1.00
C123   C    -0.00000   0.25000   0.97952   0.00000  Uiso   1.00
C124   C    -0.00000   0.25000   0.02065   0.00000  Uiso   1.00
C125   C     0.00300   0.17281   0.47964   0.00000  Uiso   1.00
C126   C     0.16998   0.08002   0.25000   0.00000  Uiso   1.00
C127   C     0.49483   0.32706   0.52037   0.00000  Uiso   1.00
C128   C     0.32693   0.00678   0.47965   0.00000  Uiso   1.00
C129   C     0.17329   0.49106   0.52041   0.00000  Uiso   1.00
C130   C     0.49698   0.32718   0.47963   0.00000  Uiso   1.00
C131   C     0.00515   0.17293   0.52038   0.00000  Uiso   1.00
C132   C     0.17307   0.49322   0.47967   0.00000  Uiso   1.00
C133   C     0.32671   0.00894   0.52039   0.00000  Uiso   1.00
C134   C     0.24692   0.42281   0.97962   0.00000  Uiso   1.00
C135   C     0.25148   0.07723   0.02035   0.00000  Uiso   1.00
C136   C     0.07546   0.26643   0.97972   0.00000  Uiso   1.00
H137   H     0.45335   0.34074   0.40883   0.00000  Uiso   1.00
H138   H     0.12098   0.00164   0.37942   0.00000  Uiso   1.00
H139   H     0.18057   0.36849   0.98548   0.00000  Uiso   1.00
H140   H     0.26453   0.14045   0.03173   0.00000  Uiso   1.00
H141   H     0.19925   0.15742   0.06165   0.00000  Uiso   1.00
H142   H     0.18332   0.10306   0.05877   0.00000  Uiso   1.00
H143   H     0.18752   0.13442   0.01502   0.00000  Uiso   1.00
H144   H     0.13496   0.29134   0.96825   0.00000  Uiso   1.00
H145   H     0.16450   0.23018   0.93930   0.00000  Uiso   1.00
H146   H     0.11423   0.20406   0.94209   0.00000  Uiso   1.00
H147   H     0.14379   0.21480   0.98595   0.00000  Uiso   1.00
H148   H     0.36064   0.22750   0.03192   0.00000  Uiso   1.00
H149   H     0.15709   0.48947   0.34081   0.00000  Uiso   1.00
H150   H     0.36073   0.15957   0.06045   0.00000  Uiso   1.00
H151   H     0.41745   0.15852   0.05879   0.00000  Uiso   1.00
H152   H     0.38735   0.15492   0.01436   0.00000  Uiso   1.00
H153   H     0.24359   0.14098   0.96817   0.00000  Uiso   1.00
H154   H     0.30975   0.15454   0.93836   0.00000  Uiso   1.00
H155   H     0.32285   0.09944   0.94143   0.00000  Uiso   1.00
H156   H     0.32001   0.13106   0.98507   0.00000  Uiso   1.00
H157   H     0.23624   0.35948   0.03178   0.00000  Uiso   1.00
H158   H     0.30166   0.34308   0.06171   0.00000  Uiso   1.00
H159   H     0.31714   0.39756   0.05875   0.00000  Uiso   1.00
H160   H     0.16690   0.03411   0.37209   0.00000  Uiso   1.00
H161   H     0.31315   0.36612   0.01503   0.00000  Uiso   1.00
H162   H     0.36507   0.20857   0.96828   0.00000  Uiso   1.00
H163   H     0.33545   0.26969   0.93933   0.00000  Uiso   1.00
H164   H     0.38569   0.29586   0.94209   0.00000  Uiso   1.00
H165   H     0.35615   0.28511   0.98597   0.00000  Uiso   1.00
H166   H     0.13936   0.27240   0.03189   0.00000  Uiso   1.00
H167   H     0.13934   0.34036   0.06038   0.00000  Uiso   1.00
H168   H     0.08263   0.34150   0.05866   0.00000  Uiso   1.00
H169   H     0.11280   0.34500   0.01426   0.00000  Uiso   1.00
H170   H     0.34659   0.46755   0.59096   0.00000  Uiso   1.00
H171   H     0.37679   0.02637   0.62051   0.00000  Uiso   1.00
H172   H     0.34300   0.00863   0.65909   0.00000  Uiso   1.00
H173   H     0.32585   0.05034   0.62705   0.00000  Uiso   1.00
H174   H     0.04667   0.15927   0.40880   0.00000  Uiso   1.00
H175   H     0.49226   0.12110   0.37937   0.00000  Uiso   1.00
H176   H     0.00585   0.15674   0.34079   0.00000  Uiso   1.00
H177   H     0.00770   0.37889   0.37935   0.00000  Uiso   1.00
H178   H     0.46182   0.16839   0.37225   0.00000  Uiso   1.00
H179   H     0.03709   0.34500   0.59098   0.00000  Uiso   1.00
H180   H     0.47963   0.37775   0.62059   0.00000  Uiso   1.00
H181   H     0.49609   0.34328   0.65913   0.00000  Uiso   1.00
H182   H     0.45353   0.32785   0.62731   0.00000  Uiso   1.00
H183   H     0.33841   0.05106   0.40889   0.00000  Uiso   1.00
H184   H     0.37903   0.49849   0.37940   0.00000  Uiso   1.00
H185   H     0.34293   0.01070   0.34079   0.00000  Uiso   1.00
H186   H     0.33314   0.46600   0.37202   0.00000  Uiso   1.00
H187   H     0.15342   0.03246   0.59097   0.00000  Uiso   1.00
H188   H     0.49413   0.34323   0.34078   0.00000  Uiso   1.00
H189   H     0.12321   0.47364   0.62053   0.00000  Uiso   1.00
H190   H     0.15700   0.49137   0.65910   0.00000  Uiso   1.00
H191   H     0.17414   0.44966   0.62706   0.00000  Uiso   1.00
H192   H     0.21022   0.09389   0.90899   0.00000  Uiso   1.00
H193   H     0.26668   0.12819   0.87907   0.00000  Uiso   1.00
H194   H     0.25091   0.09319   0.84070   0.00000  Uiso   1.00
H195   H     0.29407   0.07902   0.87232   0.00000  Uiso   1.00
H196   H     0.20464   0.40853   0.09065   0.00000  Uiso   1.00
H197   H     0.25894   0.37124   0.12087   0.00000  Uiso   1.00
H198   H     0.24449   0.40680   0.15925   0.00000  Uiso   1.00
H199   H     0.03817   0.33161   0.37225   0.00000  Uiso   1.00
H200   H     0.28875   0.41892   0.12818   0.00000  Uiso   1.00
H201   H     0.41860   0.18820   0.90900   0.00000  Uiso   1.00
H202   H     0.37183   0.23566   0.87970   0.00000  Uiso   1.00
H203   H     0.40882   0.22739   0.84095   0.00000  Uiso   1.00
H204   H     0.41361   0.27319   0.87178   0.00000  Uiso   1.00
H205   H     0.09963   0.22938   0.09072   0.00000  Uiso   1.00
H206   H     0.12346   0.29088   0.12009   0.00000  Uiso   1.00
H207   H     0.09154   0.27032   0.15881   0.00000  Uiso   1.00
H208   H     0.07033   0.30961   0.12622   0.00000  Uiso   1.00
H209   H     0.28973   0.40608   0.90883   0.00000  Uiso   1.00
H210   H     0.46288   0.15500   0.59101   0.00000  Uiso   1.00
H211   H     0.23305   0.37182   0.87919   0.00000  Uiso   1.00
H212   H     0.24869   0.40680   0.84074   0.00000  Uiso   1.00
H213   H     0.20569   0.42103   0.87254   0.00000  Uiso   1.00
H214   H     0.29559   0.09137   0.09073   0.00000  Uiso   1.00
H215   H     0.24133   0.12880   0.12089   0.00000  Uiso   1.00
H216   H     0.25560   0.09315   0.15926   0.00000  Uiso   1.00
H217   H     0.21137   0.08120   0.12812   0.00000  Uiso   1.00
H218   H     0.08143   0.31175   0.90897   0.00000  Uiso   1.00
H219   H     0.12818   0.26427   0.87968   0.00000  Uiso   1.00
H220   H     0.09119   0.27251   0.84093   0.00000  Uiso   1.00
H221   H     0.02033   0.12224   0.62064   0.00000  Uiso   1.00
H222   H     0.08639   0.22673   0.87181   0.00000  Uiso   1.00
H223   H     0.40036   0.27063   0.09071   0.00000  Uiso   1.00
H224   H     0.37654   0.20916   0.12017   0.00000  Uiso   1.00
H225   H     0.40846   0.22978   0.15885   0.00000  Uiso   1.00
H226   H     0.42968   0.19044   0.12631   0.00000  Uiso   1.00
H227   H     0.01744   0.10996   0.46810   0.00000  Uiso   1.00
H228   H     0.45212   0.09116   0.43925   0.00000  Uiso   1.00
H229   H     0.43490   0.14513   0.44208   0.00000  Uiso   1.00
H230   H     0.44059   0.11417   0.48591   0.00000  Uiso   1.00
H231   H     0.00240   0.39113   0.53187   0.00000  Uiso   1.00
H232   H     0.00387   0.15673   0.65916   0.00000  Uiso   1.00
H233   H     0.43550   0.40270   0.56083   0.00000  Uiso   1.00
H234   H     0.42424   0.34717   0.55808   0.00000  Uiso   1.00
H235   H     0.42640   0.37851   0.51421   0.00000  Uiso   1.00
H236   H     0.38902   0.02424   0.46809   0.00000  Uiso   1.00
H237   H     0.41086   0.45987   0.43922   0.00000  Uiso   1.00
H238   H     0.35779   0.44007   0.44211   0.00000  Uiso   1.00
H239   H     0.38851   0.44723   0.48592   0.00000  Uiso   1.00
H240   H     0.10895   0.49541   0.53189   0.00000  Uiso   1.00
H241   H     0.10053   0.42799   0.56062   0.00000  Uiso   1.00
H242   H     0.15659   0.41959   0.55834   0.00000  Uiso   1.00
H243   H     0.04644   0.17213   0.62733   0.00000  Uiso   1.00
H244   H     0.12567   0.42009   0.51422   0.00000  Uiso   1.00
H245   H     0.48252   0.39002   0.46808   0.00000  Uiso   1.00
H246   H     0.04786   0.40887   0.43929   0.00000  Uiso   1.00
H247   H     0.06510   0.35491   0.44211   0.00000  Uiso   1.00
H248   H     0.05936   0.38584   0.48595   0.00000  Uiso   1.00
H249   H     0.49752   0.10887   0.53189   0.00000  Uiso   1.00
H250   H     0.06440   0.09722   0.56083   0.00000  Uiso   1.00
H251   H     0.07572   0.15274   0.55811   0.00000  Uiso   1.00
H252   H     0.07354   0.12144   0.51422   0.00000  Uiso   1.00
H253   H     0.11098   0.47580   0.46813   0.00000  Uiso   1.00
H254   H     0.16154   0.44901   0.40888   0.00000  Uiso   1.00
H255   H     0.08915   0.04020   0.43930   0.00000  Uiso   1.00
H256   H     0.14223   0.05997   0.44217   0.00000  Uiso   1.00
H257   H     0.11153   0.05280   0.48599   0.00000  Uiso   1.00
H258   H     0.39106   0.00462   0.53185   0.00000  Uiso   1.00
H259   H     0.39944   0.07203   0.56058   0.00000  Uiso   1.00
H260   H     0.34338   0.08040   0.55834   0.00000  Uiso   1.00
H261   H     0.37429   0.07993   0.51419   0.00000  Uiso   1.00
H262   H     0.25694   0.35910   0.96816   0.00000  Uiso   1.00
H263   H     0.19068   0.34512   0.93869   0.00000  Uiso   1.00
H264   H     0.17723   0.40013   0.94187   0.00000  Uiso   1.00
N265   N     0.47711   0.32310   0.39654   0.00000  Uiso   1.00
N266   N     0.22787   0.42660   0.10329   0.00000  Uiso   1.00
N267   N     0.43193   0.21463   0.89670   0.00000  Uiso   1.00
N268   N     0.07657   0.24763   0.10338   0.00000  Uiso   1.00
N269   N     0.26732   0.42538   0.89652   0.00000  Uiso   1.00
N270   N     0.27227   0.07337   0.10330   0.00000  Uiso   1.00
N271   N     0.06809   0.28532   0.89668   0.00000  Uiso   1.00
N272   N     0.42343   0.25239   0.10339   0.00000  Uiso   1.00
N273   N     0.49741   0.13382   0.45980   0.00000  Uiso   1.00
N274   N     0.48509   0.36522   0.54021   0.00000  Uiso   1.00
N275   N     0.36614   0.00306   0.45982   0.00000  Uiso   1.00
N276   N     0.48469   0.17493   0.60343   0.00000  Uiso   1.00
N277   N     0.13567   0.47943   0.54024   0.00000  Uiso   1.00
N278   N     0.00258   0.36617   0.45980   0.00000  Uiso   1.00
N279   N     0.01485   0.13476   0.54022   0.00000  Uiso   1.00
N280   N     0.13386   0.49697   0.45985   0.00000  Uiso   1.00
N281   N     0.36433   0.02058   0.54022   0.00000  Uiso   1.00
N282   N     0.23871   0.38432   0.95974   0.00000  Uiso   1.00
N283   N     0.24524   0.11606   0.04027   0.00000  Uiso   1.00
N284   N     0.11483   0.26756   0.95990   0.00000  Uiso   1.00
N285   N     0.38919   0.21510   0.04030   0.00000  Uiso   1.00
N286   N     0.26160   0.11563   0.95966   0.00000  Uiso   1.00
N287   N     0.17806   0.47357   0.39658   0.00000  Uiso   1.00
N288   N     0.25532   0.38403   0.04031   0.00000  Uiso   1.00
N289   N     0.38517   0.23237   0.95993   0.00000  Uiso   1.00
N290   N     0.11083   0.28485   0.04027   0.00000  Uiso   1.00
N291   N     0.32570   0.48838   0.60343   0.00000  Uiso   1.00
N292   N     0.02288   0.17688   0.39654   0.00000  Uiso   1.00
N293   N     0.01530   0.32507   0.60342   0.00000  Uiso   1.00
N294   N     0.32191   0.02650   0.39658   0.00000  Uiso   1.00
N295   N     0.17430   0.01162   0.60345   0.00000  Uiso   1.00
N296   N     0.23256   0.07459   0.89656   0.00000  Uiso   1.00
O297   O     0.25000   0.00000   0.25000   0.00000  Uiso   1.00
O298   O     0.25000   0.46539   0.66251   0.00000  Uiso   1.00
O299   O     0.46538   0.25000   0.33749   0.00000  Uiso   1.00
O300   O     0.03461   0.25000   0.66251   0.00000  Uiso   1.00
O301   O     0.00000   0.21538   0.83749   0.00000  Uiso   1.00
O302   O    -0.00000   0.28462   0.16251   0.00000  Uiso   1.00
O303   O     0.28461   0.00000   0.83749   0.00000  Uiso   1.00
O304   O     0.21538   0.00000   0.16251   0.00000  Uiso   1.00
O305   O     0.00000   0.28461   0.83749   0.00000  Uiso   1.00
O306   O     0.00000   0.21538   0.16251   0.00000  Uiso   1.00
O307   O     0.21538   0.00000   0.83749   0.00000  Uiso   1.00
O308   O     0.25000   0.00000   0.75000   0.00000  Uiso   1.00
O309   O     0.28461   0.00000   0.16251   0.00000  Uiso   1.00
O310   O     0.20126   0.08332   0.27298   0.00000  Uiso   1.00
O311   O     0.29873   0.41668   0.72702   0.00000  Uiso   1.00
O312   O     0.41668   0.20127   0.27298   0.00000  Uiso   1.00
O313   O     0.08332   0.29873   0.72702   0.00000  Uiso   1.00
O314   O     0.29873   0.41668   0.27298   0.00000  Uiso   1.00
O315   O     0.20126   0.08332   0.72702   0.00000  Uiso   1.00
O316   O     0.08332   0.29873   0.27298   0.00000  Uiso   1.00
O317   O     0.41668   0.20127   0.72702   0.00000  Uiso   1.00
O318   O     0.20126   0.41668   0.72702   0.00000  Uiso   1.00
O319   O     0.00000   0.25000   0.25000   0.00000  Uiso   1.00
O320   O     0.29873   0.08332   0.27298   0.00000  Uiso   1.00
O321   O     0.41668   0.29874   0.72702   0.00000  Uiso   1.00
O322   O     0.08332   0.20127   0.27298   0.00000  Uiso   1.00
O323   O     0.29873   0.08332   0.72702   0.00000  Uiso   1.00
O324   O     0.20126   0.41668   0.27298   0.00000  Uiso   1.00
O325   O     0.08332   0.20127   0.72702   0.00000  Uiso   1.00
O326   O     0.41668   0.29874   0.27298   0.00000  Uiso   1.00
O327   O     0.45126   0.33332   0.77298   0.00000  Uiso   1.00
O328   O     0.04873   0.16668   0.22702   0.00000  Uiso   1.00
O329   O     0.16668   0.45127   0.77298   0.00000  Uiso   1.00
O330   O     0.00000   0.25000   0.75000   0.00000  Uiso   1.00
O331   O     0.33332   0.04874   0.22702   0.00000  Uiso   1.00
O332   O     0.04873   0.16668   0.77298   0.00000  Uiso   1.00
O333   O     0.45126   0.33332   0.22702   0.00000  Uiso   1.00
O334   O     0.33332   0.04874   0.77298   0.00000  Uiso   1.00
O335   O     0.16668   0.45127   0.22702   0.00000  Uiso   1.00
O336   O     0.45126   0.16668   0.22702   0.00000  Uiso   1.00
O337   O     0.04873   0.33332   0.77298   0.00000  Uiso   1.00
O338   O     0.16668   0.04874   0.22702   0.00000  Uiso   1.00
O339   O     0.33332   0.45127   0.77298   0.00000  Uiso   1.00
O340   O     0.04873   0.33332   0.22702   0.00000  Uiso   1.00
O341   O     0.25000   0.46539   0.33749   0.00000  Uiso   1.00
O342   O     0.45126   0.16668   0.77298   0.00000  Uiso   1.00
O343   O     0.33332   0.45127   0.22702   0.00000  Uiso   1.00
O344   O     0.16668   0.04874   0.77298   0.00000  Uiso   1.00
O345   O     0.25000   0.03462   0.66251   0.00000  Uiso   1.00
O346   O     0.03461   0.25000   0.33749   0.00000  Uiso   1.00
O347   O     0.46538   0.25000   0.66251   0.00000  Uiso   1.00
O348   O     0.25000   0.03462   0.33749   0.00000  Uiso   1.00
Zn349  Zn    0.20052   0.00000   0.21730   0.00000  Uiso   1.00
Zn350  Zn    0.04947   0.25000   0.28270   0.00000  Uiso   1.00
Zn351  Zn    0.25000   0.45053   0.71730   0.00000  Uiso   1.00
Zn352  Zn    0.25000   0.04948   0.28270   0.00000  Uiso   1.00
Zn353  Zn    0.04947   0.25000   0.71730   0.00000  Uiso   1.00
Zn354  Zn    0.45052   0.25000   0.28270   0.00000  Uiso   1.00
Zn355  Zn    0.25000   0.04948   0.71730   0.00000  Uiso   1.00
Zn356  Zn    0.25000   0.45053   0.28270   0.00000  Uiso   1.00
Zn357  Zn    0.29947   0.00000   0.78270   0.00000  Uiso   1.00
Zn358  Zn    0.00000   0.20052   0.21730   0.00000  Uiso   1.00
Zn359  Zn    0.00000   0.29947   0.78270   0.00000  Uiso   1.00
Zn360  Zn    0.29947   0.00000   0.21730   0.00000  Uiso   1.00
Zn361  Zn    0.20052   0.00000   0.78270   0.00000  Uiso   1.00
Zn362  Zn    0.00000   0.29947   0.21730   0.00000  Uiso   1.00
Zn363  Zn    0.00000   0.20052   0.78270   0.00000  Uiso   1.00
Zn364  Zn    0.45052   0.25000   0.71730   0.00000  Uiso   1.00
C365   C     0.75000  -0.00000   0.35581   0.00000  Uiso   1.00
C366   C     0.83002   0.41998   0.75000   0.00000  Uiso   1.00
C367   C     0.92504   0.23141   0.02046   0.00000  Uiso   1.00
C368   C     0.75326   0.07719   0.97959   0.00000  Uiso   1.00
C369   C     0.74877   0.42280   0.02038   0.00000  Uiso   1.00
C370   C     0.92454   0.23354   0.97974   0.00000  Uiso   1.00
C371   C     0.57497   0.26857   0.02044   0.00000  Uiso   1.00
C372   C     0.50593   0.34518   0.37103   0.00000  Uiso   1.00
C373   C     0.51558   0.15570   0.62884   0.00000  Uiso   1.00
C374   C     0.65471   0.00131   0.37102   0.00000  Uiso   1.00
C375   C     0.84356   0.02021   0.62871   0.00000  Uiso   1.00
C376   C     0.99404   0.15480   0.37104   0.00000  Uiso   1.00
C377   C     0.91997   0.16998   0.24999   0.00000  Uiso   1.00
C378   C     0.98439   0.34430   0.62881   0.00000  Uiso   1.00
C379   C     0.84530   0.49881   0.37099   0.00000  Uiso   1.00
C380   C     0.65644   0.47979   0.62872   0.00000  Uiso   1.00
C381   C     0.76277   0.09460   0.87096   0.00000  Uiso   1.00
C382   C     0.75667   0.40495   0.12912   0.00000  Uiso   1.00
C383   C     0.90531   0.23919   0.87108   0.00000  Uiso   1.00
C384   C     0.59100   0.28147   0.12830   0.00000  Uiso   1.00
C385   C     0.73696   0.40540   0.87105   0.00000  Uiso   1.00
C386   C     0.74349   0.09508   0.12911   0.00000  Uiso   1.00
C387   C     0.59469   0.26074   0.87107   0.00000  Uiso   1.00
C388   C     0.58003   0.33002   0.75001   0.00000  Uiso   1.00
C389   C     0.90900   0.21858   0.12836   0.00000  Uiso   1.00
C390   C     0.95396   0.12048   0.45672   0.00000  Uiso   1.00
C391   C     0.94047   0.37374   0.54338   0.00000  Uiso   1.00
C392   C     0.88152   0.46030   0.45673   0.00000  Uiso   1.00
C393   C     0.62938   0.43442   0.54341   0.00000  Uiso   1.00
C394   C     0.54602   0.37954   0.45674   0.00000  Uiso   1.00
C395   C     0.55946   0.12620   0.54339   0.00000  Uiso   1.00
C396   C     0.61850   0.03974   0.45679   0.00000  Uiso   1.00
C397   C     0.87060   0.06559   0.54339   0.00000  Uiso   1.00
C398   C     0.69446   0.37408   0.95639   0.00000  Uiso   1.00
C399   C     0.83002   0.41998   0.25000   0.00000  Uiso   1.00
C400   C     0.70153   0.12827   0.04400   0.00000  Uiso   1.00
C401   C     0.63531   0.22700   0.95677   0.00000  Uiso   1.00
C402   C     0.88873   0.16967   0.04354   0.00000  Uiso   1.00
C403   C     0.80589   0.12559   0.95606   0.00000  Uiso   1.00
C404   C     0.79913   0.37218   0.04402   0.00000  Uiso   1.00
C405   C     0.86464   0.27291   0.95679   0.00000  Uiso   1.00
C406   C     0.61135   0.33029   0.04345   0.00000  Uiso   1.00
C407   C     0.66998   0.08002   0.75000   0.00000  Uiso   1.00
C408   C     0.58002   0.33002   0.24999   0.00000  Uiso   1.00
C409   C     0.91998   0.16998   0.75001   0.00000  Uiso   1.00
C410   C     0.66998   0.41998   0.75000   0.00000  Uiso   1.00
C411   C     0.83002   0.08002   0.25000   0.00000  Uiso   1.00
C412   C     0.91998   0.33003   0.74999   0.00000  Uiso   1.00
C413   C     0.75000   0.00000   0.64420   0.00000  Uiso   1.00
C414   C     0.58002   0.16997   0.25001   0.00000  Uiso   1.00
C415   C     0.83002   0.08002   0.75000   0.00000  Uiso   1.00
C416   C     0.66998   0.41998   0.25000   0.00000  Uiso   1.00
C417   C     0.58002   0.16997   0.74999   0.00000  Uiso   1.00
C418   C     0.91998   0.33003   0.25001   0.00000  Uiso   1.00
C419   C     0.63834   0.38833   0.24999   0.00000  Uiso   1.00
C420   C     0.86166   0.11167   0.75000   0.00000  Uiso   1.00
C421   C     0.61166   0.13832   0.25001   0.00000  Uiso   1.00
C422   C     0.88834   0.36168   0.74999   0.00000  Uiso   1.00
C423   C     0.86166   0.11167   0.24999   0.00000  Uiso   1.00
C424   C     0.50000   0.25000   0.35580   0.00000  Uiso   1.00
C425   C     0.63834   0.38833   0.75001   0.00000  Uiso   1.00
C426   C     0.88834   0.36168   0.25001   0.00000  Uiso   1.00
C427   C     0.61166   0.13833   0.74999   0.00000  Uiso   1.00
C428   C     0.63833   0.11167   0.74999   0.00000  Uiso   1.00
C429   C     0.86167   0.38834   0.25001   0.00000  Uiso   1.00
C430   C     0.61167   0.36166   0.75001   0.00000  Uiso   1.00
C431   C     0.88833   0.13834   0.24999   0.00000  Uiso   1.00
C432   C     0.86167   0.38833   0.74999   0.00000  Uiso   1.00
C433   C     0.63833   0.11167   0.25001   0.00000  Uiso   1.00
C434   C     0.88833   0.13834   0.75001   0.00000  Uiso   1.00
C435   C     0.50000   0.25000   0.64420   0.00000  Uiso   1.00
C436   C     0.61167   0.36166   0.24999   0.00000  Uiso   1.00
C437   C     0.99265   0.28776   0.41790   0.00000  Uiso   1.00
C438   C     0.99670   0.21166   0.58212   0.00000  Uiso   1.00
C439   C     0.71265   0.49076   0.41793   0.00000  Uiso   1.00
C440   C     0.78845   0.49865   0.58213   0.00000  Uiso   1.00
C441   C     0.50735   0.21223   0.41790   0.00000  Uiso   1.00
C442   C     0.50330   0.28833   0.58211   0.00000  Uiso   1.00
C443   C     0.78735   0.00925   0.41792   0.00000  Uiso   1.00
C444   C     0.71155   0.00135   0.58214   0.00000  Uiso   1.00
C445   C     0.74562   0.03822   0.91787   0.00000  Uiso   1.00
C446   C     0.50000   0.25000   0.85583   0.00000  Uiso   1.00
C447   C     0.74320   0.46214   0.08206   0.00000  Uiso   1.00
C448   C     0.96414   0.23601   0.91800   0.00000  Uiso   1.00
C449   C     0.53832   0.25356   0.08217   0.00000  Uiso   1.00
C450   C     0.75438   0.46177   0.91786   0.00000  Uiso   1.00
C451   C     0.75690   0.03787   0.08205   0.00000  Uiso   1.00
C452   C     0.53587   0.26397   0.91799   0.00000  Uiso   1.00
C453   C     0.96168   0.24645   0.08217   0.00000  Uiso   1.00
C454   C     0.50000   0.25000   0.39804   0.00000  Uiso   1.00
C455   C     0.50000   0.25000   0.60197   0.00000  Uiso   1.00
C456   C     0.75000  -0.00000   0.39805   0.00000  Uiso   1.00
C457   C     0.50000   0.25000   0.14421   0.00000  Uiso   1.00
C458   C     0.75000   0.00000   0.60199   0.00000  Uiso   1.00
C459   C     0.74999  -0.00000   0.89801   0.00000  Uiso   1.00
C460   C     0.75002   0.00001   0.10194   0.00000  Uiso   1.00
C461   C     0.50000   0.25000   0.89810   0.00000  Uiso   1.00
C462   C     0.50000   0.25001   0.10202   0.00000  Uiso   1.00
C463   C     0.50329   0.21127   0.45885   0.00000  Uiso   1.00
C464   C     0.99917   0.28885   0.54116   0.00000  Uiso   1.00
C465   C     0.78851   0.00520   0.45887   0.00000  Uiso   1.00
C466   C     0.71125   0.49724   0.54119   0.00000  Uiso   1.00
C467   C     0.99670   0.28872   0.45885   0.00000  Uiso   1.00
C468   C     0.75000  -0.00000   0.85579   0.00000  Uiso   1.00
C469   C     0.50082   0.21114   0.54116   0.00000  Uiso   1.00
C470   C     0.71149   0.49479   0.45888   0.00000  Uiso   1.00
C471   C     0.78875   0.00276   0.54118   0.00000  Uiso   1.00
C472   C     0.75025   0.46113   0.95882   0.00000  Uiso   1.00
C473   C     0.75266   0.03877   0.04111   0.00000  Uiso   1.00
C474   C     0.53753   0.26006   0.95893   0.00000  Uiso   1.00
C475   C     0.96191   0.24233   0.04123   0.00000  Uiso   1.00
C476   C     0.74983   0.03886   0.95881   0.00000  Uiso   1.00
C477   C     0.74748   0.46126   0.04112   0.00000  Uiso   1.00
C478   C     0.96247   0.23993   0.95894   0.00000  Uiso   1.00
C479   C     0.75000   0.00000   0.14419   0.00000  Uiso   1.00
C480   C     0.53809   0.25768   0.04122   0.00000  Uiso   1.00
C481   C     0.50000   0.25000   0.47944   0.00000  Uiso   1.00
C482   C     0.50000   0.25000   0.52057   0.00000  Uiso   1.00
C483   C     0.75000   0.49999   0.47946   0.00000  Uiso   1.00
C484   C     0.75000  -0.00000   0.52059   0.00000  Uiso   1.00
C485   C     0.75004   0.00000   0.97940   0.00000  Uiso   1.00
C486   C     0.75005   0.00001   0.02052   0.00000  Uiso   1.00
C487   C     0.50000   0.25000   0.97952   0.00000  Uiso   1.00
C488   C     0.50000   0.25000   0.02065   0.00000  Uiso   1.00
C489   C     0.50300   0.17281   0.47964   0.00000  Uiso   1.00
C490   C     0.66998   0.08002   0.25000   0.00000  Uiso   1.00
C491   C     0.99483   0.32706   0.52037   0.00000  Uiso   1.00
C492   C     0.82693   0.00678   0.47965   0.00000  Uiso   1.00
C493   C     0.67329   0.49106   0.52041   0.00000  Uiso   1.00
C494   C     0.99698   0.32718   0.47963   0.00000  Uiso   1.00
C495   C     0.50515   0.17293   0.52038   0.00000  Uiso   1.00
C496   C     0.67307   0.49322   0.47967   0.00000  Uiso   1.00
C497   C     0.82671   0.00894   0.52039   0.00000  Uiso   1.00
C498   C     0.74692   0.42281   0.97962   0.00000  Uiso   1.00
C499   C     0.75148   0.07723   0.02035   0.00000  Uiso   1.00
C500   C     0.57546   0.26643   0.97972   0.00000  Uiso   1.00
H501   H     0.95335   0.34074   0.40883   0.00000  Uiso   1.00
H502   H     0.62098   0.00164   0.37942   0.00000  Uiso   1.00
H503   H     0.68057   0.36849   0.98548   0.00000  Uiso   1.00
H504   H     0.76453   0.14045   0.03173   0.00000  Uiso   1.00
H505   H     0.69925   0.15742   0.06165   0.00000  Uiso   1.00
H506   H     0.68332   0.10306   0.05877   0.00000  Uiso   1.00
H507   H     0.68752   0.13442   0.01502   0.00000  Uiso   1.00
H508   H     0.63496   0.29134   0.96825   0.00000  Uiso   1.00
H509   H     0.66450   0.23018   0.93930   0.00000  Uiso   1.00
H510   H     0.61423   0.20406   0.94209   0.00000  Uiso   1.00
H511   H     0.64379   0.21480   0.98595   0.00000  Uiso   1.00
H512   H     0.86064   0.22750   0.03192   0.00000  Uiso   1.00
H513   H     0.65709   0.48947   0.34081   0.00000  Uiso   1.00
H514   H     0.86073   0.15957   0.06045   0.00000  Uiso   1.00
H515   H     0.91745   0.15852   0.05879   0.00000  Uiso   1.00
H516   H     0.88735   0.15492   0.01436   0.00000  Uiso   1.00
H517   H     0.74359   0.14098   0.96817   0.00000  Uiso   1.00
H518   H     0.80975   0.15454   0.93836   0.00000  Uiso   1.00
H519   H     0.82285   0.09944   0.94143   0.00000  Uiso   1.00
H520   H     0.82001   0.13106   0.98507   0.00000  Uiso   1.00
H521   H     0.73624   0.35948   0.03178   0.00000  Uiso   1.00
H522   H     0.80166   0.34308   0.06171   0.00000  Uiso   1.00
H523   H     0.81714   0.39756   0.05875   0.00000  Uiso   1.00
H524   H     0.66690   0.03411   0.37209   0.00000  Uiso   1.00
H525   H     0.81315   0.36612   0.01503   0.00000  Uiso   1.00
H526   H     0.86507   0.20857   0.96828   0.00000  Uiso   1.00
H527   H     0.83545   0.26969   0.93933   0.00000  Uiso   1.00
H528   H     0.88569   0.29586   0.94209   0.00000  Uiso   1.00
H529   H     0.85615   0.28511   0.98597   0.00000  Uiso   1.00
H530   H     0.63936   0.27240   0.03189   0.00000  Uiso   1.00
H531   H     0.63934   0.34036   0.06038   0.00000  Uiso   1.00
H532   H     0.58263   0.34150   0.05866   0.00000  Uiso   1.00
H533   H     0.61280   0.34500   0.01426   0.00000  Uiso   1.00
H534   H     0.84659   0.46755   0.59096   0.00000  Uiso   1.00
H535   H     0.87679   0.02637   0.62051   0.00000  Uiso   1.00
H536   H     0.84300   0.00863   0.65909   0.00000  Uiso   1.00
H537   H     0.82585   0.05034   0.62705   0.00000  Uiso   1.00
H538   H     0.54667   0.15927   0.40880   0.00000  Uiso   1.00
H539   H     0.99226   0.12110   0.37937   0.00000  Uiso   1.00
H540   H     0.50585   0.15674   0.34079   0.00000  Uiso   1.00
H541   H     0.50770   0.37889   0.37935   0.00000  Uiso   1.00
H542   H     0.96182   0.16839   0.37225   0.00000  Uiso   1.00
H543   H     0.53709   0.34500   0.59098   0.00000  Uiso   1.00
H544   H     0.97963   0.37775   0.62059   0.00000  Uiso   1.00
H545   H     0.99609   0.34328   0.65913   0.00000  Uiso   1.00
H546   H     0.95353   0.32785   0.62731   0.00000  Uiso   1.00
H547   H     0.83841   0.05106   0.40889   0.00000  Uiso   1.00
H548   H     0.87903   0.49849   0.37940   0.00000  Uiso   1.00
H549   H     0.84293   0.01070   0.34079   0.00000  Uiso   1.00
H550   H     0.83314   0.46600   0.37202   0.00000  Uiso   1.00
H551   H     0.65342   0.03246   0.59097   0.00000  Uiso   1.00
H552   H     0.99413   0.34323   0.34078   0.00000  Uiso   1.00
H553   H     0.62321   0.47364   0.62053   0.00000  Uiso   1.00
H554   H     0.65700   0.49137   0.65910   0.00000  Uiso   1.00
H555   H     0.67414   0.44966   0.62706   0.00000  Uiso   1.00
H556   H     0.71022   0.09389   0.90899   0.00000  Uiso   1.00
H557   H     0.76668   0.12819   0.87907   0.00000  Uiso   1.00
H558   H     0.75091   0.09319   0.84070   0.00000  Uiso   1.00
H559   H     0.79407   0.07902   0.87232   0.00000  Uiso   1.00
H560   H     0.70464   0.40853   0.09065   0.00000  Uiso   1.00
H561   H     0.75894   0.37124   0.12087   0.00000  Uiso   1.00
H562   H     0.74449   0.40680   0.15925   0.00000  Uiso   1.00
H563   H     0.53817   0.33161   0.37225   0.00000  Uiso   1.00
H564   H     0.78875   0.41892   0.12818   0.00000  Uiso   1.00
H565   H     0.91860   0.18820   0.90900   0.00000  Uiso   1.00
H566   H     0.87183   0.23566   0.87970   0.00000  Uiso   1.00
H567   H     0.90882   0.22739   0.84095   0.00000  Uiso   1.00
H568   H     0.91361   0.27319   0.87178   0.00000  Uiso   1.00
H569   H     0.59963   0.22938   0.09072   0.00000  Uiso   1.00
H570   H     0.62346   0.29088   0.12009   0.00000  Uiso   1.00
H571   H     0.59154   0.27032   0.15881   0.00000  Uiso   1.00
H572   H     0.57033   0.30961   0.12622   0.00000  Uiso   1.00
H573   H     0.78973   0.40608   0.90883   0.00000  Uiso   1.00
H574   H     0.96288   0.15500   0.59101   0.00000  Uiso   1.00
H575   H     0.73305   0.37182   0.87919   0.00000  Uiso   1.00
H576   H     0.74869   0.40680   0.84074   0.00000  Uiso   1.00
H577   H     0.70569   0.42103   0.87254   0.00000  Uiso   1.00
H578   H     0.79559   0.09137   0.09073   0.00000  Uiso   1.00
H579   H     0.74133   0.12880   0.12089   0.00000  Uiso   1.00
H580   H     0.75560   0.09315   0.15926   0.00000  Uiso   1.00
H581   H     0.71137   0.08120   0.12812   0.00000  Uiso   1.00
H582   H     0.58143   0.31175   0.90897   0.00000  Uiso   1.00
H583   H     0.62818   0.26427   0.87968   0.00000  Uiso   1.00
H584   H     0.59119   0.27251   0.84093   0.00000  Uiso   1.00
H585   H     0.52033   0.12224   0.62064   0.00000  Uiso   1.00
H586   H     0.58639   0.22673   0.87181   0.00000  Uiso   1.00
H587   H     0.90036   0.27063   0.09071   0.00000  Uiso   1.00
H588   H     0.87654   0.20916   0.12017   0.00000  Uiso   1.00
H589   H     0.90846   0.22978   0.15885   0.00000  Uiso   1.00
H590   H     0.92968   0.19044   0.12631   0.00000  Uiso   1.00
H591   H     0.51744   0.10996   0.46810   0.00000  Uiso   1.00
H592   H     0.95212   0.09116   0.43925   0.00000  Uiso   1.00
H593   H     0.93490   0.14513   0.44208   0.00000  Uiso   1.00
H594   H     0.94059   0.11417   0.48591   0.00000  Uiso   1.00
H595   H     0.50240   0.39113   0.53187   0.00000  Uiso   1.00
H596   H     0.50387   0.15673   0.65916   0.00000  Uiso   1.00
H597   H     0.93550   0.40270   0.56083   0.00000  Uiso   1.00
H598   H     0.92424   0.34717   0.55808   0.00000  Uiso   1.00
H599   H     0.92640   0.37851   0.51421   0.00000  Uiso   1.00
H600   H     0.88902   0.02424   0.46809   0.00000  Uiso   1.00
H601   H     0.91086   0.45987   0.43922   0.00000  Uiso   1.00
H602   H     0.85779   0.44007   0.44211   0.00000  Uiso   1.00
H603   H     0.88851   0.44723   0.48592   0.00000  Uiso   1.00
H604   H     0.60895   0.49541   0.53189   0.00000  Uiso   1.00
H605   H     0.60053   0.42799   0.56062   0.00000  Uiso   1.00
H606   H     0.65659   0.41959   0.55834   0.00000  Uiso   1.00
H607   H     0.54644   0.17213   0.62733   0.00000  Uiso   1.00
H608   H     0.62567   0.42009   0.51422   0.00000  Uiso   1.00
H609   H     0.98252   0.39002   0.46808   0.00000  Uiso   1.00
H610   H     0.54786   0.40887   0.43929   0.00000  Uiso   1.00
H611   H     0.56510   0.35491   0.44211   0.00000  Uiso   1.00
H612   H     0.55936   0.38584   0.48595   0.00000  Uiso   1.00
H613   H     0.99752   0.10887   0.53189   0.00000  Uiso   1.00
H614   H     0.56440   0.09722   0.56083   0.00000  Uiso   1.00
H615   H     0.57572   0.15274   0.55811   0.00000  Uiso   1.00
H616   H     0.57354   0.12144   0.51422   0.00000  Uiso   1.00
H617   H     0.61098   0.47580   0.46813   0.00000  Uiso   1.00
H618   H     0.66154   0.44901   0.40888   0.00000  Uiso   1.00
H619   H     0.58915   0.04020   0.43930   0.00000  Uiso   1.00
H620   H     0.64223   0.05997   0.44217   0.00000  Uiso   1.00
H621   H     0.61153   0.05280   0.48599   0.00000  Uiso   1.00
H622   H     0.89106   0.00462   0.53185   0.00000  Uiso   1.00
H623   H     0.89944   0.07203   0.56058   0.00000  Uiso   1.00
H624   H     0.84338   0.08040   0.55834   0.00000  Uiso   1.00
H625   H     0.87429   0.07993   0.51419   0.00000  Uiso   1.00
H626   H     0.75694   0.35910   0.96816   0.00000  Uiso   1.00
H627   H     0.69068   0.34512   0.93869   0.00000  Uiso   1.00
H628   H     0.67723   0.40013   0.94187   0.00000  Uiso   1.00
N629   N     0.97711   0.32310   0.39654   0.00000  Uiso   1.00
N630   N     0.72787   0.42660   0.10329   0.00000  Uiso   1.00
N631   N     0.93193   0.21463   0.89670   0.00000  Uiso   1.00
N632   N     0.57657   0.24763   0.10338   0.00000  Uiso   1.00
N633   N     0.76732   0.42538   0.89652   0.00000  Uiso   1.00
N634   N     0.77227   0.07337   0.10330   0.00000  Uiso   1.00
N635   N     0.56809   0.28532   0.89668   0.00000  Uiso   1.00
N636   N     0.92343   0.25239   0.10339   0.00000  Uiso   1.00
N637   N     0.99741   0.13382   0.45980   0.00000  Uiso   1.00
N638   N     0.98509   0.36522   0.54021   0.00000  Uiso   1.00
N639   N     0.86614   0.00306   0.45982   0.00000  Uiso   1.00
N640   N     0.98469   0.17493   0.60343   0.00000  Uiso   1.00
N641   N     0.63567   0.47943   0.54024   0.00000  Uiso   1.00
N642   N     0.50258   0.36617   0.45980   0.00000  Uiso   1.00
N643   N     0.51485   0.13476   0.54022   0.00000  Uiso   1.00
N644   N     0.63386   0.49697   0.45985   0.00000  Uiso   1.00
N645   N     0.86433   0.02058   0.54022   0.00000  Uiso   1.00
N646   N     0.73871   0.38432   0.95974   0.00000  Uiso   1.00
N647   N     0.74524   0.11606   0.04027   0.00000  Uiso   1.00
N648   N     0.61483   0.26756   0.95990   0.00000  Uiso   1.00
N649   N     0.88919   0.21510   0.04030   0.00000  Uiso   1.00
N650   N     0.76160   0.11563   0.95966   0.00000  Uiso   1.00
N651   N     0.67806   0.47357   0.39658   0.00000  Uiso   1.00
N652   N     0.75532   0.38403   0.04031   0.00000  Uiso   1.00
N653   N     0.88517   0.23237   0.95993   0.00000  Uiso   1.00
N654   N     0.61083   0.28485   0.04027   0.00000  Uiso   1.00
N655   N     0.82570   0.48838   0.60343   0.00000  Uiso   1.00
N656   N     0.52288   0.17688   0.39654   0.00000  Uiso   1.00
N657   N     0.51530   0.32507   0.60342   0.00000  Uiso   1.00
N658   N     0.82191   0.02650   0.39658   0.00000  Uiso   1.00
N659   N     0.67430   0.01162   0.60345   0.00000  Uiso   1.00
N660   N     0.73256   0.07459   0.89656   0.00000  Uiso   1.00
O661   O     0.75000   0.00000   0.25000   0.00000  Uiso   1.00
O662   O     0.75000   0.46539   0.66251   0.00000  Uiso   1.00
O663   O     0.96538   0.25000   0.33749   0.00000  Uiso   1.00
O664   O     0.53461   0.25000   0.66251   0.00000  Uiso   1.00
O665   O     0.50000   0.21538   0.83749   0.00000  Uiso   1.00
O666   O     0.50000   0.28462   0.16251   0.00000  Uiso   1.00
O667   O     0.78461   0.00000   0.83749   0.00000  Uiso   1.00
O668   O     0.71538   0.00000   0.16251   0.00000  Uiso   1.00
O669   O     0.50000   0.28461   0.83749   0.00000  Uiso   1.00
O670   O     0.50000   0.21538   0.16251   0.00000  Uiso   1.00
O671   O     0.71538   0.00000   0.83749   0.00000  Uiso   1.00
O672   O     0.75000   0.00000   0.75000   0.00000  Uiso   1.00
O673   O     0.78461   0.00000   0.16251   0.00000  Uiso   1.00
O674   O     0.70126   0.08332   0.27298   0.00000  Uiso   1.00
O675   O     0.79873   0.41668   0.72702   0.00000  Uiso   1.00
O676   O     0.91668   0.20127   0.27298   0.00000  Uiso   1.00
O677   O     0.58332   0.29873   0.72702   0.00000  Uiso   1.00
O678   O     0.79873   0.41668   0.27298   0.00000  Uiso   1.00
O679   O     0.70126   0.08332   0.72702   0.00000  Uiso   1.00
O680   O     0.58332   0.29873   0.27298   0.00000  Uiso   1.00
O681   O     0.91668   0.20127   0.72702   0.00000  Uiso   1.00
O682   O     0.70126   0.41668   0.72702   0.00000  Uiso   1.00
O683   O     0.50000   0.25000   0.25000   0.00000  Uiso   1.00
O684   O     0.79873   0.08332   0.27298   0.00000  Uiso   1.00
O685   O     0.91668   0.29874   0.72702   0.00000  Uiso   1.00
O686   O     0.58332   0.20127   0.27298   0.00000  Uiso   1.00
O687   O     0.79873   0.08332   0.72702   0.00000  Uiso   1.00
O688   O     0.70126   0.41668   0.27298   0.00000  Uiso   1.00
O689   O     0.58332   0.20127   0.72702   0.00000  Uiso   1.00
O690   O     0.91668   0.29874   0.27298   0.00000  Uiso   1.00
O691   O     0.95126   0.33332   0.77298   0.00000  Uiso   1.00
O692   O     0.54873   0.16668   0.22702   0.00000  Uiso   1.00
O693   O     0.66668   0.45127   0.77298   0.00000  Uiso   1.00
O694   O     0.50000   0.25000   0.75000   0.00000  Uiso   1.00
O695   O     0.83332   0.04874   0.22702   0.00000  Uiso   1.00
O696   O     0.54873   0.16668   0.77298   0.00000  Uiso   1.00
O697   O     0.95126   0.33332   0.22702   0.00000  Uiso   1.00
O698   O     0.83332   0.04874   0.77298   0.00000  Uiso   1.00
O699   O     0.66668   0.45127   0.22702   0.00000  Uiso   1.00
O700   O     0.95126   0.16668   0.22702   0.00000  Uiso   1.00
O701   O     0.54873   0.33332   0.77298   0.00000  Uiso   1.00
O702   O     0.66668   0.04874   0.22702   0.00000  Uiso   1.00
O703   O     0.83332   0.45127   0.77298   0.00000  Uiso   1.00
O704   O     0.54873   0.33332   0.22702   0.00000  Uiso   1.00
O705   O     0.75000   0.46539   0.33749   0.00000  Uiso   1.00
O706   O     0.95126   0.16668   0.77298   0.00000  Uiso   1.00
O707   O     0.83332   0.45127   0.22702   0.00000  Uiso   1.00
O708   O     0.66668   0.04874   0.77298   0.00000  Uiso   1.00
O709   O     0.75000   0.03462   0.66251   0.00000  Uiso   1.00
O710   O     0.53461   0.25000   0.33749   0.00000  Uiso   1.00
O711   O     0.96538   0.25000   0.66251   0.00000  Uiso   1.00
O712   O     0.75000   0.03462   0.33749   0.00000  Uiso   1.00
Zn713  Zn    0.70052   0.00000   0.21730   0.00000  Uiso   1.00
Zn714  Zn    0.54947   0.25000   0.28270   0.00000  Uiso   1.00
Zn715  Zn    0.75000   0.45053   0.71730   0.00000  Uiso   1.00
Zn716  Zn    0.75000   0.04948   0.28270   0.00000  Uiso   1.00
Zn717  Zn    0.54947   0.25000   0.71730   0.00000  Uiso   1.00
Zn718  Zn    0.95052   0.25000   0.28270   0.00000  Uiso   1.00
Zn719  Zn    0.75000   0.04948   0.71730   0.00000  Uiso   1.00
Zn720  Zn    0.75000   0.45053   0.28270   0.00000  Uiso   1.00
Zn721  Zn    0.79947   0.00000   0.78270   0.00000  Uiso   1.00
Zn722  Zn    0.50000   0.20052   0.21730   0.00000  Uiso   1.00
Zn723  Zn    0.50000   0.29947   0.78270   0.00000  Uiso   1.00
Zn724  Zn    0.79947   0.00000   0.21730   0.00000  Uiso   1.00
Zn725  Zn    0.70052   0.00000   0.78270   0.00000  Uiso   1.00
Zn726  Zn    0.50000   0.29947   0.21730   0.00000  Uiso   1.00
Zn727  Zn    0.50000   0.20052   0.78270   0.00000  Uiso   1.00
Zn728  Zn    0.95052   0.25000   0.71730   0.00000  Uiso   1.00
C729   C     0.25000   0.50000   0.35581   0.00000  Uiso   1.00
C730   C     0.33002   0.91998   0.75000   0.00000  Uiso   1.00
C731   C     0.42504   0.73141   0.02046   0.00000  Uiso   1.00
C732   C     0.25326   0.57719   0.97959   0.00000  Uiso   1.00
C733   C     0.24877   0.92280   0.02038   0.00000  Uiso   1.00
C734   C     0.42454   0.73354   0.97974   0.00000  Uiso   1.00
C735   C     0.07497   0.76857   0.02044   0.00000  Uiso   1.00
C736   C     0.00593   0.84518   0.37103   0.00000  Uiso   1.00
C737   C     0.01558   0.65570   0.62884   0.00000  Uiso   1.00
C738   C     0.15471   0.50131   0.37102   0.00000  Uiso   1.00
C739   C     0.34356   0.52021   0.62871   0.00000  Uiso   1.00
C740   C     0.49404   0.65480   0.37104   0.00000  Uiso   1.00
C741   C     0.41997   0.66998   0.24999   0.00000  Uiso   1.00
C742   C     0.48439   0.84430   0.62881   0.00000  Uiso   1.00
C743   C     0.34530   0.99881   0.37099   0.00000  Uiso   1.00
C744   C     0.15644   0.97979   0.62872   0.00000  Uiso   1.00
C745   C     0.26277   0.59460   0.87096   0.00000  Uiso   1.00
C746   C     0.25667   0.90495   0.12912   0.00000  Uiso   1.00
C747   C     0.40531   0.73919   0.87108   0.00000  Uiso   1.00
C748   C     0.09100   0.78147   0.12830   0.00000  Uiso   1.00
C749   C     0.23696   0.90540   0.87105   0.00000  Uiso   1.00
C750   C     0.24349   0.59508   0.12911   0.00000  Uiso   1.00
C751   C     0.09469   0.76074   0.87107   0.00000  Uiso   1.00
C752   C     0.08003   0.83002   0.75001   0.00000  Uiso   1.00
C753   C     0.40900   0.71858   0.12836   0.00000  Uiso   1.00
C754   C     0.45396   0.62048   0.45672   0.00000  Uiso   1.00
C755   C     0.44047   0.87374   0.54338   0.00000  Uiso   1.00
C756   C     0.38152   0.96030   0.45673   0.00000  Uiso   1.00
C757   C     0.12938   0.93442   0.54341   0.00000  Uiso   1.00
C758   C     0.04602   0.87954   0.45674   0.00000  Uiso   1.00
C759   C     0.05946   0.62620   0.54339   0.00000  Uiso   1.00
C760   C     0.11850   0.53974   0.45679   0.00000  Uiso   1.00
C761   C     0.37060   0.56559   0.54339   0.00000  Uiso   1.00
C762   C     0.19446   0.87408   0.95639   0.00000  Uiso   1.00
C763   C     0.33002   0.91998   0.25000   0.00000  Uiso   1.00
C764   C     0.20153   0.62827   0.04400   0.00000  Uiso   1.00
C765   C     0.13531   0.72700   0.95677   0.00000  Uiso   1.00
C766   C     0.38873   0.66967   0.04354   0.00000  Uiso   1.00
C767   C     0.30589   0.62559   0.95606   0.00000  Uiso   1.00
C768   C     0.29913   0.87218   0.04402   0.00000  Uiso   1.00
C769   C     0.36464   0.77291   0.95679   0.00000  Uiso   1.00
C770   C     0.11135   0.83029   0.04345   0.00000  Uiso   1.00
C771   C     0.16998   0.58002   0.75000   0.00000  Uiso   1.00
C772   C     0.08002   0.83002   0.24999   0.00000  Uiso   1.00
C773   C     0.41998   0.66998   0.75001   0.00000  Uiso   1.00
C774   C     0.16998   0.91998   0.75000   0.00000  Uiso   1.00
C775   C     0.33002   0.58002   0.25000   0.00000  Uiso   1.00
C776   C     0.41998   0.83003   0.74999   0.00000  Uiso   1.00
C777   C     0.25000   0.50000   0.64420   0.00000  Uiso   1.00
C778   C     0.08002   0.66997   0.25001   0.00000  Uiso   1.00
C779   C     0.33002   0.58002   0.75000   0.00000  Uiso   1.00
C780   C     0.16998   0.91998   0.25000   0.00000  Uiso   1.00
C781   C     0.08002   0.66997   0.74999   0.00000  Uiso   1.00
C782   C     0.41998   0.83003   0.25001   0.00000  Uiso   1.00
C783   C     0.13834   0.88833   0.24999   0.00000  Uiso   1.00
C784   C     0.36166   0.61167   0.75000   0.00000  Uiso   1.00
C785   C     0.11166   0.63832   0.25001   0.00000  Uiso   1.00
C786   C     0.38834   0.86168   0.74999   0.00000  Uiso   1.00
C787   C     0.36166   0.61167   0.24999   0.00000  Uiso   1.00
C788   C    -0.00000   0.75000   0.35580   0.00000  Uiso   1.00
C789   C     0.13834   0.88833   0.75001   0.00000  Uiso   1.00
C790   C     0.38834   0.86168   0.25001   0.00000  Uiso   1.00
C791   C     0.11166   0.63833   0.74999   0.00000  Uiso   1.00
C792   C     0.13833   0.61167   0.74999   0.00000  Uiso   1.00
C793   C     0.36167   0.88834   0.25001   0.00000  Uiso   1.00
C794   C     0.11167   0.86166   0.75001   0.00000  Uiso   1.00
C795   C     0.38833   0.63834   0.24999   0.00000  Uiso   1.00
C796   C     0.36167   0.88833   0.74999   0.00000  Uiso   1.00
C797   C     0.13833   0.61167   0.25001   0.00000  Uiso   1.00
C798   C     0.38833   0.63834   0.75001   0.00000  Uiso   1.00
C799   C     0.00000   0.75000   0.64420   0.00000  Uiso   1.00
C800   C     0.11167   0.86166   0.24999   0.00000  Uiso   1.00
C801   C     0.49265   0.78776   0.41790   0.00000  Uiso   1.00
C802   C     0.49670   0.71166   0.58212   0.00000  Uiso   1.00
C803   C     0.21265   0.99076   0.41793   0.00000  Uiso   1.00
C804   C     0.28845   0.99865   0.58213   0.00000  Uiso   1.00
C805   C     0.00735   0.71223   0.41790   0.00000  Uiso   1.00
C806   C     0.00330   0.78833   0.58211   0.00000  Uiso   1.00
C807   C     0.28735   0.50925   0.41792   0.00000  Uiso   1.00
C808   C     0.21155   0.50135   0.58214   0.00000  Uiso   1.00
C809   C     0.24562   0.53822   0.91787   0.00000  Uiso   1.00
C810   C    -0.00000   0.75000   0.85583   0.00000  Uiso   1.00
C811   C     0.24320   0.96214   0.08206   0.00000  Uiso   1.00
C812   C     0.46414   0.73601   0.91800   0.00000  Uiso   1.00
C813   C     0.03832   0.75356   0.08217   0.00000  Uiso   1.00
C814   C     0.25438   0.96177   0.91786   0.00000  Uiso   1.00
C815   C     0.25690   0.53787   0.08205   0.00000  Uiso   1.00
C816   C     0.03587   0.76397   0.91799   0.00000  Uiso   1.00
C817   C     0.46168   0.74645   0.08217   0.00000  Uiso   1.00
C818   C    -0.00000   0.75000   0.39804   0.00000  Uiso   1.00
C819   C     0.00000   0.75000   0.60197   0.00000  Uiso   1.00
C820   C     0.25000   0.50000   0.39805   0.00000  Uiso   1.00
C821   C    -0.00000   0.75000   0.14421   0.00000  Uiso   1.00
C822   C     0.25000   0.50000   0.60199   0.00000  Uiso   1.00
C823   C     0.24999   0.50000   0.89801   0.00000  Uiso   1.00
C824   C     0.25002   0.50001   0.10194   0.00000  Uiso   1.00
C825   C    -0.00000   0.75000   0.89810   0.00000  Uiso   1.00
C826   C    -0.00000   0.75001   0.10202   0.00000  Uiso   1.00
C827   C     0.00329   0.71127   0.45885   0.00000  Uiso   1.00
C828   C     0.49917   0.78885   0.54116   0.00000  Uiso   1.00
C829   C     0.28851   0.50520   0.45887   0.00000  Uiso   1.00
C830   C     0.21125   0.99724   0.54119   0.00000  Uiso   1.00
C831   C     0.49670   0.78872   0.45885   0.00000  Uiso   1.00
C832   C     0.25000   0.50000   0.85579   0.00000  Uiso   1.00
C833   C     0.00082   0.71114   0.54116   0.00000  Uiso   1.00
C834   C     0.21149   0.99479   0.45888   0.00000  Uiso   1.00
C835   C     0.28875   0.50276   0.54118   0.00000  Uiso   1.00
C836   C     0.25025   0.96113   0.95882   0.00000  Uiso   1.00
C837   C     0.25266   0.53877   0.04111   0.00000  Uiso   1.00
C838   C     0.03753   0.76006   0.95893   0.00000  Uiso   1.00
C839   C     0.46191   0.74233   0.04123   0.00000  Uiso   1.00
C840   C     0.24983   0.53886   0.95881   0.00000  Uiso   1.00
C841   C     0.24748   0.96126   0.04112   0.00000  Uiso   1.00
C842   C     0.46247   0.73993   0.95894   0.00000  Uiso   1.00
C843   C     0.25000   0.50000   0.14419   0.00000  Uiso   1.00
C844   C     0.03809   0.75768   0.04122   0.00000  Uiso   1.00
C845   C    -0.00000   0.75000   0.47944   0.00000  Uiso   1.00
C846   C    -0.00000   0.75000   0.52057   0.00000  Uiso   1.00
C847   C     0.25000   0.99999   0.47946   0.00000  Uiso   1.00
C848   C     0.25000   0.50000   0.52059   0.00000  Uiso   1.00
C849   C     0.25004   0.50000   0.97940   0.00000  Uiso   1.00
C850   C     0.25005   0.50001   0.02052   0.00000  Uiso   1.00
C851   C    -0.00000   0.75000   0.97952   0.00000  Uiso   1.00
C852   C    -0.00000   0.75000   0.02065   0.00000  Uiso   1.00
C853   C     0.00300   0.67281   0.47964   0.00000  Uiso   1.00
C854   C     0.16998   0.58002   0.25000   0.00000  Uiso   1.00
C855   C     0.49483   0.82706   0.52037   0.00000  Uiso   1.00
C856   C     0.32693   0.50678   0.47965   0.00000  Uiso   1.00
C857   C     0.17329   0.99106   0.52041   0.00000  Uiso   1.00
C858   C     0.49698   0.82718   0.47963   0.00000  Uiso   1.00
C859   C     0.00515   0.67293   0.52038   0.00000  Uiso   1.00
C860   C     0.17307   0.99322   0.47967   0.00000  Uiso   1.00
C861   C     0.32671   0.50894   0.52039   0.00000  Uiso   1.00
C862   C     0.24692   0.92281   0.97962   0.00000  Uiso   1.00
C863   C     0.25148   0.57723   0.02035   0.00000  Uiso   1.00
C864   C     0.07546   0.76643   0.97972   0.00000  Uiso   1.00
H865   H     0.45335   0.84074   0.40883   0.00000  Uiso   1.00
H866   H     0.12098   0.50164   0.37942   0.00000  Uiso   1.00
H867   H     0.18057   0.86849   0.98548   0.00000  Uiso   1.00
H868   H     0.26453   0.64045   0.03173   0.00000  Uiso   1.00
H869   H     0.19925   0.65742   0.06165   0.00000  Uiso   1.00
H870   H     0.18332   0.60306   0.05877   0.00000  Uiso   1.00
H871   H     0.18752   0.63442   0.01502   0.00000  Uiso   1.00
H872   H     0.13496   0.79134   0.96825   0.00000  Uiso   1.00
H873   H     0.16450   0.73018   0.93930   0.00000  Uiso   1.00
H874   H     0.11423   0.70406   0.94209   0.00000  Uiso   1.00
H875   H     0.14379   0.71480   0.98595   0.00000  Uiso   1.00
H876   H     0.36064   0.72750   0.03192   0.00000  Uiso   1.00
H877   H     0.15709   0.98947   0.34081   0.00000  Uiso   1.00
H878   H     0.36073   0.65957   0.06045   0.00000  Uiso   1.00
H879   H     0.41745   0.65852   0.05879   0.00000  Uiso   1.00
H880   H     0.38735   0.65492   0.01436   0.00000  Uiso   1.00
H881   H     0.24359   0.64098   0.96817   0.00000  Uiso   1.00
H882   H     0.30975   0.65454   0.93836   0.00000  Uiso   1.00
H883   H     0.32285   0.59944   0.94143   0.00000  Uiso   1.00
H884   H     0.32001   0.63106   0.98507   0.00000  Uiso   1.00
H885   H     0.23624   0.85948   0.03178   0.00000  Uiso   1.00
H886   H     0.30166   0.84308   0.06171   0.00000  Uiso   1.00
H887   H     0.31714   0.89756   0.05875   0.00000  Uiso   1.00
H888   H     0.16690   0.53411   0.37209   0.00000  Uiso   1.00
H889   H     0.31315   0.86612   0.01503   0.00000  Uiso   1.00
H890   H     0.36507   0.70857   0.96828   0.00000  Uiso   1.00
H891   H     0.33545   0.76969   0.93933   0.00000  Uiso   1.00
H892   H     0.38569   0.79586   0.94209   0.00000  Uiso   1.00
H893   H     0.35615   0.78511   0.98597   0.00000  Uiso   1.00
H894   H     0.13936   0.77240   0.03189   0.00000  Uiso   1.00
H895   H     0.13934   0.84036   0.06038   0.00000  Uiso   1.00
H896   H     0.08263   0.84150   0.05866   0.00000  Uiso   1.00
H897   H     0.11280   0.84500   0.01426   0.00000  Uiso   1.00
H898   H     0.34659   0.96755   0.59096   0.00000  Uiso   1.00
H899   H     0.37679   0.52637   0.62051   0.00000  Uiso   1.00
H900   H     0.34300   0.50863   0.65909   0.00000  Uiso   1.00
H901   H     0.32585   0.55034   0.62705   0.00000  Uiso   1.00
H902   H     0.04667   0.65927   0.40880   0.00000  Uiso   1.00
H903   H     0.49226   0.62110   0.37937   0.00000  Uiso   1.00
H904   H     0.00585   0.65674   0.34079   0.00000  Uiso   1.00
H905   H     0.00770   0.87889   0.37935   0.00000  Uiso   1.00
H906   H     0.46182   0.66839   0.37225   0.00000  Uiso   1.00
H907   H     0.03709   0.84500   0.59098   0.00000  Uiso   1.00
H908   H     0.47963   0.87775   0.62059   0.00000  Uiso   1.00
H909   H     0.49609   0.84328   0.65913   0.00000  Uiso   1.00
H910   H     0.45353   0.82785   0.62731   0.00000  Uiso   1.00
H911   H     0.33841   0.55106   0.40889   0.00000  Uiso   1.00
H912   H     0.37903   0.99849   0.37940   0.00000  Uiso   1.00
H913   H     0.34293   0.51070   0.34079   0.00000  Uiso   1.00
H914   H     0.33314   0.96600   0.37202   0.00000  Uiso   1.00
H915   H     0.15342   0.53246   0.59097   0.00000  Uiso   1.00
H916   H     0.49413   0.84323   0.34078   0.00000  Uiso   1.00
H917   H     0.12321   0.97364   0.62053   0.00000  Uiso   1.00
H918   H     0.15700   0.99137   0.65910   0.00000  Uiso   1.00
H919   H     0.17414   0.94966   0.62706   0.00000  Uiso   1.00
H920   H     0.21022   0.59389   0.90899   0.00000  Uiso   1.00
H921   H     0.26668   0.62819   0.87907   0.00000  Uiso   1.00
H922   H     0.25091   0.59319   0.84070   0.00000  Uiso   1.00
H923   H     0.29407   0.57902   0.87232   0.00000  Uiso   1.00
H924   H     0.20464   0.90853   0.09065   0.00000  Uiso   1.00
H925   H     0.25894   0.87124   0.12087   0.00000  Uiso   1.00
H926   H     0.24449   0.90680   0.15925   0.00000  Uiso   1.00
H927   H     0.03817   0.83161   0.37225   0.00000  Uiso   1.00
H928   H     0.28875   0.91892   0.12818   0.00000  Uiso   1.00
H929   H     0.41860   0.68820   0.90900   0.00000  Uiso   1.00
H930   H     0.37183   0.73566   0.87970   0.00000  Uiso   1.00
H931   H     0.40882   0.72739   0.84095   0.00000  Uiso   1.00
H932   H     0.41361   0.77319   0.87178   0.00000  Uiso   1.00
H933   H     0.09963   0.72938   0.09072   0.00000  Uiso   1.00
H934   H     0.12346   0.79088   0.12009   0.00000  Uiso   1.00
H935   H     0.09154   0.77032   0.15881   0.00000  Uiso   1.00
H936   H     0.07033   0.80961   0.12622   0.00000  Uiso   1.00
H937   H     0.28973   0.90608   0.90883   0.00000  Uiso   1.00
H938   H     0.46288   0.65500   0.59101   0.00000  Uiso   1.00
H939   H     0.23305   0.87182   0.87919   0.00000  Uiso   1.00
H940   H     0.24869   0.90680   0.84074   0.00000  Uiso   1.00
H941   H     0.20569   0.92103   0.87254   0.00000  Uiso   1.00
H942   H     0.29559   0.59137   0.09073   0.00000  Uiso   1.00
H943   H     0.24133   0.62880   0.12089   0.00000  Uiso   1.00
H944   H     0.25560   0.59315   0.15926   0.00000  Uiso   1.00
H945   H     0.21137   0.58120   0.12812   0.00000  Uiso   1.00
H946   H     0.08143   0.81175   0.90897   0.00000  Uiso   1.00
H947   H     0.12818   0.76427   0.87968   0.00000  Uiso   1.00
H948   H     0.09119   0.77251   0.84093   0.00000  Uiso   1.00
H949   H     0.02033   0.62224   0.62064   0.00000  Uiso   1.00
H950   H     0.08639   0.72673   0.87181   0.00000  Uiso   1.00
H951   H     0.40036   0.77063   0.09071   0.00000  Uiso   1.00
H952   H     0.37654   0.70916   0.12017   0.00000  Uiso   1.00
H953   H     0.40846   0.72978   0.15885   0.00000  Uiso   1.00
H954   H     0.42968   0.69044   0.12631   0.00000  Uiso   1.00
H955   H     0.01744   0.60996   0.46810   0.00000  Uiso   1.00
H956   H     0.45212   0.59116   0.43925   0.00000  Uiso   1.00
H957   H     0.43490   0.64513   0.44208   0.00000  Uiso   1.00
H958   H     0.44059   0.61417   0.48591   0.00000  Uiso   1.00
H959   H     0.00240   0.89113   0.53187   0.00000  Uiso   1.00
H960   H     0.00387   0.65673   0.65916   0.00000  Uiso   1.00
H961   H     0.43550   0.90270   0.56083   0.00000  Uiso   1.00
H962   H     0.42424   0.84717   0.55808   0.00000  Uiso   1.00
H963   H     0.42640   0.87851   0.51421   0.00000  Uiso   1.00
H964   H     0.38902   0.52424   0.46809   0.00000  Uiso   1.00
H965   H     0.41086   0.95987   0.43922   0.00000  Uiso   1.00
H966   H     0.35779   0.94007   0.44211   0.00000  Uiso   1.00
H967   H     0.38851   0.94723   0.48592   0.00000  Uiso   1.00
H968   H     0.10895   0.99541   0.53189   0.00000  Uiso   1.00
H969   H     0.10053   0.92799   0.56062   0.00000  Uiso   1.00
H970   H     0.15659   0.91959   0.55834   0.00000  Uiso   1.00
H971   H     0.04644   0.67213   0.62733   0.00000  Uiso   1.00
H972   H     0.12567   0.92009   0.51422   0.00000  Uiso   1.00
H973   H     0.48252   0.89002   0.46808   0.00000  Uiso   1.00
H974   H     0.04786   0.90887   0.43929   0.00000  Uiso   1.00
H975   H     0.06510   0.85491   0.44211   0.00000  Uiso   1.00
H976   H     0.05936   0.88584   0.48595   0.00000  Uiso   1.00
H977   H     0.49752   0.60887   0.53189   0.00000  Uiso   1.00
H978   H     0.06440   0.59722   0.56083   0.00000  Uiso   1.00
H979   H     0.07572   0.65274   0.55811   0.00000  Uiso   1.00
H980   H     0.07354   0.62144   0.51422   0.00000  Uiso   1.00
H981   H     0.11098   0.97580   0.46813   0.00000  Uiso   1.00
H982   H     0.16154   0.94901   0.40888   0.00000  Uiso   1.00
H983   H     0.08915   0.54020   0.43930   0.00000  Uiso   1.00
H984   H     0.14223   0.55997   0.44217   0.00000  Uiso   1.00
H985   H     0.11153   0.55280   0.48599   0.00000  Uiso   1.00
H986   H     0.39106   0.50462   0.53185   0.00000  Uiso   1.00
H987   H     0.39944   0.57203   0.56058   0.00000  Uiso   1.00
H988   H     0.34338   0.58040   0.55834   0.00000  Uiso   1.00
H989   H     0.37429   0.57993   0.51419   0.00000  Uiso   1.00
H990   H     0.25694   0.85910   0.96816   0.00000  Uiso   1.00
H991   H     0.19068   0.84512   0.93869   0.00000  Uiso   1.00
H992   H     0.17723   0.90013   0.94187   0.00000  Uiso   1.00
N993   N     0.47711   0.82310   0.39654   0.00000  Uiso   1.00
N994   N     0.22787   0.92660   0.10329   0.00000  Uiso   1.00
N995   N     0.43193   0.71463   0.89670   0.00000  Uiso   1.00
N996   N     0.07657   0.74763   0.10338   0.00000  Uiso   1.00
N997   N     0.26732   0.92538   0.89652   0.00000  Uiso   1.00
N998   N     0.27227   0.57337   0.10330   0.00000  Uiso   1.00
N999   N     0.06809   0.78532   0.89668   0.00000  Uiso   1.00
N1000  N     0.42343   0.75239   0.10339   0.00000  Uiso   1.00
N1001  N     0.49741   0.63382   0.45980   0.00000  Uiso   1.00
N1002  N     0.48509   0.86522   0.54021   0.00000  Uiso   1.00
N1003  N     0.36614   0.50306   0.45982   0.00000  Uiso   1.00
N1004  N     0.48469   0.67493   0.60343   0.00000  Uiso   1.00
N1005  N     0.13567   0.97943   0.54024   0.00000  Uiso   1.00
N1006  N     0.00258   0.86617   0.45980   0.00000  Uiso   1.00
N1007  N     0.01485   0.63476   0.54022   0.00000  Uiso   1.00
N1008  N     0.13386   0.99697   0.45985   0.00000  Uiso   1.00
N1009  N     0.36433   0.52058   0.54022   0.00000  Uiso   1.00
N1010  N     0.23871   0.88432   0.95974   0.00000  Uiso   1.00
N1011  N     0.24524   0.61606   0.04027   0.00000  Uiso   1.00
N1012  N     0.11483   0.76756   0.95990   0.00000  Uiso   1.00
N1013  N     0.38919   0.71510   0.04030   0.00000  Uiso   1.00
N1014  N     0.26160   0.61563   0.95966   0.00000  Uiso   1.00
N1015  N     0.17806   0.97357   0.39658   0.00000  Uiso   1.00
N1016  N     0.25532   0.88403   0.04031   0.00000  Uiso   1.00
N1017  N     0.38517   0.73237   0.95993   0.00000  Uiso   1.00
N1018  N     0.11083   0.78485   0.04027   0.00000  Uiso   1.00
N1019  N     0.32570   0.98838   0.60343   0.00000  Uiso   1.00
N1020  N     0.02288   0.67688   0.39654   0.00000  Uiso   1.00
N1021  N     0.01530   0.82507   0.60342   0.00000  Uiso   1.00
N1022  N     0.32191   0.52650   0.39658   0.00000  Uiso   1.00
N1023  N     0.17430   0.51162   0.60345   0.00000  Uiso   1.00
N1024  N     0.23256   0.57459   0.89656   0.00000  Uiso   1.00
O1025  O     0.25000   0.50000   0.25000   0.00000  Uiso   1.00
O1026  O     0.25000   0.96539   0.66251   0.00000  Uiso   1.00
O1027  O     0.46538   0.75000   0.33749   0.00000  Uiso   1.00
O1028  O     0.03461   0.75000   0.66251   0.00000  Uiso   1.00
O1029  O     0.00000   0.71538   0.83749   0.00000  Uiso   1.00
O1030  O    -0.00000   0.78462   0.16251   0.00000  Uiso   1.00
O1031  O     0.28461   0.50000   0.83749   0.00000  Uiso   1.00
O1032  O     0.21538   0.50000   0.16251   0.00000  Uiso   1.00
O1033  O     0.00000   0.78461   0.83749   0.00000  Uiso   1.00
O1034  O     0.00000   0.71538   0.16251   0.00000  Uiso   1.00
O1035  O     0.21538   0.50000   0.83749   0.00000  Uiso   1.00
O1036  O     0.25000   0.50000   0.75000   0.00000  Uiso   1.00
O1037  O     0.28461   0.50000   0.16251   0.00000  Uiso   1.00
O1038  O     0.20126   0.58332   0.27298   0.00000  Uiso   1.00
O1039  O     0.29873   0.91668   0.72702   0.00000  Uiso   1.00
O1040  O     0.41668   0.70127   0.27298   0.00000  Uiso   1.00
O1041  O     0.08332   0.79873   0.72702   0.00000  Uiso   1.00
O1042  O     0.29873   0.91668   0.27298   0.00000  Uiso   1.00
O1043  O     0.20126   0.58332   0.72702   0.00000  Uiso   1.00
O1044  O     0.08332   0.79873   0.27298   0.00000  Uiso   1.00
O1045  O     0.41668   0.70127   0.72702   0.00000  Uiso   1.00
O1046  O     0.20126   0.91668   0.72702   0.00000  Uiso   1.00
O1047  O     0.00000   0.75000   0.25000   0.00000  Uiso   1.00
O1048  O     0.29873   0.58332   0.27298   0.00000  Uiso   1.00
O1049  O     0.41668   0.79874   0.72702   0.00000  Uiso   1.00
O1050  O     0.08332   0.70127   0.27298   0.00000  Uiso   1.00
O1051  O     0.29873   0.58332   0.72702   0.00000  Uiso   1.00
O1052  O     0.20126   0.91668   0.27298   0.00000  Uiso   1.00
O1053  O     0.08332   0.70127   0.72702   0.00000  Uiso   1.00
O1054  O     0.41668   0.79874   0.27298   0.00000  Uiso   1.00
O1055  O     0.45126   0.83332   0.77298   0.00000  Uiso   1.00
O1056  O     0.04873   0.66668   0.22702   0.00000  Uiso   1.00
O1057  O     0.16668   0.95127   0.77298   0.00000  Uiso   1.00
O1058  O     0.00000   0.75000   0.75000   0.00000  Uiso   1.00
O1059  O     0.33332   0.54874   0.22702   0.00000  Uiso   1.00
O1060  O     0.04873   0.66668   0.77298   0.00000  Uiso   1.00
O1061  O     0.45126   0.83332   0.22702   0.00000  Uiso   1.00
O1062  O     0.33332   0.54874   0.77298   0.00000  Uiso   1.00
O1063  O     0.16668   0.95127   0.22702   0.00000  Uiso   1.00
O1064  O     0.45126   0.66668   0.22702   0.00000  Uiso   1.00
O1065  O     0.04873   0.83332   0.77298   0.00000  Uiso   1.00
O1066  O     0.16668   0.54874   0.22702   0.00000  Uiso   1.00
O1067  O     0.33332   0.95127   0.77298   0.00000  Uiso   1.00
O1068  O     0.04873   0.83332   0.22702   0.00000  Uiso   1.00
O1069  O     0.25000   0.96539   0.33749   0.00000  Uiso   1.00
O1070  O     0.45126   0.66668   0.77298   0.00000  Uiso   1.00
O1071  O     0.33332   0.95127   0.22702   0.00000  Uiso   1.00
O1072  O     0.16668   0.54874   0.77298   0.00000  Uiso   1.00
O1073  O     0.25000   0.53462   0.66251   0.00000  Uiso   1.00
O1074  O     0.03461   0.75000   0.33749   0.00000  Uiso   1.00
O1075  O     0.46538   0.75000   0.66251   0.00000  Uiso   1.00
O1076  O     0.25000   0.53462   0.33749   0.00000  Uiso   1.00
Zn1077 Zn    0.20052   0.50000   0.21730   0.00000  Uiso   1.00
Zn1078 Zn    0.04947   0.75000   0.28270   0.00000  Uiso   1.00
Zn1079 Zn    0.25000   0.95053   0.71730   0.00000  Uiso   1.00
Zn1080 Zn    0.25000   0.54948   0.28270   0.00000  Uiso   1.00
Zn1081 Zn    0.04947   0.75000   0.71730   0.00000  Uiso   1.00
Zn1082 Zn    0.45052   0.75000   0.28270   0.00000  Uiso   1.00
Zn1083 Zn    0.25000   0.54948   0.71730   0.00000  Uiso   1.00
Zn1084 Zn    0.25000   0.95053   0.28270   0.00000  Uiso   1.00
Zn1085 Zn    0.29947   0.50000   0.78270   0.00000  Uiso   1.00
Zn1086 Zn    0.00000   0.70052   0.21730   0.00000  Uiso   1.00
Zn1087 Zn    0.00000   0.79947   0.78270   0.00000  Uiso   1.00
Zn1088 Zn    0.29947   0.50000   0.21730   0.00000  Uiso   1.00
Zn1089 Zn    0.20052   0.50000   0.78270   0.00000  Uiso   1.00
Zn1090 Zn    0.00000   0.79947   0.21730   0.00000  Uiso   1.00
Zn1091 Zn    0.00000   0.70052   0.78270   0.00000  Uiso   1.00
Zn1092 Zn    0.45052   0.75000   0.71730   0.00000  Uiso   1.00
C1093  C     0.75000   0.50000   0.35581   0.00000  Uiso   1.00
C1094  C     0.83002   0.91998   0.75000   0.00000  Uiso   1.00
C1095  C     0.92504   0.73141   0.02046   0.00000  Uiso   1.00
C1096  C     0.75326   0.57719   0.97959   0.00000  Uiso   1.00
C1097  C     0.74877   0.92280   0.02038   0.00000  Uiso   1.00
C1098  C     0.92454   0.73354   0.97974   0.00000  Uiso   1.00
C1099  C     0.57497   0.76857   0.02044   0.00000  Uiso   1.00
C1100  C     0.50593   0.84518   0.37103   0.00000  Uiso   1.00
C1101  C     0.51558   0.65570   0.62884   0.00000  Uiso   1.00
C1102  C     0.65471   0.50131   0.37102   0.00000  Uiso   1.00
C1103  C     0.84356   0.52021   0.62871   0.00000  Uiso   1.00
C1104  C     0.99404   0.65480   0.37104   0.00000  Uiso   1.00
C1105  C     0.91997   0.66998   0.24999   0.00000  Uiso   1.00
C1106  C     0.98439   0.84430   0.62881   0.00000  Uiso   1.00
C1107  C     0.84530   0.99881   0.37099   0.00000  Uiso   1.00
C1108  C     0.65644   0.97979   0.62872   0.00000  Uiso   1.00
C1109  C     0.76277   0.59460   0.87096   0.00000  Uiso   1.00
C1110  C     0.75667   0.90495   0.12912   0.00000  Uiso   1.00
C1111  C     0.90531   0.73919   0.87108   0.00000  Uiso   1.00
C1112  C     0.59100   0.78147   0.12830   0.00000  Uiso   1.00
C1113  C     0.73696   0.90540   0.87105   0.00000  Uiso   1.00
C1114  C     0.74349   0.59508   0.12911   0.00000  Uiso   1.00
C1115  C     0.59469   0.76074   0.87107   0.00000  Uiso   1.00
C1116  C     0.58003   0.83002   0.75001   0.00000  Uiso   1.00
C1117  C     0.90900   0.71858   0.12836   0.00000  Uiso   1.00
C1118  C     0.95396   0.62048   0.45672   0.00000  Uiso   1.00
C1119  C     0.94047   0.87374   0.54338   0.00000  Uiso   1.00
C1120  C     0.88152   0.96030   0.45673   0.00000  Uiso   1.00
C1121  C     0.62938   0.93442   0.54341   0.00000  Uiso   1.00
C1122  C     0.54602   0.87954   0.45674   0.00000  Uiso   1.00
C1123  C     0.55946   0.62620   0.54339   0.00000  Uiso   1.00
C1124  C     0.61850   0.53974   0.45679   0.00000  Uiso   1.00
C1125  C     0.87060   0.56559   0.54339   0.00000  Uiso   1.00
C1126  C     0.69446   0.87408   0.95639   0.00000  Uiso   1.00
C1127  C     0.83002   0.91998   0.25000   0.00000  Uiso   1.00
C1128  C     0.70153   0.62827   0.04400   0.00000  Uiso   1.00
C1129  C     0.63531   0.72700   0.95677   0.00000  Uiso   1.00
C1130  C     0.88873   0.66967   0.04354   0.00000  Uiso   1.00
C1131  C     0.80589   0.62559   0.95606   0.00000  Uiso   1.00
C1132  C     0.79913   0.87218   0.04402   0.00000  Uiso   1.00
C1133  C     0.86464   0.77291   0.95679   0.00000  Uiso   1.00
C1134  C     0.61135   0.83029   0.04345   0.00000  Uiso   1.00
C1135  C     0.66998   0.58002   0.75000   0.00000  Uiso   1.00
C1136  C     0.58002   0.83002   0.24999   0.00000  Uiso   1.00
C1137  C     0.91998   0.66998   0.75001   0.00000  Uiso   1.00
C1138  C     0.66998   0.91998   0.75000   0.00000  Uiso   1.00
C1139  C     0.83002   0.58002   0.25000   0.00000  Uiso   1.00
C1140  C     0.91998   0.83003   0.74999   0.00000  Uiso   1.00
C1141  C     0.75000   0.50000   0.64420   0.00000  Uiso   1.00
C1142  C     0.58002   0.66997   0.25001   0.00000  Uiso   1.00
C1143  C     0.83002   0.58002   0.75000   0.00000  Uiso   1.00
C1144  C     0.66998   0.91998   0.25000   0.00000  Uiso   1.00
C1145  C     0.58002   0.66997   0.74999   0.00000  Uiso   1.00
C1146  C     0.91998   0.83003   0.25001   0.00000  Uiso   1.00
C1147  C     0.63834   0.88833   0.24999   0.00000  Uiso   1.00
C1148  C     0.86166   0.61167   0.75000   0.00000  Uiso   1.00
C1149  C     0.61166   0.63832   0.25001   0.00000  Uiso   1.00
C1150  C     0.88834   0.86168   0.74999   0.00000  Uiso   1.00
C1151  C     0.86166   0.61167   0.24999   0.00000  Uiso   1.00
C1152  C     0.50000   0.75000   0.35580   0.00000  Uiso   1.00
C1153  C     0.63834   0.88833   0.75001   0.00000  Uiso   1.00
C1154  C     0.88834   0.86168   0.25001   0.00000  Uiso   1.00
C1155  C     0.61166   0.63833   0.74999   0.00000  Uiso   1.00
C1156  C     0.63833   0.61167   0.74999   0.00000  Uiso   1.00
C1157  C     0.86167   0.88834   0.25001   0.00000  Uiso   1.00
C1158  C     0.61167   0.86166   0.75001   0.00000  Uiso   1.00
C1159  C     0.88833   0.63834   0.24999   0.00000  Uiso   1.00
C1160  C     0.86167   0.88833   0.74999   0.00000  Uiso   1.00
C1161  C     0.63833   0.61167   0.25001   0.00000  Uiso   1.00
C1162  C     0.88833   0.63834   0.75001   0.00000  Uiso   1.00
C1163  C     0.50000   0.75000   0.64420   0.00000  Uiso   1.00
C1164  C     0.61167   0.86166   0.24999   0.00000  Uiso   1.00
C1165  C     0.99265   0.78776   0.41790   0.00000  Uiso   1.00
C1166  C     0.99670   0.71166   0.58212   0.00000  Uiso   1.00
C1167  C     0.71265   0.99076   0.41793   0.00000  Uiso   1.00
C1168  C     0.78845   0.99865   0.58213   0.00000  Uiso   1.00
C1169  C     0.50735   0.71223   0.41790   0.00000  Uiso   1.00
C1170  C     0.50330   0.78833   0.58211   0.00000  Uiso   1.00
C1171  C     0.78735   0.50925   0.41792   0.00000  Uiso   1.00
C1172  C     0.71155   0.50135   0.58214   0.00000  Uiso   1.00
C1173  C     0.74562   0.53822   0.91787   0.00000  Uiso   1.00
C1174  C     0.50000   0.75000   0.85583   0.00000  Uiso   1.00
C1175  C     0.74320   0.96214   0.08206   0.00000  Uiso   1.00
C1176  C     0.96414   0.73601   0.91800   0.00000  Uiso   1.00
C1177  C     0.53832   0.75356   0.08217   0.00000  Uiso   1.00
C1178  C     0.75438   0.96177   0.91786   0.00000  Uiso   1.00
C1179  C     0.75690   0.53787   0.08205   0.00000  Uiso   1.00
C1180  C     0.53587   0.76397   0.91799   0.00000  Uiso   1.00
C1181  C     0.96168   0.74645   0.08217   0.00000  Uiso   1.00
C1182  C     0.50000   0.75000   0.39804   0.00000  Uiso   1.00
C1183  C     0.50000   0.75000   0.60197   0.00000  Uiso   1.00
C1184  C     0.75000   0.50000   0.39805   0.00000  Uiso   1.00
C1185  C     0.50000   0.75000   0.14421   0.00000  Uiso   1.00
C1186  C     0.75000   0.50000   0.60199   0.00000  Uiso   1.00
C1187  C     0.74999   0.50000   0.89801   0.00000  Uiso   1.00
C1188  C     0.75002   0.50001   0.10194   0.00000  Uiso   1.00
C1189  C     0.50000   0.75000   0.89810   0.00000  Uiso   1.00
C1190  C     0.50000   0.75001   0.10202   0.00000  Uiso   1.00
C1191  C     0.50329   0.71127   0.45885   0.00000  Uiso   1.00
C1192  C     0.99917   0.78885   0.54116   0.00000  Uiso   1.00
C1193  C     0.78851   0.50520   0.45887   0.00000  Uiso   1.00
C1194  C     0.71125   0.99724   0.54119   0.00000  Uiso   1.00
C1195  C     0.99670   0.78872   0.45885   0.00000  Uiso   1.00
C1196  C     0.75000   0.50000   0.85579   0.00000  Uiso   1.00
C1197  C     0.50082   0.71114   0.54116   0.00000  Uiso   1.00
C1198  C     0.71149   0.99479   0.45888   0.00000  Uiso   1.00
C1199  C     0.78875   0.50276   0.54118   0.00000  Uiso   1.00
C1200  C     0.75025   0.96113   0.95882   0.00000  Uiso   1.00
C1201  C     0.75266   0.53877   0.04111   0.00000  Uiso   1.00
C1202  C     0.53753   0.76006   0.95893   0.00000  Uiso   1.00
C1203  C     0.96191   0.74233   0.04123   0.00000  Uiso   1.00
C1204  C     0.74983   0.53886   0.95881   0.00000  Uiso   1.00
C1205  C     0.74748   0.96126   0.04112   0.00000  Uiso   1.00
C1206  C     0.96247   0.73993   0.95894   0.00000  Uiso   1.00
C1207  C     0.75000   0.50000   0.14419   0.00000  Uiso   1.00
C1208  C     0.53809   0.75768   0.04122   0.00000  Uiso   1.00
C1209  C     0.50000   0.75000   0.47944   0.00000  Uiso   1.00
C1210  C     0.50000   0.75000   0.52057   0.00000  Uiso   1.00
C1211  C     0.75000   0.99999   0.47946   0.00000  Uiso   1.00
C1212  C     0.75000   0.50000   0.52059   0.00000  Uiso   1.00
C1213  C     0.75004   0.50000   0.97940   0.00000  Uiso   1.00
C1214  C     0.75005   0.50001   0.02052   0.00000  Uiso   1.00
C1215  C     0.50000   0.75000   0.97952   0.00000  Uiso   1.00
C1216  C     0.50000   0.75000   0.02065   0.00000  Uiso   1.00
C1217  C     0.50300   0.67281   0.47964   0.00000  Uiso   1.00
C1218  C     0.66998   0.58002   0.25000   0.00000  Uiso   1.00
C1219  C     0.99483   0.82706   0.52037   0.00000  Uiso   1.00
C1220  C     0.82693   0.50678   0.47965   0.00000  Uiso   1.00
C1221  C     0.67329   0.99106   0.52041   0.00000  Uiso   1.00
C1222  C     0.99698   0.82718   0.47963   0.00000  Uiso   1.00
C1223  C     0.50515   0.67293   0.52038   0.00000  Uiso   1.00
C1224  C     0.67307   0.99322   0.47967   0.00000  Uiso   1.00
C1225  C     0.82671   0.50894   0.52039   0.00000  Uiso   1.00
C1226  C     0.74692   0.92281   0.97962   0.00000  Uiso   1.00
C1227  C     0.75148   0.57723   0.02035   0.00000  Uiso   1.00
C1228  C     0.57546   0.76643   0.97972   0.00000  Uiso   1.00
H1229  H     0.95335   0.84074   0.40883   0.00000  Uiso   1.00
H1230  H     0.62098   0.50164   0.37942   0.00000  Uiso   1.00
H1231  H     0.68057   0.86849   0.98548   0.00000  Uiso   1.00
H1232  H     0.76453   0.64045   0.03173   0.00000  Uiso   1.00
H1233  H     0.69925   0.65742   0.06165   0.00000  Uiso   1.00
H1234  H     0.68332   0.60306   0.05877   0.00000  Uiso   1.00
H1235  H     0.68752   0.63442   0.01502   0.00000  Uiso   1.00
H1236  H     0.63496   0.79134   0.96825   0.00000  Uiso   1.00
H1237  H     0.66450   0.73018   0.93930   0.00000  Uiso   1.00
H1238  H     0.61423   0.70406   0.94209   0.00000  Uiso   1.00
H1239  H     0.64379   0.71480   0.98595   0.00000  Uiso   1.00
H1240  H     0.86064   0.72750   0.03192   0.00000  Uiso   1.00
H1241  H     0.65709   0.98947   0.34081   0.00000  Uiso   1.00
H1242  H     0.86073   0.65957   0.06045   0.00000  Uiso   1.00
H1243  H     0.91745   0.65852   0.05879   0.00000  Uiso   1.00
H1244  H     0.88735   0.65492   0.01436   0.00000  Uiso   1.00
H1245  H     0.74359   0.64098   0.96817   0.00000  Uiso   1.00
H1246  H     0.80975   0.65454   0.93836   0.00000  Uiso   1.00
H1247  H     0.82285   0.59944   0.94143   0.00000  Uiso   1.00
H1248  H     0.82001   0.63106   0.98507   0.00000  Uiso   1.00
H1249  H     0.73624   0.85948   0.03178   0.00000  Uiso   1.00
H1250  H     0.80166   0.84308   0.06171   0.00000  Uiso   1.00
H1251  H     0.81714   0.89756   0.05875   0.00000  Uiso   1.00
H1252  H     0.66690   0.53411   0.37209   0.00000  Uiso   1.00
H1253  H     0.81315   0.86612   0.01503   0.00000  Uiso   1.00
H1254  H     0.86507   0.70857   0.96828   0.00000  Uiso   1.00
H1255  H     0.83545   0.76969   0.93933   0.00000  Uiso   1.00
H1256  H     0.88569   0.79586   0.94209   0.00000  Uiso   1.00
H1257  H     0.85615   0.78511   0.98597   0.00000  Uiso   1.00
H1258  H     0.63936   0.77240   0.03189   0.00000  Uiso   1.00
H1259  H     0.63934   0.84036   0.06038   0.00000  Uiso   1.00
H1260  H     0.58263   0.84150   0.05866   0.00000  Uiso   1.00
H1261  H     0.61280   0.84500   0.01426   0.00000  Uiso   1.00
H1262  H     0.84659   0.96755   0.59096   0.00000  Uiso   1.00
H1263  H     0.87679   0.52637   0.62051   0.00000  Uiso   1.00
H1264  H     0.84300   0.50863   0.65909   0.00000  Uiso   1.00
H1265  H     0.82585   0.55034   0.62705   0.00000  Uiso   1.00
H1266  H     0.54667   0.65927   0.40880   0.00000  Uiso   1.00
H1267  H     0.99226   0.62110   0.37937   0.00000  Uiso   1.00
H1268  H     0.50585   0.65674   0.34079   0.00000  Uiso   1.00
H1269  H     0.50770   0.87889   0.37935   0.00000  Uiso   1.00
H1270  H     0.96182   0.66839   0.37225   0.00000  Uiso   1.00
H1271  H     0.53709   0.84500   0.59098   0.00000  Uiso   1.00
H1272  H     0.97963   0.87775   0.62059   0.00000  Uiso   1.00
H1273  H     0.99609   0.84328   0.65913   0.00000  Uiso   1.00
H1274  H     0.95353   0.82785   0.62731   0.00000  Uiso   1.00
H1275  H     0.83841   0.55106   0.40889   0.00000  Uiso   1.00
H1276  H     0.87903   0.99849   0.37940   0.00000  Uiso   1.00
H1277  H     0.84293   0.51070   0.34079   0.00000  Uiso   1.00
H1278  H     0.83314   0.96600   0.37202   0.00000  Uiso   1.00
H1279  H     0.65342   0.53246   0.59097   0.00000  Uiso   1.00
H1280  H     0.99413   0.84323   0.34078   0.00000  Uiso   1.00
H1281  H     0.62321   0.97364   0.62053   0.00000  Uiso   1.00
H1282  H     0.65700   0.99137   0.65910   0.00000  Uiso   1.00
H1283  H     0.67414   0.94966   0.62706   0.00000  Uiso   1.00
H1284  H     0.71022   0.59389   0.90899   0.00000  Uiso   1.00
H1285  H     0.76668   0.62819   0.87907   0.00000  Uiso   1.00
H1286  H     0.75091   0.59319   0.84070   0.00000  Uiso   1.00
H1287  H     0.79407   0.57902   0.87232   0.00000  Uiso   1.00
H1288  H     0.70464   0.90853   0.09065   0.00000  Uiso   1.00
H1289  H     0.75894   0.87124   0.12087   0.00000  Uiso   1.00
H1290  H     0.74449   0.90680   0.15925   0.00000  Uiso   1.00
H1291  H     0.53817   0.83161   0.37225   0.00000  Uiso   1.00
H1292  H     0.78875   0.91892   0.12818   0.00000  Uiso   1.00
H1293  H     0.91860   0.68820   0.90900   0.00000  Uiso   1.00
H1294  H     0.87183   0.73566   0.87970   0.00000  Uiso   1.00
H1295  H     0.90882   0.72739   0.84095   0.00000  Uiso   1.00
H1296  H     0.91361   0.77319   0.87178   0.00000  Uiso   1.00
H1297  H     0.59963   0.72938   0.09072   0.00000  Uiso   1.00
H1298  H     0.62346   0.79088   0.12009   0.00000  Uiso   1.00
H1299  H     0.59154   0.77032   0.15881   0.00000  Uiso   1.00
H1300  H     0.57033   0.80961   0.12622   0.00000  Uiso   1.00
H1301  H     0.78973   0.90608   0.90883   0.00000  Uiso   1.00
H1302  H     0.96288   0.65500   0.59101   0.00000  Uiso   1.00
H1303  H     0.73305   0.87182   0.87919   0.00000  Uiso   1.00
H1304  H     0.74869   0.90680   0.84074   0.00000  Uiso   1.00
H1305  H     0.70569   0.92103   0.87254   0.00000  Uiso   1.00
H1306  H     0.79559   0.59137   0.09073   0.00000  Uiso   1.00
H1307  H     0.74133   0.62880   0.12089   0.00000  Uiso   1.00
H1308  H     0.75560   0.59315   0.15926   0.00000  Uiso   1.00
H1309  H     0.71137   0.58120   0.12812   0.00000  Uiso   1.00
H1310  H     0.58143   0.81175   0.90897   0.00000  Uiso   1.00
H1311  H     0.62818   0.76427   0.87968   0.00000  Uiso   1.00
H1312  H     0.59119   0.77251   0.84093   0.00000  Uiso   1.00
H1313  H     0.52033   0.62224   0.62064   0.00000  Uiso   1.00
H1314  H     0.58639   0.72673   0.87181   0.00000  Uiso   1.00
H1315  H     0.90036   0.77063   0.09071   0.00000  Uiso   1.00
H1316  H     0.87654   0.70916   0.12017   0.00000  Uiso   1.00
H1317  H     0.90846   0.72978   0.15885   0.00000  Uiso   1.00
H1318  H     0.92968   0.69044   0.12631   0.00000  Uiso   1.00
H1319  H     0.51744   0.60996   0.46810   0.00000  Uiso   1.00
H1320  H     0.95212   0.59116   0.43925   0.00000  Uiso   1.00
H1321  H     0.93490   0.64513   0.44208   0.00000  Uiso   1.00
H1322  H     0.94059   0.61417   0.48591   0.00000  Uiso   1.00
H1323  H     0.50240   0.89113   0.53187   0.00000  Uiso   1.00
H1324  H     0.50387   0.65673   0.65916   0.00000  Uiso   1.00
H1325  H     0.93550   0.90270   0.56083   0.00000  Uiso   1.00
H1326  H     0.92424   0.84717   0.55808   0.00000  Uiso   1.00
H1327  H     0.92640   0.87851   0.51421   0.00000  Uiso   1.00
H1328  H     0.88902   0.52424   0.46809   0.00000  Uiso   1.00
H1329  H     0.91086   0.95987   0.43922   0.00000  Uiso   1.00
H1330  H     0.85779   0.94007   0.44211   0.00000  Uiso   1.00
H1331  H     0.88851   0.94723   0.48592   0.00000  Uiso   1.00
H1332  H     0.60895   0.99541   0.53189   0.00000  Uiso   1.00
H1333  H     0.60053   0.92799   0.56062   0.00000  Uiso   1.00
H1334  H     0.65659   0.91959   0.55834   0.00000  Uiso   1.00
H1335  H     0.54644   0.67213   0.62733   0.00000  Uiso   1.00
H1336  H     0.62567   0.92009   0.51422   0.00000  Uiso   1.00
H1337  H     0.98252   0.89002   0.46808   0.00000  Uiso   1.00
H1338  H     0.54786   0.90887   0.43929   0.00000  Uiso   1.00
H1339  H     0.56510   0.85491   0.44211   0.00000  Uiso   1.00
H1340  H     0.55936   0.88584   0.48595   0.00000  Uiso   1.00
H1341  H     0.99752   0.60887   0.53189   0.00000  Uiso   1.00
H1342  H     0.56440   0.59722   0.56083   0.00000  Uiso   1.00
H1343  H     0.57572   0.65274   0.55811   0.00000  Uiso   1.00
H1344  H     0.57354   0.62144   0.51422   0.00000  Uiso   1.00
H1345  H     0.61098   0.97580   0.46813   0.00000  Uiso   1.00
H1346  H     0.66154   0.94901   0.40888   0.00000  Uiso   1.00
H1347  H     0.58915   0.54020   0.43930   0.00000  Uiso   1.00
H1348  H     0.64223   0.55997   0.44217   0.00000  Uiso   1.00
H1349  H     0.61153   0.55280   0.48599   0.00000  Uiso   1.00
H1350  H     0.89106   0.50462   0.53185   0.00000  Uiso   1.00
H1351  H     0.89944   0.57203   0.56058   0.00000  Uiso   1.00
H1352  H     0.84338   0.58040   0.55834   0.00000  Uiso   1.00
H1353  H     0.87429   0.57993   0.51419   0.00000  Uiso   1.00
H1354  H     0.75694   0.85910   0.96816   0.00000  Uiso   1.00
H1355  H     0.69068   0.84512   0.93869   0.00000  Uiso   1.00
H1356  H     0.67723   0.90013   0.94187   0.00000  Uiso   1.00
N1357  N     0.97711   0.82310   0.39654   0.00000  Uiso   1.00
N1358  N     0.72787   0.92660   0.10329   0.00000  Uiso   1.00
N1359  N     0.93193   0.71463   0.89670   0.00000  Uiso   1.00
N1360  N     0.57657   0.74763   0.10338   0.00000  Uiso   1.00
N1361  N     0.76732   0.92538   0.89652   0.00000  Uiso   1.00
N1362  N     0.77227   0.57337   0.10330   0.00000  Uiso   1.00
N1363  N     0.56809   0.78532   0.89668   0.00000  Uiso   1.00
N1364  N     0.92343   0.75239   0.10339   0.00000  Uiso   1.00
N1365  N     0.99741   0.63382   0.45980   0.00000  Uiso   1.00
N1366  N     0.98509   0.86522   0.54021   0.00000  Uiso   1.00
N1367  N     0.86614   0.50306   0.45982   0.00000  Uiso   1.00
N1368  N     0.98469   0.67493   0.60343   0.00000  Uiso   1.00
N1369  N     0.63567   0.97943   0.54024   0.00000  Uiso   1.00
N1370  N     0.50258   0.86617   0.45980   0.00000  Uiso   1.00
N1371  N     0.51485   0.63476   0.54022   0.00000  Uiso   1.00
N1372  N     0.63386   0.99697   0.45985   0.00000  Uiso   1.00
N1373  N     0.86433   0.52058   0.54022   0.00000  Uiso   1.00
N1374  N     0.73871   0.88432   0.95974   0.00000  Uiso   1.00
N1375  N     0.74524   0.61606   0.04027   0.00000  Uiso   1.00
N1376  N     0.61483   0.76756   0.95990   0.00000  Uiso   1.00
N1377  N     0.88919   0.71510   0.04030   0.00000  Uiso   1.00
N1378  N     0.76160   0.61563   0.95966   0.00000  Uiso   1.00
N1379  N     0.67806   0.97357   0.39658   0.00000  Uiso   1.00
N1380  N     0.75532   0.88403   0.04031   0.00000  Uiso   1.00
N1381  N     0.88517   0.73237   0.95993   0.00000  Uiso   1.00
N1382  N     0.61083   0.78485   0.04027   0.00000  Uiso   1.00
N1383  N     0.82570   0.98838   0.60343   0.00000  Uiso   1.00
N1384  N     0.52288   0.67688   0.39654   0.00000  Uiso   1.00
N1385  N     0.51530   0.82507   0.60342   0.00000  Uiso   1.00
N1386  N     0.82191   0.52650   0.39658   0.00000  Uiso   1.00
N1387  N     0.67430   0.51162   0.60345   0.00000  Uiso   1.00
N1388  N     0.73256   0.57459   0.89656   0.00000  Uiso   1.00
O1389  O     0.75000   0.50000   0.25000   0.00000  Uiso   1.00
O1390  O     0.75000   0.96539   0.66251   0.00000  Uiso   1.00
O1391  O     0.96538   0.75000   0.33749   0.00000  Uiso   1.00
O1392  O     0.53461   0.75000   0.66251   0.00000  Uiso   1.00
O1393  O     0.50000   0.71538   0.83749   0.00000  Uiso   1.00
O1394  O     0.50000   0.78462   0.16251   0.00000  Uiso   1.00
O1395  O     0.78461   0.50000   0.83749   0.00000  Uiso   1.00
O1396  O     0.71538   0.50000   0.16251   0.00000  Uiso   1.00
O1397  O     0.50000   0.78461   0.83749   0.00000  Uiso   1.00
O1398  O     0.50000   0.71538   0.16251   0.00000  Uiso   1.00
O1399  O     0.71538   0.50000   0.83749   0.00000  Uiso   1.00
O1400  O     0.75000   0.50000   0.75000   0.00000  Uiso   1.00
O1401  O     0.78461   0.50000   0.16251   0.00000  Uiso   1.00
O1402  O     0.70126   0.58332   0.27298   0.00000  Uiso   1.00
O1403  O     0.79873   0.91668   0.72702   0.00000  Uiso   1.00
O1404  O     0.91668   0.70127   0.27298   0.00000  Uiso   1.00
O1405  O     0.58332   0.79873   0.72702   0.00000  Uiso   1.00
O1406  O     0.79873   0.91668   0.27298   0.00000  Uiso   1.00
O1407  O     0.70126   0.58332   0.72702   0.00000  Uiso   1.00
O1408  O     0.58332   0.79873   0.27298   0.00000  Uiso   1.00
O1409  O     0.91668   0.70127   0.72702   0.00000  Uiso   1.00
O1410  O     0.70126   0.91668   0.72702   0.00000  Uiso   1.00
O1411  O     0.50000   0.75000   0.25000   0.00000  Uiso   1.00
O1412  O     0.79873   0.58332   0.27298   0.00000  Uiso   1.00
O1413  O     0.91668   0.79874   0.72702   0.00000  Uiso   1.00
O1414  O     0.58332   0.70127   0.27298   0.00000  Uiso   1.00
O1415  O     0.79873   0.58332   0.72702   0.00000  Uiso   1.00
O1416  O     0.70126   0.91668   0.27298   0.00000  Uiso   1.00
O1417  O     0.58332   0.70127   0.72702   0.00000  Uiso   1.00
O1418  O     0.91668   0.79874   0.27298   0.00000  Uiso   1.00
O1419  O     0.95126   0.83332   0.77298   0.00000  Uiso   1.00
O1420  O     0.54873   0.66668   0.22702   0.00000  Uiso   1.00
O1421  O     0.66668   0.95127   0.77298   0.00000  Uiso   1.00
O1422  O     0.50000   0.75000   0.75000   0.00000  Uiso   1.00
O1423  O     0.83332   0.54874   0.22702   0.00000  Uiso   1.00
O1424  O     0.54873   0.66668   0.77298   0.00000  Uiso   1.00
O1425  O     0.95126   0.83332   0.22702   0.00000  Uiso   1.00
O1426  O     0.83332   0.54874   0.77298   0.00000  Uiso   1.00
O1427  O     0.66668   0.95127   0.22702   0.00000  Uiso   1.00
O1428  O     0.95126   0.66668   0.22702   0.00000  Uiso   1.00
O1429  O     0.54873   0.83332   0.77298   0.00000  Uiso   1.00
O1430  O     0.66668   0.54874   0.22702   0.00000  Uiso   1.00
O1431  O     0.83332   0.95127   0.77298   0.00000  Uiso   1.00
O1432  O     0.54873   0.83332   0.22702   0.00000  Uiso   1.00
O1433  O     0.75000   0.96539   0.33749   0.00000  Uiso   1.00
O1434  O     0.95126   0.66668   0.77298   0.00000  Uiso   1.00
O1435  O     0.83332   0.95127   0.22702   0.00000  Uiso   1.00
O1436  O     0.66668   0.54874   0.77298   0.00000  Uiso   1.00
O1437  O     0.75000   0.53462   0.66251   0.00000  Uiso   1.00
O1438  O     0.53461   0.75000   0.33749   0.00000  Uiso   1.00
O1439  O     0.96538   0.75000   0.66251   0.00000  Uiso   1.00
O1440  O     0.75000   0.53462   0.33749   0.00000  Uiso   1.00
Zn1441 Zn    0.70052   0.50000   0.21730   0.00000  Uiso   1.00
Zn1442 Zn    0.54947   0.75000   0.28270   0.00000  Uiso   1.00
Zn1443 Zn    0.75000   0.95053   0.71730   0.00000  Uiso   1.00
Zn1444 Zn    0.75000   0.54948   0.28270   0.00000  Uiso   1.00
Zn1445 Zn    0.54947   0.75000   0.71730   0.00000  Uiso   1.00
Zn1446 Zn    0.95052   0.75000   0.28270   0.00000  Uiso   1.00
Zn1447 Zn    0.75000   0.54948   0.71730   0.00000  Uiso   1.00
Zn1448 Zn    0.75000   0.95053   0.28270   0.00000  Uiso   1.00
Zn1449 Zn    0.79947   0.50000   0.78270   0.00000  Uiso   1.00
Zn1450 Zn    0.50000   0.70052   0.21730   0.00000  Uiso   1.00
Zn1451 Zn    0.50000   0.79947   0.78270   0.00000  Uiso   1.00
Zn1452 Zn    0.79947   0.50000   0.21730   0.00000  Uiso   1.00
Zn1453 Zn    0.70052   0.50000   0.78270   0.00000  Uiso   1.00
Zn1454 Zn    0.50000   0.79947   0.21730   0.00000  Uiso   1.00
Zn1455 Zn    0.50000   0.70052   0.78270   0.00000  Uiso   1.00
Zn1456 Zn    0.95052   0.75000   0.71730   0.00000  Uiso   1.00
loop_
_geom_bond_atom_site_label_1
_geom_bond_atom_site_label_2
_geom_bond_distance
_geom_bond_site_symmetry_2
_ccdc_geom_bond_type
C1     O1069   1.268   1_545 A
C1     C92     1.456   .     S
C1     O348    1.268   .     S
C2     C68     1.422   .     S
C2     O311    1.275   .     A
C2     O339    1.275   .     A
C3     C111    1.416   .     A
C3     N285    1.426   .     S
C3     C6      1.406   1_554 S
C4     N286    1.426   .     S
C4     C112    1.416   .     A
C4     C135    1.406   1_556 S
C5     C113    1.416   .     A
C5     N288    1.426   .     S
C5     C134    1.406   1_554 S
C6     C114    1.416   .     A
C6     N289    1.425   .     S
C6     C3      1.406   1_556 S
C7     N290    1.426   .     S
C7     C116    1.416   .     A
C7     C136    1.405   1_554 S
C8     H177    1.110   .     S
C8     H199    1.112   .     S
C8     H552    1.110   1_455 S
C8     N629    1.450   1_455 S
C9     H243    1.112   .     S
C9     H232    1.110   .     S
C9     H221    1.110   .     S
C9     N640    1.450   1_455 S
C10    H160    1.112   .     S
C10    H138    1.110   .     S
C10    H877    1.110   1_545 S
C10    N1015   1.450   1_545 S
C11    H171    1.110   .     S
C11    H172    1.110   .     S
C11    H173    1.112   .     S
C11    N1019   1.450   1_545 S
C12    H178    1.112   .     S
C12    H175    1.110   .     S
C12    H540    1.110   .     S
C12    N656    1.450   .     S
C13    O336    1.275   .     A
C13    C67     1.421   .     S
C13    O312    1.275   .     A
C14    H182    1.112   .     S
C14    H180    1.110   .     S
C14    H181    1.110   .     S
C14    N657    1.450   .     S
C15    H184    1.110   .     S
C15    H186    1.112   .     S
C15    H913    1.110   .     S
C15    N1022   1.450   .     S
C16    H189    1.110   .     S
C16    H191    1.112   .     S
C16    H190    1.110   .     S
C16    N1023   1.450   .     S
C17    H194    1.110   .     S
C17    H193    1.110   .     S
C17    H195    1.112   .     S
C17    N296    1.450   .     S
C18    N266    1.450   .     S
C18    H197    1.110   .     S
C18    H200    1.112   .     S
C18    H198    1.110   .     S
C19    H203    1.110   .     S
C19    N267    1.450   .     S
C19    H204    1.112   .     S
C19    H202    1.110   .     S
C20    H207    1.110   .     S
C20    N268    1.450   .     S
C20    H206    1.110   .     S
C20    H208    1.112   .     S
C21    H213    1.112   .     S
C21    H212    1.110   .     S
C21    N269    1.450   .     S
C21    H211    1.110   .     S
C22    H215    1.110   .     S
C22    H217    1.112   .     S
C22    H216    1.110   .     S
C22    N270    1.450   .     S
C23    H219    1.110   .     S
C23    H222    1.112   .     S
C23    N271    1.450   .     S
C23    H220    1.110   .     S
C24    C66     1.421   .     S
C24    O313    1.275   .     A
C24    O337    1.275   .     A
C25    H225    1.110   .     S
C25    H224    1.110   .     S
C25    H226    1.112   .     S
C25    N272    1.450   .     S
C26    H230    1.110   .     S
C26    N273    1.447   .     S
C26    H229    1.111   .     S
C26    H228    1.110   .     S
C27    N274    1.447   .     S
C27    H234    1.111   .     S
C27    H235    1.111   .     S
C27    H233    1.110   .     S
C28    H238    1.111   .     S
C28    H237    1.110   .     S
C28    H239    1.111   .     S
C28    N1003   1.448   .     S
C29    N277    1.447   .     S
C29    H242    1.111   .     S
C29    H244    1.111   .     S
C29    H241    1.110   .     S
C30    H248    1.110   .     S
C30    H246    1.110   .     S
C30    N278    1.447   .     S
C30    H247    1.111   .     S
C31    H251    1.111   .     S
C31    H252    1.111   .     S
C31    N279    1.447   .     S
C31    H250    1.110   .     S
C32    H255    1.110   .     S
C32    H256    1.111   .     S
C32    H257    1.111   .     S
C32    N1008   1.448   1_545 S
C33    H259    1.110   .     S
C33    H261    1.111   .     S
C33    N281    1.447   .     S
C33    H260    1.111   .     S
C34    N282    1.447   .     S
C34    H263    1.110   .     S
C34    H264    1.111   .     S
C34    H139    1.110   .     S
C35    C65     1.422   .     S
C35    O314    1.275   .     A
C35    O343    1.275   .     A
C36    H142    1.111   .     S
C36    N283    1.447   .     S
C36    H141    1.110   .     S
C36    H143    1.111   .     S
C37    H147    1.111   .     S
C37    N284    1.447   .     S
C37    H146    1.111   .     S
C37    H145    1.110   .     S
C38    H151    1.111   .     S
C38    H152    1.110   .     S
C38    H150    1.111   .     S
C38    N285    1.447   .     S
C39    H154    1.110   .     S
C39    H155    1.111   .     S
C39    N286    1.447   .     S
C39    H156    1.110   .     S
C40    N288    1.447   .     S
C40    H159    1.111   .     S
C40    H158    1.110   .     S
C40    H161    1.111   .     S
C41    H164    1.111   .     S
C41    H163    1.110   .     S
C41    H165    1.111   .     S
C41    N289    1.447   .     S
C42    N290    1.447   .     S
C42    H167    1.111   .     S
C42    H168    1.111   .     S
C42    H169    1.110   .     S
C43    C64     1.422   .     S
C43    O315    1.275   .     A
C43    O344    1.275   .     A
C44    O340    1.275   .     A
C44    O316    1.275   .     A
C44    C72     1.421   .     S
C45    O317    1.275   .     A
C45    C70     1.421   .     S
C45    O342    1.275   .     A
C46    O329    1.275   .     A
C46    C61     1.421   .     S
C46    O318    1.275   .     A
C47    O331    1.275   .     A
C47    C59     1.421   .     S
C47    O320    1.275   .     A
C48    O327    1.275   .     A
C48    C58     1.422   .     S
C48    O321    1.275   .     A
C49    O345    1.268   .     A
C49    C94     1.455   .     S
C49    O1026   1.268   1_545 S
C50    C57     1.422   .     S
C50    O322    1.275   .     A
C50    O328    1.275   .     A
C51    O334    1.275   .     A
C51    O323    1.275   .     A
C51    C56     1.421   .     S
C52    O324    1.275   .     A
C52    C55     1.421   .     S
C52    O335    1.275   .     A
C53    O332    1.275   .     A
C53    O325    1.275   .     A
C53    C63     1.422   .     S
C54    C62     1.422   .     S
C54    O333    1.275   .     A
C54    O326    1.275   .     A
C55    C72     1.198   .     T
C56    C70     1.198   .     T
C57    C69     1.198   .     T
C58    C68     1.198   .     T
C59    C67     1.198   .     T
C60    C90     1.456   .     S
C60    O663    1.268   1_455 A
C60    O346    1.268   .     S
C61    C66     1.198   .     T
C62    C65     1.198   .     T
C63    C64     1.198   .     T
C69    C126    1.422   .     S
C71    C91     1.456   .     S
C71    O300    1.268   .     A
C71    O711    1.268   1_455 S
C73    C103    1.418   .     A
C73    C454    1.401   .     A
C73    N265    1.430   .     S
C74    N276    1.430   .     S
C74    C455    1.401   .     S
C74    C469    1.418   .     S
C75    N287    1.430   .     S
C75    C106    1.418   .     A
C75    C820    1.401   .     A
C76    N291    1.430   .     S
C76    C822    1.401   .     S
C76    C835    1.418   .     S
C77    C99     1.418   .     A
C77    N292    1.430   .     S
C77    C90     1.401   .     S
C78    N293    1.430   .     S
C78    C91     1.401   .     A
C78    C464    1.418   1_455 S
C79    C101    1.418   .     A
C79    N294    1.430   .     S
C79    C92     1.401   .     S
C80    N295    1.430   .     S
C80    C94     1.401   .     A
C80    C830    1.418   1_545 S
C81    C112    1.418   .     A
C81    N296    1.430   .     S
C81    C95     1.401   .     S
C82    C97     1.457   .     S
C82    O301    1.268   .     S
C82    O305    1.268   .     S
C83    C113    1.418   .     A
C83    N266    1.431   .     S
C83    C824    1.401   .     S
C84    N267    1.431   .     S
C84    C114    1.418   .     A
C84    C461    1.402   .     A
C85    C116    1.417   .     A
C85    N268    1.431   .     S
C85    C98     1.401   .     S
C86    C108    1.418   .     A
C86    C823    1.401   .     A
C86    N269    1.430   .     S
C87    N270    1.430   .     S
C87    C109    1.418   .     A
C87    C96     1.401   .     A
C88    N271    1.431   .     S
C88    C110    1.418   .     A
C88    C97     1.402   .     S
C89    C462    1.401   .     A
C89    N272    1.431   .     S
C89    C111    1.417   .     A
C90    C437    1.401   1_455 A
C91    C438    1.401   1_455 S
C92    C803    1.401   1_545 A
C93    O302    1.267   .     A
C93    C98     1.454   .     S
C93    O306    1.268   .     S
C94    C804    1.401   1_545 S
C95    C814    1.401   1_545 A
C95    C104    1.455   .     S
C96    C115    1.456   .     S
C96    C811    1.401   1_545 S
C97    C448    1.402   1_455 A
C98    C453    1.401   1_455 A
C99    C125    1.416   .     A
C99    C117    1.424   .     S
C100   C127    1.416   .     A
C100   C482    1.424   .     A
C100   C442    1.418   .     S
C101   C128    1.416   .     A
C101   C847    1.424   1_545 S
C102   C848    1.424   .     A
C102   C129    1.416   .     A
C102   C808    1.418   .     S
C103   C481    1.424   .     A
C103   C130    1.416   .     A
C104   O303    1.268   .     S
C104   O307    1.268   .     S
C105   C131    1.416   .     A
C105   C438    1.418   1_455 S
C105   C118    1.424   .     S
C106   C132    1.416   .     A
C106   C119    1.424   .     A
C107   C133    1.416   .     A
C107   C804    1.418   1_545 S
C107   C120    1.424   .     S
C108   C134    1.416   .     A
C108   C849    1.424   .     S
C109   C135    1.416   .     A
C109   C122    1.423   .     A
C110   C136    1.416   .     A
C110   C123    1.424   .     S
C111   C488    1.424   .     A
C112   C121    1.424   .     A
C113   C850    1.423   .     S
C114   C487    1.424   .     A
C115   O309    1.268   .     A
C115   O304    1.268   .     A
C116   C124    1.424   .     S
C117   C467    1.424   1_455 A
C117   C118    1.418   .     A
C118   C464    1.424   1_455 A
C119   C848    1.418   .     A
C119   C829    1.424   .     S
C120   C830    1.424   1_545 A
C120   C847    1.418   1_545 A
C121   C836    1.424   1_545 S
C121   C122    1.418   1_556 S
C122   C841    1.423   1_545 S
C122   C121    1.418   1_554 S
C123   C478    1.424   1_455 A
C123   C124    1.418   1_556 S
C124   C475    1.424   1_455 A
C124   C123    1.418   1_554 S
C125   C131    1.406   .     A
C125   N637    1.426   1_455 S
C126   O338    1.275   .     A
C126   O310    1.275   .     A
C127   N274    1.426   .     S
C127   C130    1.406   .     A
C128   N275    1.426   .     S
C128   C133    1.406   .     A
C129   C132    1.406   .     A
C129   N277    1.425   .     S
C130   N642    1.426   .     S
C131   N279    1.426   .     S
C132   N280    1.426   .     S
C133   N281    1.425   .     S
C134   N282    1.426   .     S
C134   C5      1.406   1_556 S
C135   N283    1.426   .     S
C135   C4      1.406   1_554 S
C136   N284    1.425   .     S
C136   C7      1.405   1_556 S
H137   N265    1.031   .     S
H140   N283    1.030   .     S
H144   N284    1.030   .     S
H148   N285    1.030   .     S
H149   C738    1.110   .     S
H153   N286    1.030   .     S
H157   N288    1.030   .     S
H162   N289    1.030   .     S
H166   N290    1.030   .     S
H170   N291    1.031   .     S
H174   N292    1.031   .     S
H176   C376    1.110   1_455 S
H179   N293    1.031   .     S
H183   N294    1.031   .     S
H185   C743    1.110   1_545 S
H187   N295    1.031   .     S
H188   C372    1.110   .     S
H192   N296    1.031   .     S
H196   N266    1.031   .     S
H201   N267    1.031   .     S
H205   N268    1.031   .     S
H209   N269    1.031   .     S
H210   N276    1.031   .     S
H214   N270    1.031   .     S
H218   N271    1.031   .     S
H223   N272    1.031   .     S
H227   N637    1.030   1_455 S
H231   N638    1.030   1_455 S
H236   N275    1.030   .     S
H240   N277    1.030   .     S
H245   N642    1.030   .     S
H249   N643    1.030   .     S
H253   N280    1.030   .     S
H254   N287    1.031   .     S
H258   N281    1.030   .     S
H262   N282    1.030   .     S
N265   C372    1.450   .     S
N273   C489    1.426   .     S
N273   H591    1.030   .     S
N274   H595    1.030   .     S
N275   C756    1.448   1_545 S
N276   C373    1.450   .     S
N278   H609    1.030   1_455 S
N278   C494    1.426   1_455 S
N279   H613    1.030   1_455 S
N280   C760    1.448   .     S
N287   C738    1.450   .     S
N291   C739    1.450   .     S
N292   C376    1.450   1_455 S
N293   C378    1.450   1_455 S
N294   C743    1.450   1_545 S
N295   C744    1.450   1_545 S
O297   Zn352   1.934   .     S
O297   Zn360   1.934   .     S
O297   Zn349   1.934   .     S
O297   Zn1084  1.934   1_545 S
O298   Zn351   1.947   .     S
O298   C777    1.268   .     S
O299   Zn354   1.947   .     S
O299   C424    1.268   .     A
O300   Zn353   1.947   .     S
O301   Zn363   1.947   .     S
O302   Zn362   1.947   .     S
O303   Zn357   1.947   .     S
O304   Zn349   1.947   .     S
O305   Zn359   1.947   .     S
O306   Zn358   1.947   .     S
O307   Zn361   1.947   .     S
O308   Zn355   1.934   .     S
O308   Zn357   1.934   .     S
O308   Zn361   1.934   .     S
O308   Zn1079  1.934   1_545 S
O309   Zn360   1.947   .     S
O310   Zn352   1.915   .     S
O311   Zn351   1.915   .     S
O312   Zn354   1.914   .     S
O313   Zn353   1.914   .     S
O314   Zn356   1.915   .     S
O315   Zn355   1.915   .     S
O316   Zn350   1.914   .     S
O317   Zn364   1.914   .     S
O318   Zn351   1.914   .     S
O319   Zn350   1.934   .     S
O319   Zn358   1.934   .     S
O319   Zn362   1.934   .     S
O319   Zn718   1.934   1_455 S
O320   Zn352   1.914   .     S
O321   Zn364   1.914   .     S
O322   Zn350   1.914   .     S
O323   Zn355   1.914   .     S
O324   Zn356   1.914   .     S
O325   Zn353   1.914   .     S
O326   Zn354   1.914   .     S
O327   Zn723   1.915   .     S
O328   Zn358   1.915   .     S
O329   Zn1089  1.914   .     S
O330   Zn353   1.934   .     S
O330   Zn359   1.934   .     S
O330   Zn363   1.934   .     S
O330   Zn728   1.934   1_455 S
O331   Zn360   1.914   .     S
O332   Zn363   1.915   .     S
O333   Zn726   1.915   .     S
O334   Zn357   1.914   .     S
O335   Zn1077  1.914   .     S
O336   Zn722   1.914   .     S
O337   Zn359   1.914   .     S
O338   Zn349   1.914   .     S
O339   Zn1085  1.914   .     S
O340   Zn362   1.914   .     S
O341   C729    1.268   .     A
O341   Zn356   1.947   .     S
O342   Zn727   1.914   .     S
O343   Zn1088  1.914   .     S
O344   Zn361   1.914   .     S
O345   Zn355   1.947   .     S
O346   Zn350   1.947   .     S
O347   Zn364   1.947   .     S
O347   C435    1.268   .     S
O348   Zn352   1.947   .     S
Zn349  O1063   1.914   1_545 S
Zn351  O1036   1.934   .     S
Zn354  O683    1.934   .     S
Zn356  O1025   1.934   .     S
Zn357  O1067   1.914   1_545 S
Zn358  O700    1.914   1_455 S
Zn359  O691    1.915   1_455 S
Zn360  O1071   1.914   1_545 S
Zn361  O1057   1.914   1_545 S
Zn362  O697    1.915   1_455 S
Zn363  O706    1.914   1_455 S
Zn364  O694    1.934   .     S
C365   O1433   1.268   1_545 A
C365   C456    1.456   .     S
C365   O712    1.268   .     S
C366   C432    1.422   .     S
C366   O675    1.275   .     A
C366   O703    1.275   .     A
C367   C475    1.416   .     A
C367   N649    1.426   .     S
C367   C370    1.406   1_554 S
C368   N650    1.426   .     S
C368   C476    1.416   .     A
C368   C499    1.406   1_556 S
C369   C477    1.416   .     A
C369   N652    1.426   .     S
C369   C498    1.406   1_554 S
C370   C478    1.416   .     A
C370   N653    1.425   .     S
C370   C367    1.406   1_556 S
C371   N654    1.426   .     S
C371   C480    1.416   .     A
C371   C500    1.405   1_554 S
C372   H541    1.110   .     S
C372   H563    1.112   .     S
C373   H607    1.112   .     S
C373   H596    1.110   .     S
C373   H585    1.110   .     S
C374   H524    1.112   .     S
C374   H502    1.110   .     S
C374   H1241   1.110   1_545 S
C374   N1379   1.450   1_545 S
C375   H535    1.110   .     S
C375   H536    1.110   .     S
C375   H537    1.112   .     S
C375   N1383   1.450   1_545 S
C376   H542    1.112   .     S
C376   H539    1.110   .     S
C376   H176    1.110   1_655 S
C376   N292    1.450   1_655 S
C377   O700    1.275   .     A
C377   C431    1.421   .     S
C377   O676    1.275   .     A
C378   H546    1.112   .     S
C378   H544    1.110   .     S
C378   H545    1.110   .     S
C378   N293    1.450   1_655 S
C379   H548    1.110   .     S
C379   H550    1.112   .     S
C379   H1277   1.110   .     S
C379   N1386   1.450   .     S
C380   H553    1.110   .     S
C380   H555    1.112   .     S
C380   H554    1.110   .     S
C380   N1387   1.450   .     S
C381   H558    1.110   .     S
C381   H557    1.110   .     S
C381   H559    1.112   .     S
C381   N660    1.450   .     S
C382   N630    1.450   .     S
C382   H561    1.110   .     S
C382   H564    1.112   .     S
C382   H562    1.110   .     S
C383   H567    1.110   .     S
C383   N631    1.450   .     S
C383   H568    1.112   .     S
C383   H566    1.110   .     S
C384   H571    1.110   .     S
C384   N632    1.450   .     S
C384   H570    1.110   .     S
C384   H572    1.112   .     S
C385   H577    1.112   .     S
C385   H576    1.110   .     S
C385   N633    1.450   .     S
C385   H575    1.110   .     S
C386   H579    1.110   .     S
C386   H581    1.112   .     S
C386   H580    1.110   .     S
C386   N634    1.450   .     S
C387   H583    1.110   .     S
C387   H586    1.112   .     S
C387   N635    1.450   .     S
C387   H584    1.110   .     S
C388   C430    1.421   .     S
C388   O677    1.275   .     A
C388   O701    1.275   .     A
C389   H589    1.110   .     S
C389   H588    1.110   .     S
C389   H590    1.112   .     S
C389   N636    1.450   .     S
C390   H594    1.110   .     S
C390   N637    1.447   .     S
C390   H593    1.111   .     S
C390   H592    1.110   .     S
C391   N638    1.447   .     S
C391   H598    1.111   .     S
C391   H599    1.111   .     S
C391   H597    1.110   .     S
C392   H602    1.111   .     S
C392   H601    1.110   .     S
C392   H603    1.111   .     S
C392   N1367   1.448   .     S
C393   N641    1.447   .     S
C393   H606    1.111   .     S
C393   H608    1.111   .     S
C393   H605    1.110   .     S
C394   H612    1.110   .     S
C394   H610    1.110   .     S
C394   N642    1.447   .     S
C394   H611    1.111   .     S
C395   H615    1.111   .     S
C395   H616    1.111   .     S
C395   N643    1.447   .     S
C395   H614    1.110   .     S
C396   H619    1.110   .     S
C396   H620    1.111   .     S
C396   H621    1.111   .     S
C396   N1372   1.448   1_545 S
C397   H623    1.110   .     S
C397   H625    1.111   .     S
C397   N645    1.447   .     S
C397   H624    1.111   .     S
C398   N646    1.447   .     S
C398   H627    1.110   .     S
C398   H628    1.111   .     S
C398   H503    1.110   .     S
C399   C429    1.422   .     S
C399   O678    1.275   .     A
C399   O707    1.275   .     A
C400   H506    1.111   .     S
C400   N647    1.447   .     S
C400   H505    1.110   .     S
C400   H507    1.111   .     S
C401   H511    1.111   .     S
C401   N648    1.447   .     S
C401   H510    1.111   .     S
C401   H509    1.110   .     S
C402   H515    1.111   .     S
C402   H516    1.110   .     S
C402   H514    1.111   .     S
C402   N649    1.447   .     S
C403   H518    1.110   .     S
C403   H519    1.111   .     S
C403   N650    1.447   .     S
C403   H520    1.110   .     S
C404   N652    1.447   .     S
C404   H523    1.111   .     S
C404   H522    1.110   .     S
C404   H525    1.111   .     S
C405   H528    1.111   .     S
C405   H527    1.110   .     S
C405   H529    1.111   .     S
C405   N653    1.447   .     S
C406   N654    1.447   .     S
C406   H531    1.111   .     S
C406   H532    1.111   .     S
C406   H533    1.110   .     S
C407   C428    1.422   .     S
C407   O679    1.275   .     A
C407   O708    1.275   .     A
C408   O704    1.275   .     A
C408   O680    1.275   .     A
C408   C436    1.421   .     S
C409   O681    1.275   .     A
C409   C434    1.421   .     S
C409   O706    1.275   .     A
C410   O693    1.275   .     A
C410   C425    1.421   .     S
C410   O682    1.275   .     A
C411   O695    1.275   .     A
C411   C423    1.421   .     S
C411   O684    1.275   .     A
C412   O691    1.275   .     A
C412   C422    1.422   .     S
C412   O685    1.275   .     A
C413   O709    1.268   .     A
C413   C458    1.455   .     S
C413   O1390   1.268   1_545 S
C414   C421    1.422   .     S
C414   O686    1.275   .     A
C414   O692    1.275   .     A
C415   O698    1.275   .     A
C415   O687    1.275   .     A
C415   C420    1.421   .     S
C416   O688    1.275   .     A
C416   C419    1.421   .     S
C416   O699    1.275   .     A
C417   O696    1.275   .     A
C417   O689    1.275   .     A
C417   C427    1.422   .     S
C418   C426    1.422   .     S
C418   O697    1.275   .     A
C418   O690    1.275   .     A
C419   C436    1.198   .     T
C420   C434    1.198   .     T
C421   C433    1.198   .     T
C422   C432    1.198   .     T
C423   C431    1.198   .     T
C424   C454    1.456   .     S
C424   O710    1.268   .     S
C425   C430    1.198   .     T
C426   C429    1.198   .     T
C427   C428    1.198   .     T
C433   C490    1.422   .     S
C435   C455    1.456   .     S
C435   O664    1.268   .     A
C437   C467    1.418   .     A
C437   C90     1.401   1_655 A
C437   N629    1.430   .     S
C438   N640    1.430   .     S
C438   C91     1.401   1_655 S
C438   C105    1.418   1_655 S
C439   N651    1.430   .     S
C439   C470    1.418   .     A
C439   C1184   1.401   .     A
C440   N655    1.430   .     S
C440   C1186   1.401   .     S
C440   C1199   1.418   .     S
C441   C463    1.418   .     A
C441   N656    1.430   .     S
C441   C454    1.401   .     S
C442   N657    1.430   .     S
C442   C455    1.401   .     A
C443   C465    1.418   .     A
C443   N658    1.430   .     S
C443   C456    1.401   .     S
C444   N659    1.430   .     S
C444   C458    1.401   .     A
C444   C1194   1.418   1_545 S
C445   C476    1.418   .     A
C445   N660    1.430   .     S
C445   C459    1.401   .     S
C446   C461    1.457   .     S
C446   O665    1.268   .     S
C446   O669    1.268   .     S
C447   C477    1.418   .     A
C447   N630    1.431   .     S
C447   C1188   1.401   .     S
C448   N631    1.431   .     S
C448   C478    1.418   .     A
C448   C97     1.402   1_655 A
C449   C480    1.417   .     A
C449   N632    1.431   .     S
C449   C462    1.401   .     S
C450   C472    1.418   .     A
C450   C1187   1.401   .     A
C450   N633    1.430   .     S
C451   N634    1.430   .     S
C451   C473    1.418   .     A
C451   C460    1.401   .     A
C452   N635    1.431   .     S
C452   C474    1.418   .     A
C452   C461    1.402   .     S
C453   C98     1.401   1_655 A
C453   N636    1.431   .     S
C453   C475    1.417   .     A
C456   C1167   1.401   1_545 A
C457   O666    1.267   .     A
C457   C462    1.454   .     S
C457   O670    1.268   .     S
C458   C1168   1.401   1_545 S
C459   C1178   1.401   1_545 A
C459   C468    1.455   .     S
C460   C479    1.456   .     S
C460   C1175   1.401   1_545 S
C463   C489    1.416   .     A
C463   C481    1.424   .     S
C464   C491    1.416   .     A
C464   C118    1.424   1_655 A
C464   C78     1.418   1_655 S
C465   C492    1.416   .     A
C465   C1211   1.424   1_545 S
C466   C1212   1.424   .     A
C466   C493    1.416   .     A
C466   C1172   1.418   .     S
C467   C117    1.424   1_655 A
C467   C494    1.416   .     A
C468   O667    1.268   .     S
C468   O671    1.268   .     S
C469   C495    1.416   .     A
C469   C482    1.424   .     S
C470   C496    1.416   .     A
C470   C483    1.424   .     A
C471   C497    1.416   .     A
C471   C1168   1.418   1_545 S
C471   C484    1.424   .     S
C472   C498    1.416   .     A
C472   C1213   1.424   .     S
C473   C499    1.416   .     A
C473   C486    1.423   .     A
C474   C500    1.416   .     A
C474   C487    1.424   .     S
C475   C124    1.424   1_655 A
C476   C485    1.424   .     A
C477   C1214   1.423   .     S
C478   C123    1.424   1_655 A
C479   O673    1.268   .     A
C479   O668    1.268   .     A
C480   C488    1.424   .     S
C481   C482    1.418   .     A
C483   C1212   1.418   .     A
C483   C1193   1.424   .     S
C484   C1194   1.424   1_545 A
C484   C1211   1.418   1_545 A
C485   C1200   1.424   1_545 S
C485   C486    1.418   1_556 S
C486   C1205   1.423   1_545 S
C486   C485    1.418   1_554 S
C487   C488    1.418   1_556 S
C488   C487    1.418   1_554 S
C489   C495    1.406   .     A
C490   O702    1.275   .     A
C490   O674    1.275   .     A
C491   N638    1.426   .     S
C491   C494    1.406   .     A
C492   N639    1.426   .     S
C492   C497    1.406   .     A
C493   C496    1.406   .     A
C493   N641    1.425   .     S
C494   N278    1.426   1_655 S
C495   N643    1.426   .     S
C496   N644    1.426   .     S
C497   N645    1.425   .     S
C498   N646    1.426   .     S
C498   C369    1.406   1_556 S
C499   N647    1.426   .     S
C499   C368    1.406   1_554 S
C500   N648    1.425   .     S
C500   C371    1.405   1_556 S
H501   N629    1.031   .     S
H504   N647    1.030   .     S
H508   N648    1.030   .     S
H512   N649    1.030   .     S
H513   C1102   1.110   .     S
H517   N650    1.030   .     S
H521   N652    1.030   .     S
H526   N653    1.030   .     S
H530   N654    1.030   .     S
H534   N655    1.031   .     S
H538   N656    1.031   .     S
H543   N657    1.031   .     S
H547   N658    1.031   .     S
H549   C1107   1.110   1_545 S
H551   N659    1.031   .     S
H552   C8      1.110   1_655 S
H556   N660    1.031   .     S
H560   N630    1.031   .     S
H565   N631    1.031   .     S
H569   N632    1.031   .     S
H573   N633    1.031   .     S
H574   N640    1.031   .     S
H578   N634    1.031   .     S
H582   N635    1.031   .     S
H587   N636    1.031   .     S
H600   N639    1.030   .     S
H604   N641    1.030   .     S
H609   N278    1.030   1_655 S
H613   N279    1.030   1_655 S
H617   N644    1.030   .     S
H618   N651    1.031   .     S
H622   N645    1.030   .     S
H626   N646    1.030   .     S
N629   C8      1.450   1_655 S
N637   C125    1.426   1_655 S
N637   H227    1.030   1_655 S
N638   H231    1.030   1_655 S
N639   C1120   1.448   1_545 S
N640   C9      1.450   1_655 S
N644   C1124   1.448   .     S
N651   C1102   1.450   .     S
N655   C1103   1.450   .     S
N658   C1107   1.450   1_545 S
N659   C1108   1.450   1_545 S
O661   Zn716   1.934   .     S
O661   Zn724   1.934   .     S
O661   Zn713   1.934   .     S
O661   Zn1448  1.934   1_545 S
O662   Zn715   1.947   .     S
O662   C1141   1.268   .     S
O663   Zn718   1.947   .     S
O663   C60     1.268   1_655 A
O664   Zn717   1.947   .     S
O665   Zn727   1.947   .     S
O666   Zn726   1.947   .     S
O667   Zn721   1.947   .     S
O668   Zn713   1.947   .     S
O669   Zn723   1.947   .     S
O670   Zn722   1.947   .     S
O671   Zn725   1.947   .     S
O672   Zn719   1.934   .     S
O672   Zn721   1.934   .     S
O672   Zn725   1.934   .     S
O672   Zn1443  1.934   1_545 S
O673   Zn724   1.947   .     S
O674   Zn716   1.915   .     S
O675   Zn715   1.915   .     S
O676   Zn718   1.914   .     S
O677   Zn717   1.914   .     S
O678   Zn720   1.915   .     S
O679   Zn719   1.915   .     S
O680   Zn714   1.914   .     S
O681   Zn728   1.914   .     S
O682   Zn715   1.914   .     S
O683   Zn714   1.934   .     S
O683   Zn722   1.934   .     S
O683   Zn726   1.934   .     S
O684   Zn716   1.914   .     S
O685   Zn728   1.914   .     S
O686   Zn714   1.914   .     S
O687   Zn719   1.914   .     S
O688   Zn720   1.914   .     S
O689   Zn717   1.914   .     S
O690   Zn718   1.914   .     S
O691   Zn359   1.915   1_655 S
O692   Zn722   1.915   .     S
O693   Zn1453  1.914   .     S
O694   Zn717   1.934   .     S
O694   Zn723   1.934   .     S
O694   Zn727   1.934   .     S
O695   Zn724   1.914   .     S
O696   Zn727   1.915   .     S
O697   Zn362   1.915   1_655 S
O698   Zn721   1.914   .     S
O699   Zn1441  1.914   .     S
O700   Zn358   1.914   1_655 S
O701   Zn723   1.914   .     S
O702   Zn713   1.914   .     S
O703   Zn1449  1.914   .     S
O704   Zn726   1.914   .     S
O705   C1093   1.268   .     A
O705   Zn720   1.947   .     S
O706   Zn363   1.914   1_655 S
O707   Zn1452  1.914   .     S
O708   Zn725   1.914   .     S
O709   Zn719   1.947   .     S
O710   Zn714   1.947   .     S
O711   Zn728   1.947   .     S
O711   C71     1.268   1_655 S
O712   Zn716   1.947   .     S
Zn713  O1427   1.914   1_545 S
Zn715  O1400   1.934   .     S
Zn718  O319    1.934   1_655 S
Zn720  O1389   1.934   .     S
Zn721  O1431   1.914   1_545 S
Zn724  O1435   1.914   1_545 S
Zn725  O1421   1.914   1_545 S
Zn728  O330    1.934   1_655 S
C729   C820    1.456   .     S
C729   O1076   1.268   .     S
C730   C796    1.422   .     S
C730   O1039   1.275   .     A
C730   O1067   1.275   .     A
C731   C839    1.416   .     A
C731   N1013   1.426   .     S
C731   C734    1.406   1_554 S
C732   N1014   1.426   .     S
C732   C840    1.416   .     A
C732   C863    1.406   1_556 S
C733   C841    1.416   .     A
C733   N1016   1.426   .     S
C733   C862    1.406   1_554 S
C734   C842    1.416   .     A
C734   N1017   1.425   .     S
C734   C731    1.406   1_556 S
C735   N1018   1.426   .     S
C735   C844    1.416   .     A
C735   C864    1.405   1_554 S
C736   H905    1.110   .     S
C736   H927    1.112   .     S
C736   H1280   1.110   1_455 S
C736   N1357   1.450   1_455 S
C737   H971    1.112   .     S
C737   H960    1.110   .     S
C737   H949    1.110   .     S
C737   N1368   1.450   1_455 S
C738   H888    1.112   .     S
C738   H866    1.110   .     S
C739   H899    1.110   .     S
C739   H900    1.110   .     S
C739   H901    1.112   .     S
C740   H906    1.112   .     S
C740   H903    1.110   .     S
C740   H1268   1.110   .     S
C740   N1384   1.450   .     S
C741   O1064   1.275   .     A
C741   C795    1.421   .     S
C741   O1040   1.275   .     A
C742   H910    1.112   .     S
C742   H908    1.110   .     S
C742   H909    1.110   .     S
C742   N1385   1.450   .     S
C743   H912    1.110   .     S
C743   H914    1.112   .     S
C743   H185    1.110   1_565 S
C743   N294    1.450   1_565 S
C744   H917    1.110   .     S
C744   H919    1.112   .     S
C744   H918    1.110   .     S
C744   N295    1.450   1_565 S
C745   H922    1.110   .     S
C745   H921    1.110   .     S
C745   H923    1.112   .     S
C745   N1024   1.450   .     S
C746   N994    1.450   .     S
C746   H925    1.110   .     S
C746   H928    1.112   .     S
C746   H926    1.110   .     S
C747   H931    1.110   .     S
C747   N995    1.450   .     S
C747   H932    1.112   .     S
C747   H930    1.110   .     S
C748   H935    1.110   .     S
C748   N996    1.450   .     S
C748   H934    1.110   .     S
C748   H936    1.112   .     S
C749   H941    1.112   .     S
C749   H940    1.110   .     S
C749   N997    1.450   .     S
C749   H939    1.110   .     S
C750   H943    1.110   .     S
C750   H945    1.112   .     S
C750   H944    1.110   .     S
C750   N998    1.450   .     S
C751   H947    1.110   .     S
C751   H950    1.112   .     S
C751   N999    1.450   .     S
C751   H948    1.110   .     S
C752   C794    1.421   .     S
C752   O1041   1.275   .     A
C752   O1065   1.275   .     A
C753   H953    1.110   .     S
C753   H952    1.110   .     S
C753   H954    1.112   .     S
C753   N1000   1.450   .     S
C754   H958    1.110   .     S
C754   N1001   1.447   .     S
C754   H957    1.111   .     S
C754   H956    1.110   .     S
C755   N1002   1.447   .     S
C755   H962    1.111   .     S
C755   H963    1.111   .     S
C755   H961    1.110   .     S
C756   H966    1.111   .     S
C756   H965    1.110   .     S
C756   H967    1.111   .     S
C756   N275    1.448   1_565 S
C757   N1005   1.447   .     S
C757   H970    1.111   .     S
C757   H972    1.111   .     S
C757   H969    1.110   .     S
C758   H976    1.110   .     S
C758   H974    1.110   .     S
C758   N1006   1.447   .     S
C758   H975    1.111   .     S
C759   H979    1.111   .     S
C759   H980    1.111   .     S
C759   N1007   1.447   .     S
C759   H978    1.110   .     S
C760   H983    1.110   .     S
C760   H984    1.111   .     S
C760   H985    1.111   .     S
C761   H987    1.110   .     S
C761   H989    1.111   .     S
C761   N1009   1.447   .     S
C761   H988    1.111   .     S
C762   N1010   1.447   .     S
C762   H991    1.110   .     S
C762   H992    1.111   .     S
C762   H867    1.110   .     S
C763   C793    1.422   .     S
C763   O1042   1.275   .     A
C763   O1071   1.275   .     A
C764   H870    1.111   .     S
C764   N1011   1.447   .     S
C764   H869    1.110   .     S
C764   H871    1.111   .     S
C765   H875    1.111   .     S
C765   N1012   1.447   .     S
C765   H874    1.111   .     S
C765   H873    1.110   .     S
C766   H879    1.111   .     S
C766   H880    1.110   .     S
C766   H878    1.111   .     S
C766   N1013   1.447   .     S
C767   H882    1.110   .     S
C767   H883    1.111   .     S
C767   N1014   1.447   .     S
C767   H884    1.110   .     S
C768   N1016   1.447   .     S
C768   H887    1.111   .     S
C768   H886    1.110   .     S
C768   H889    1.111   .     S
C769   H892    1.111   .     S
C769   H891    1.110   .     S
C769   H893    1.111   .     S
C769   N1017   1.447   .     S
C770   N1018   1.447   .     S
C770   H895    1.111   .     S
C770   H896    1.111   .     S
C770   H897    1.110   .     S
C771   C792    1.422   .     S
C771   O1043   1.275   .     A
C771   O1072   1.275   .     A
C772   O1068   1.275   .     A
C772   O1044   1.275   .     A
C772   C800    1.421   .     S
C773   O1045   1.275   .     A
C773   C798    1.421   .     S
C773   O1070   1.275   .     A
C774   O1057   1.275   .     A
C774   C789    1.421   .     S
C774   O1046   1.275   .     A
C775   O1059   1.275   .     A
C775   C787    1.421   .     S
C775   O1048   1.275   .     A
C776   O1055   1.275   .     A
C776   C786    1.422   .     S
C776   O1049   1.275   .     A
C777   O1073   1.268   .     A
C777   C822    1.455   .     S
C778   C785    1.422   .     S
C778   O1050   1.275   .     A
C778   O1056   1.275   .     A
C779   O1062   1.275   .     A
C779   O1051   1.275   .     A
C779   C784    1.421   .     S
C780   O1052   1.275   .     A
C780   C783    1.421   .     S
C780   O1063   1.275   .     A
C781   O1060   1.275   .     A
C781   O1053   1.275   .     A
C781   C791    1.422   .     S
C782   C790    1.422   .     S
C782   O1061   1.275   .     A
C782   O1054   1.275   .     A
C783   C800    1.198   .     T
C784   C798    1.198   .     T
C785   C797    1.198   .     T
C786   C796    1.198   .     T
C787   C795    1.198   .     T
C788   C818    1.456   .     S
C788   O1391   1.268   1_455 A
C788   O1074   1.268   .     S
C789   C794    1.198   .     T
C790   C793    1.198   .     T
C791   C792    1.198   .     T
C797   C854    1.422   .     S
C799   C819    1.456   .     S
C799   O1028   1.268   .     A
C799   O1439   1.268   1_455 S
C801   C831    1.418   .     A
C801   C1182   1.401   .     A
C801   N993    1.430   .     S
C802   N1004   1.430   .     S
C802   C1183   1.401   .     S
C802   C1197   1.418   .     S
C803   N1015   1.430   .     S
C803   C834    1.418   .     A
C803   C92     1.401   1_565 A
C804   N1019   1.430   .     S
C804   C94     1.401   1_565 S
C804   C107    1.418   1_565 S
C805   C827    1.418   .     A
C805   N1020   1.430   .     S
C805   C818    1.401   .     S
C806   N1021   1.430   .     S
C806   C819    1.401   .     A
C806   C1192   1.418   1_455 S
C807   C829    1.418   .     A
C807   N1022   1.430   .     S
C807   C820    1.401   .     S
C808   N1023   1.430   .     S
C808   C822    1.401   .     A
C809   C840    1.418   .     A
C809   N1024   1.430   .     S
C809   C823    1.401   .     S
C810   C825    1.457   .     S
C810   O1029   1.268   .     S
C810   O1033   1.268   .     S
C811   C841    1.418   .     A
C811   N994    1.431   .     S
C811   C96     1.401   1_565 S
C812   N995    1.431   .     S
C812   C842    1.418   .     A
C812   C1189   1.402   .     A
C813   C844    1.417   .     A
C813   N996    1.431   .     S
C813   C826    1.401   .     S
C814   C836    1.418   .     A
C814   C95     1.401   1_565 A
C814   N997    1.430   .     S
C815   N998    1.430   .     S
C815   C837    1.418   .     A
C815   C824    1.401   .     A
C816   N999    1.431   .     S
C816   C838    1.418   .     A
C816   C825    1.402   .     S
C817   C1190   1.401   .     A
C817   N1000   1.431   .     S
C817   C839    1.417   .     A
C818   C1165   1.401   1_455 A
C819   C1166   1.401   1_455 S
C821   O1030   1.267   .     A
C821   C826    1.454   .     S
C821   O1034   1.268   .     S
C823   C832    1.455   .     S
C824   C843    1.456   .     S
C825   C1176   1.402   1_455 A
C826   C1181   1.401   1_455 A
C827   C853    1.416   .     A
C827   C845    1.424   .     S
C828   C855    1.416   .     A
C828   C1210   1.424   .     A
C828   C1170   1.418   .     S
C829   C856    1.416   .     A
C830   C120    1.424   1_565 A
C830   C857    1.416   .     A
C830   C80     1.418   1_565 S
C831   C1209   1.424   .     A
C831   C858    1.416   .     A
C832   O1031   1.268   .     S
C832   O1035   1.268   .     S
C833   C859    1.416   .     A
C833   C1166   1.418   1_455 S
C833   C846    1.424   .     S
C834   C860    1.416   .     A
C834   C847    1.424   .     A
C835   C861    1.416   .     A
C835   C848    1.424   .     S
C836   C862    1.416   .     A
C836   C121    1.424   1_565 S
C837   C863    1.416   .     A
C837   C850    1.423   .     A
C838   C864    1.416   .     A
C838   C851    1.424   .     S
C839   C1216   1.424   .     A
C840   C849    1.424   .     A
C841   C122    1.423   1_565 S
C842   C1215   1.424   .     A
C843   O1037   1.268   .     A
C843   O1032   1.268   .     A
C844   C852    1.424   .     S
C845   C1195   1.424   1_455 A
C845   C846    1.418   .     A
C846   C1192   1.424   1_455 A
C847   C120    1.418   1_565 A
C847   C101    1.424   1_565 S
C849   C850    1.418   1_556 S
C850   C849    1.418   1_554 S
C851   C1206   1.424   1_455 A
C851   C852    1.418   1_556 S
C852   C1203   1.424   1_455 A
C852   C851    1.418   1_554 S
C853   C859    1.406   .     A
C853   N1365   1.426   1_455 S
C854   O1066   1.275   .     A
C854   O1038   1.275   .     A
C855   N1002   1.426   .     S
C855   C858    1.406   .     A
C856   N1003   1.426   .     S
C856   C861    1.406   .     A
C857   C860    1.406   .     A
C857   N1005   1.425   .     S
C858   N1370   1.426   .     S
C859   N1007   1.426   .     S
C860   N1008   1.426   .     S
C861   N1009   1.425   .     S
C862   N1010   1.426   .     S
C862   C733    1.406   1_556 S
C863   N1011   1.426   .     S
C863   C732    1.406   1_554 S
C864   N1012   1.425   .     S
C864   C735    1.405   1_556 S
H865   N993    1.031   .     S
H868   N1011   1.030   .     S
H872   N1012   1.030   .     S
H876   N1013   1.030   .     S
H877   C10     1.110   1_565 S
H881   N1014   1.030   .     S
H885   N1016   1.030   .     S
H890   N1017   1.030   .     S
H894   N1018   1.030   .     S
H898   N1019   1.031   .     S
H902   N1020   1.031   .     S
H904   C1104   1.110   1_455 S
H907   N1021   1.031   .     S
H911   N1022   1.031   .     S
H915   N1023   1.031   .     S
H916   C1100   1.110   .     S
H920   N1024   1.031   .     S
H924   N994    1.031   .     S
H929   N995    1.031   .     S
H933   N996    1.031   .     S
H937   N997    1.031   .     S
H938   N1004   1.031   .     S
H942   N998    1.031   .     S
H946   N999    1.031   .     S
H951   N1000   1.031   .     S
H955   N1365   1.030   1_455 S
H959   N1366   1.030   1_455 S
H964   N1003   1.030   .     S
H968   N1005   1.030   .     S
H973   N1370   1.030   .     S
H977   N1371   1.030   .     S
H981   N1008   1.030   .     S
H982   N1015   1.031   .     S
H986   N1009   1.030   .     S
H990   N1010   1.030   .     S
N993   C1100   1.450   .     S
N1001  C1217   1.426   .     S
N1001  H1319   1.030   .     S
N1002  H1323   1.030   .     S
N1004  C1101   1.450   .     S
N1006  H1337   1.030   1_455 S
N1006  C1222   1.426   1_455 S
N1007  H1341   1.030   1_455 S
N1008  C32     1.448   1_565 S
N1015  C10     1.450   1_565 S
N1019  C11     1.450   1_565 S
N1020  C1104   1.450   1_455 S
N1021  C1106   1.450   1_455 S
O1025  Zn1080  1.934   .     S
O1025  Zn1088  1.934   .     S
O1025  Zn1077  1.934   .     S
O1026  Zn1079  1.947   .     S
O1026  C49     1.268   1_565 S
O1027  Zn1082  1.947   .     S
O1027  C1152   1.268   .     A
O1028  Zn1081  1.947   .     S
O1029  Zn1091  1.947   .     S
O1030  Zn1090  1.947   .     S
O1031  Zn1085  1.947   .     S
O1032  Zn1077  1.947   .     S
O1033  Zn1087  1.947   .     S
O1034  Zn1086  1.947   .     S
O1035  Zn1089  1.947   .     S
O1036  Zn1083  1.934   .     S
O1036  Zn1085  1.934   .     S
O1036  Zn1089  1.934   .     S
O1037  Zn1088  1.947   .     S
O1038  Zn1080  1.915   .     S
O1039  Zn1079  1.915   .     S
O1040  Zn1082  1.914   .     S
O1041  Zn1081  1.914   .     S
O1042  Zn1084  1.915   .     S
O1043  Zn1083  1.915   .     S
O1044  Zn1078  1.914   .     S
O1045  Zn1092  1.914   .     S
O1046  Zn1079  1.914   .     S
O1047  Zn1078  1.934   .     S
O1047  Zn1086  1.934   .     S
O1047  Zn1090  1.934   .     S
O1047  Zn1446  1.934   1_455 S
O1048  Zn1080  1.914   .     S
O1049  Zn1092  1.914   .     S
O1050  Zn1078  1.914   .     S
O1051  Zn1083  1.914   .     S
O1052  Zn1084  1.914   .     S
O1053  Zn1081  1.914   .     S
O1054  Zn1082  1.914   .     S
O1055  Zn1451  1.915   .     S
O1056  Zn1086  1.915   .     S
O1057  Zn361   1.914   1_565 S
O1058  Zn1081  1.934   .     S
O1058  Zn1087  1.934   .     S
O1058  Zn1091  1.934   .     S
O1058  Zn1456  1.934   1_455 S
O1059  Zn1088  1.914   .     S
O1060  Zn1091  1.915   .     S
O1061  Zn1454  1.915   .     S
O1062  Zn1085  1.914   .     S
O1063  Zn349   1.914   1_565 S
O1064  Zn1450  1.914   .     S
O1065  Zn1087  1.914   .     S
O1066  Zn1077  1.914   .     S
O1067  Zn357   1.914   1_565 S
O1068  Zn1090  1.914   .     S
O1069  C1      1.268   1_565 A
O1069  Zn1084  1.947   .     S
O1070  Zn1455  1.914   .     S
O1071  Zn360   1.914   1_565 S
O1072  Zn1089  1.914   .     S
O1073  Zn1083  1.947   .     S
O1074  Zn1078  1.947   .     S
O1075  Zn1092  1.947   .     S
O1075  C1163   1.268   .     S
O1076  Zn1080  1.947   .     S
Zn1079 O308    1.934   1_565 S
Zn1082 O1411   1.934   .     S
Zn1084 O297    1.934   1_565 S
Zn1086 O1428   1.914   1_455 S
Zn1087 O1419   1.915   1_455 S
Zn1090 O1425   1.915   1_455 S
Zn1091 O1434   1.914   1_455 S
Zn1092 O1422   1.934   .     S
C1093  C1184   1.456   .     S
C1093  O1440   1.268   .     S
C1094  C1160   1.422   .     S
C1094  O1403   1.275   .     A
C1094  O1431   1.275   .     A
C1095  C1203   1.416   .     A
C1095  N1377   1.426   .     S
C1095  C1098   1.406   1_554 S
C1096  N1378   1.426   .     S
C1096  C1204   1.416   .     A
C1096  C1227   1.406   1_556 S
C1097  C1205   1.416   .     A
C1097  N1380   1.426   .     S
C1097  C1226   1.406   1_554 S
C1098  C1206   1.416   .     A
C1098  N1381   1.425   .     S
C1098  C1095   1.406   1_556 S
C1099  N1382   1.426   .     S
C1099  C1208   1.416   .     A
C1099  C1228   1.405   1_554 S
C1100  H1269   1.110   .     S
C1100  H1291   1.112   .     S
C1101  H1335   1.112   .     S
C1101  H1324   1.110   .     S
C1101  H1313   1.110   .     S
C1102  H1252   1.112   .     S
C1102  H1230   1.110   .     S
C1103  H1263   1.110   .     S
C1103  H1264   1.110   .     S
C1103  H1265   1.112   .     S
C1104  H1270   1.112   .     S
C1104  H1267   1.110   .     S
C1104  H904    1.110   1_655 S
C1104  N1020   1.450   1_655 S
C1105  O1428   1.275   .     A
C1105  C1159   1.421   .     S
C1105  O1404   1.275   .     A
C1106  H1274   1.112   .     S
C1106  H1272   1.110   .     S
C1106  H1273   1.110   .     S
C1106  N1021   1.450   1_655 S
C1107  H1276   1.110   .     S
C1107  H1278   1.112   .     S
C1107  H549    1.110   1_565 S
C1107  N658    1.450   1_565 S
C1108  H1281   1.110   .     S
C1108  H1283   1.112   .     S
C1108  H1282   1.110   .     S
C1108  N659    1.450   1_565 S
C1109  H1286   1.110   .     S
C1109  H1285   1.110   .     S
C1109  H1287   1.112   .     S
C1109  N1388   1.450   .     S
C1110  N1358   1.450   .     S
C1110  H1289   1.110   .     S
C1110  H1292   1.112   .     S
C1110  H1290   1.110   .     S
C1111  H1295   1.110   .     S
C1111  N1359   1.450   .     S
C1111  H1296   1.112   .     S
C1111  H1294   1.110   .     S
C1112  H1299   1.110   .     S
C1112  N1360   1.450   .     S
C1112  H1298   1.110   .     S
C1112  H1300   1.112   .     S
C1113  H1305   1.112   .     S
C1113  H1304   1.110   .     S
C1113  N1361   1.450   .     S
C1113  H1303   1.110   .     S
C1114  H1307   1.110   .     S
C1114  H1309   1.112   .     S
C1114  H1308   1.110   .     S
C1114  N1362   1.450   .     S
C1115  H1311   1.110   .     S
C1115  H1314   1.112   .     S
C1115  N1363   1.450   .     S
C1115  H1312   1.110   .     S
C1116  C1158   1.421   .     S
C1116  O1405   1.275   .     A
C1116  O1429   1.275   .     A
C1117  H1317   1.110   .     S
C1117  H1316   1.110   .     S
C1117  H1318   1.112   .     S
C1117  N1364   1.450   .     S
C1118  H1322   1.110   .     S
C1118  N1365   1.447   .     S
C1118  H1321   1.111   .     S
C1118  H1320   1.110   .     S
C1119  N1366   1.447   .     S
C1119  H1326   1.111   .     S
C1119  H1327   1.111   .     S
C1119  H1325   1.110   .     S
C1120  H1330   1.111   .     S
C1120  H1329   1.110   .     S
C1120  H1331   1.111   .     S
C1120  N639    1.448   1_565 S
C1121  N1369   1.447   .     S
C1121  H1334   1.111   .     S
C1121  H1336   1.111   .     S
C1121  H1333   1.110   .     S
C1122  H1340   1.110   .     S
C1122  H1338   1.110   .     S
C1122  N1370   1.447   .     S
C1122  H1339   1.111   .     S
C1123  H1343   1.111   .     S
C1123  H1344   1.111   .     S
C1123  N1371   1.447   .     S
C1123  H1342   1.110   .     S
C1124  H1347   1.110   .     S
C1124  H1348   1.111   .     S
C1124  H1349   1.111   .     S
C1125  H1351   1.110   .     S
C1125  H1353   1.111   .     S
C1125  N1373   1.447   .     S
C1125  H1352   1.111   .     S
C1126  N1374   1.447   .     S
C1126  H1355   1.110   .     S
C1126  H1356   1.111   .     S
C1126  H1231   1.110   .     S
C1127  C1157   1.422   .     S
C1127  O1406   1.275   .     A
C1127  O1435   1.275   .     A
C1128  H1234   1.111   .     S
C1128  N1375   1.447   .     S
C1128  H1233   1.110   .     S
C1128  H1235   1.111   .     S
C1129  H1239   1.111   .     S
C1129  N1376   1.447   .     S
C1129  H1238   1.111   .     S
C1129  H1237   1.110   .     S
C1130  H1243   1.111   .     S
C1130  H1244   1.110   .     S
C1130  H1242   1.111   .     S
C1130  N1377   1.447   .     S
C1131  H1246   1.110   .     S
C1131  H1247   1.111   .     S
C1131  N1378   1.447   .     S
C1131  H1248   1.110   .     S
C1132  N1380   1.447   .     S
C1132  H1251   1.111   .     S
C1132  H1250   1.110   .     S
C1132  H1253   1.111   .     S
C1133  H1256   1.111   .     S
C1133  H1255   1.110   .     S
C1133  H1257   1.111   .     S
C1133  N1381   1.447   .     S
C1134  N1382   1.447   .     S
C1134  H1259   1.111   .     S
C1134  H1260   1.111   .     S
C1134  H1261   1.110   .     S
C1135  C1156   1.422   .     S
C1135  O1407   1.275   .     A
C1135  O1436   1.275   .     A
C1136  O1432   1.275   .     A
C1136  O1408   1.275   .     A
C1136  C1164   1.421   .     S
C1137  O1409   1.275   .     A
C1137  C1162   1.421   .     S
C1137  O1434   1.275   .     A
C1138  O1421   1.275   .     A
C1138  C1153   1.421   .     S
C1138  O1410   1.275   .     A
C1139  O1423   1.275   .     A
C1139  C1151   1.421   .     S
C1139  O1412   1.275   .     A
C1140  O1419   1.275   .     A
C1140  C1150   1.422   .     S
C1140  O1413   1.275   .     A
C1141  O1437   1.268   .     A
C1141  C1186   1.455   .     S
C1142  C1149   1.422   .     S
C1142  O1414   1.275   .     A
C1142  O1420   1.275   .     A
C1143  O1426   1.275   .     A
C1143  O1415   1.275   .     A
C1143  C1148   1.421   .     S
C1144  O1416   1.275   .     A
C1144  C1147   1.421   .     S
C1144  O1427   1.275   .     A
C1145  O1424   1.275   .     A
C1145  O1417   1.275   .     A
C1145  C1155   1.422   .     S
C1146  C1154   1.422   .     S
C1146  O1425   1.275   .     A
C1146  O1418   1.275   .     A
C1147  C1164   1.198   .     T
C1148  C1162   1.198   .     T
C1149  C1161   1.198   .     T
C1150  C1160   1.198   .     T
C1151  C1159   1.198   .     T
C1152  C1182   1.456   .     S
C1152  O1438   1.268   .     S
C1153  C1158   1.198   .     T
C1154  C1157   1.198   .     T
C1155  C1156   1.198   .     T
C1161  C1218   1.422   .     S
C1163  C1183   1.456   .     S
C1163  O1392   1.268   .     A
C1165  C1195   1.418   .     A
C1165  C818    1.401   1_655 A
C1165  N1357   1.430   .     S
C1166  N1368   1.430   .     S
C1166  C819    1.401   1_655 S
C1166  C833    1.418   1_655 S
C1167  N1379   1.430   .     S
C1167  C1198   1.418   .     A
C1167  C456    1.401   1_565 A
C1168  N1383   1.430   .     S
C1168  C458    1.401   1_565 S
C1168  C471    1.418   1_565 S
C1169  C1191   1.418   .     A
C1169  N1384   1.430   .     S
C1169  C1182   1.401   .     S
C1170  N1385   1.430   .     S
C1170  C1183   1.401   .     A
C1171  C1193   1.418   .     A
C1171  N1386   1.430   .     S
C1171  C1184   1.401   .     S
C1172  N1387   1.430   .     S
C1172  C1186   1.401   .     A
C1173  C1204   1.418   .     A
C1173  N1388   1.430   .     S
C1173  C1187   1.401   .     S
C1174  C1189   1.457   .     S
C1174  O1393   1.268   .     S
C1174  O1397   1.268   .     S
C1175  C1205   1.418   .     A
C1175  N1358   1.431   .     S
C1175  C460    1.401   1_565 S
C1176  N1359   1.431   .     S
C1176  C1206   1.418   .     A
C1176  C825    1.402   1_655 A
C1177  C1208   1.417   .     A
C1177  N1360   1.431   .     S
C1177  C1190   1.401   .     S
C1178  C1200   1.418   .     A
C1178  C459    1.401   1_565 A
C1178  N1361   1.430   .     S
C1179  N1362   1.430   .     S
C1179  C1201   1.418   .     A
C1179  C1188   1.401   .     A
C1180  N1363   1.431   .     S
C1180  C1202   1.418   .     A
C1180  C1189   1.402   .     S
C1181  C826    1.401   1_655 A
C1181  N1364   1.431   .     S
C1181  C1203   1.417   .     A
C1185  O1394   1.267   .     A
C1185  C1190   1.454   .     S
C1185  O1398   1.268   .     S
C1187  C1196   1.455   .     S
C1188  C1207   1.456   .     S
C1191  C1217   1.416   .     A
C1191  C1209   1.424   .     S
C1192  C1219   1.416   .     A
C1192  C846    1.424   1_655 A
C1192  C806    1.418   1_655 S
C1193  C1220   1.416   .     A
C1194  C484    1.424   1_565 A
C1194  C1221   1.416   .     A
C1194  C444    1.418   1_565 S
C1195  C845    1.424   1_655 A
C1195  C1222   1.416   .     A
C1196  O1395   1.268   .     S
C1196  O1399   1.268   .     S
C1197  C1223   1.416   .     A
C1197  C1210   1.424   .     S
C1198  C1224   1.416   .     A
C1198  C1211   1.424   .     A
C1199  C1225   1.416   .     A
C1199  C1212   1.424   .     S
C1200  C1226   1.416   .     A
C1200  C485    1.424   1_565 S
C1201  C1227   1.416   .     A
C1201  C1214   1.423   .     A
C1202  C1228   1.416   .     A
C1202  C1215   1.424   .     S
C1203  C852    1.424   1_655 A
C1204  C1213   1.424   .     A
C1205  C486    1.423   1_565 S
C1206  C851    1.424   1_655 A
C1207  O1401   1.268   .     A
C1207  O1396   1.268   .     A
C1208  C1216   1.424   .     S
C1209  C1210   1.418   .     A
C1211  C484    1.418   1_565 A
C1211  C465    1.424   1_565 S
C1213  C1214   1.418   1_556 S
C1214  C1213   1.418   1_554 S
C1215  C1216   1.418   1_556 S
C1216  C1215   1.418   1_554 S
C1217  C1223   1.406   .     A
C1218  O1430   1.275   .     A
C1218  O1402   1.275   .     A
C1219  N1366   1.426   .     S
C1219  C1222   1.406   .     A
C1220  N1367   1.426   .     S
C1220  C1225   1.406   .     A
C1221  C1224   1.406   .     A
C1221  N1369   1.425   .     S
C1222  N1006   1.426   1_655 S
C1223  N1371   1.426   .     S
C1224  N1372   1.426   .     S
C1225  N1373   1.425   .     S
C1226  N1374   1.426   .     S
C1226  C1097   1.406   1_556 S
C1227  N1375   1.426   .     S
C1227  C1096   1.406   1_554 S
C1228  N1376   1.425   .     S
C1228  C1099   1.405   1_556 S
H1229  N1357   1.031   .     S
H1232  N1375   1.030   .     S
H1236  N1376   1.030   .     S
H1240  N1377   1.030   .     S
H1241  C374    1.110   1_565 S
H1245  N1378   1.030   .     S
H1249  N1380   1.030   .     S
H1254  N1381   1.030   .     S
H1258  N1382   1.030   .     S
H1262  N1383   1.031   .     S
H1266  N1384   1.031   .     S
H1271  N1385   1.031   .     S
H1275  N1386   1.031   .     S
H1279  N1387   1.031   .     S
H1280  C736    1.110   1_655 S
H1284  N1388   1.031   .     S
H1288  N1358   1.031   .     S
H1293  N1359   1.031   .     S
H1297  N1360   1.031   .     S
H1301  N1361   1.031   .     S
H1302  N1368   1.031   .     S
H1306  N1362   1.031   .     S
H1310  N1363   1.031   .     S
H1315  N1364   1.031   .     S
H1328  N1367   1.030   .     S
H1332  N1369   1.030   .     S
H1337  N1006   1.030   1_655 S
H1341  N1007   1.030   1_655 S
H1345  N1372   1.030   .     S
H1346  N1379   1.031   .     S
H1350  N1373   1.030   .     S
H1354  N1374   1.030   .     S
N1357  C736    1.450   1_655 S
N1365  C853    1.426   1_655 S
N1365  H955    1.030   1_655 S
N1366  H959    1.030   1_655 S
N1368  C737    1.450   1_655 S
N1372  C396    1.448   1_565 S
N1379  C374    1.450   1_565 S
N1383  C375    1.450   1_565 S
O1389  Zn1444  1.934   .     S
O1389  Zn1452  1.934   .     S
O1389  Zn1441  1.934   .     S
O1390  Zn1443  1.947   .     S
O1390  C413    1.268   1_565 S
O1391  Zn1446  1.947   .     S
O1391  C788    1.268   1_655 A
O1392  Zn1445  1.947   .     S
O1393  Zn1455  1.947   .     S
O1394  Zn1454  1.947   .     S
O1395  Zn1449  1.947   .     S
O1396  Zn1441  1.947   .     S
O1397  Zn1451  1.947   .     S
O1398  Zn1450  1.947   .     S
O1399  Zn1453  1.947   .     S
O1400  Zn1447  1.934   .     S
O1400  Zn1449  1.934   .     S
O1400  Zn1453  1.934   .     S
O1401  Zn1452  1.947   .     S
O1402  Zn1444  1.915   .     S
O1403  Zn1443  1.915   .     S
O1404  Zn1446  1.914   .     S
O1405  Zn1445  1.914   .     S
O1406  Zn1448  1.915   .     S
O1407  Zn1447  1.915   .     S
O1408  Zn1442  1.914   .     S
O1409  Zn1456  1.914   .     S
O1410  Zn1443  1.914   .     S
O1411  Zn1442  1.934   .     S
O1411  Zn1450  1.934   .     S
O1411  Zn1454  1.934   .     S
O1412  Zn1444  1.914   .     S
O1413  Zn1456  1.914   .     S
O1414  Zn1442  1.914   .     S
O1415  Zn1447  1.914   .     S
O1416  Zn1448  1.914   .     S
O1417  Zn1445  1.914   .     S
O1418  Zn1446  1.914   .     S
O1419  Zn1087  1.915   1_655 S
O1420  Zn1450  1.915   .     S
O1421  Zn725   1.914   1_565 S
O1422  Zn1445  1.934   .     S
O1422  Zn1451  1.934   .     S
O1422  Zn1455  1.934   .     S
O1423  Zn1452  1.914   .     S
O1424  Zn1455  1.915   .     S
O1425  Zn1090  1.915   1_655 S
O1426  Zn1449  1.914   .     S
O1427  Zn713   1.914   1_565 S
O1428  Zn1086  1.914   1_655 S
O1429  Zn1451  1.914   .     S
O1430  Zn1441  1.914   .     S
O1431  Zn721   1.914   1_565 S
O1432  Zn1454  1.914   .     S
O1433  C365    1.268   1_565 A
O1433  Zn1448  1.947   .     S
O1434  Zn1091  1.914   1_655 S
O1435  Zn724   1.914   1_565 S
O1436  Zn1453  1.914   .     S
O1437  Zn1447  1.947   .     S
O1438  Zn1442  1.947   .     S
O1439  Zn1456  1.947   .     S
O1439  C799    1.268   1_655 S
O1440  Zn1444  1.947   .     S
Zn1443 O672    1.934   1_565 S
Zn1446 O1047   1.934   1_655 S
Zn1448 O661    1.934   1_565 S
Zn1456 O1058   1.934   1_655 S
