data_str_m2_o10_o18_pcu_sym.52
_audit_creation_date              2020-01-03
_audit_creation_method            'Materials Studio'
_symmetry_space_group_name_H-M    'P1'
_symmetry_Int_Tables_number       1
_symmetry_cell_setting            triclinic
loop_
_symmetry_equiv_pos_as_xyz
  x,y,z
_cell_length_a                    22.3394
_cell_length_b                    26.0792
_cell_length_c                    31.3081
_cell_angle_alpha                 94.1934
_cell_angle_beta                  75.0266
_cell_angle_gamma                 103.2007
loop_
_atom_site_label
_atom_site_type_symbol
_atom_site_fract_x
_atom_site_fract_y
_atom_site_fract_z
_atom_site_U_iso_or_equiv
_atom_site_adp_type
_atom_site_occupancy
Br1    Br    0.04413   0.14499   0.10780   0.00000  Uiso   1.00
Br2    Br    0.24160   0.28180   0.41899   0.00000  Uiso   1.00
C3     C     0.18171   0.26671   0.25128   0.00000  Uiso   1.00
C4     C     0.20543   0.17153   0.16672   0.00000  Uiso   1.00
C5     C     0.10382   0.16133   0.38189   0.00000  Uiso   1.00
C6     C     0.22922   0.18469   0.11973   0.00000  Uiso   1.00
C7     C     0.01804   0.13969   0.44761   0.00000  Uiso   1.00
C8     C     0.29704   0.24455   0.06286   0.00000  Uiso   1.00
C9     C     0.03892   0.14453   0.40179   0.00000  Uiso   1.00
C10    C     0.28288   0.22492   0.10536   0.00000  Uiso   1.00
C11    C     0.14667   0.17626   0.40864   0.00000  Uiso   1.00
C12    C     0.19047   0.16449   0.09115   0.00000  Uiso   1.00
C13    C     0.12563   0.17713   0.45493   0.00000  Uiso   1.00
C14    C     0.15165   0.06662   0.24867   0.00000  Uiso   1.00
C15    C     0.19729   0.19002   0.05167   0.00000  Uiso   1.00
C16    C     0.06146   0.15402   0.47409   0.00000  Uiso   1.00
C17    C     0.25430   0.22780   0.03609   0.00000  Uiso   1.00
C18    C     0.16766   0.19669   0.48249   0.00000  Uiso   1.00
C19    C     0.14997   0.17909   0.02712   0.00000  Uiso   1.00
C20    C     0.08458   0.15534   0.04572   0.00000  Uiso   1.00
C21    C     0.22467   0.23566   0.46821   0.00000  Uiso   1.00
C22    C     0.04151   0.14480   0.01925   0.00000  Uiso   1.00
C23    C     0.26682   0.25039   0.49499   0.00000  Uiso   1.00
C24    C     0.19018   0.32269   0.25188   0.00000  Uiso   1.00
C25    C     0.14321   0.01064   0.24802   0.00000  Uiso   1.00
C26    C     0.12794   0.16301   0.33344   0.00000  Uiso   1.00
Cu27   Cu    0.10737   0.16108   0.24517   0.00000  Uiso   1.00
Cu28   Cu    0.22596   0.17225   0.25484   0.00000  Uiso   1.00
H29    H     0.32520   0.12824   0.03409   0.00000  Uiso   1.00
H30    H     0.19692   0.18507   0.39313   0.00000  Uiso   1.00
H31    H     0.23543   0.01317   0.25551   0.00000  Uiso   1.00
H32    H     0.09796   0.32016   0.24438   0.00000  Uiso   1.00
H33    H     0.30913   0.28099   0.48403   0.00000  Uiso   1.00
H34    H     0.31303   0.24178   0.12720   0.00000  Uiso   1.00
H35    H     0.00478   0.13296   0.38190   0.00000  Uiso   1.00
H36    H     0.30149   0.12395   0.46230   0.00000  Uiso   1.00
H37    H     0.00639   0.27471   0.05176   0.00000  Uiso   1.00
H38    H     0.00132   0.20538   0.28446   0.00000  Uiso   1.00
H39    H     0.33196   0.12787   0.21562   0.00000  Uiso   1.00
H40    H     0.15501   0.12894   0.10060   0.00000  Uiso   1.00
N41    N     0.31506   0.18068   0.26212   0.00000  Uiso   1.00
N42    N     0.01827   0.15265   0.23788   0.00000  Uiso   1.00
O43    O     0.12815   0.23809   0.24686   0.00000  Uiso   1.00
O44    O     0.20518   0.09524   0.25314   0.00000  Uiso   1.00
O45    O     0.22829   0.24753   0.25503   0.00000  Uiso   1.00
O46    O     0.10504   0.08580   0.24498   0.00000  Uiso   1.00
O47    O     0.08851   0.15930   0.30855   0.00000  Uiso   1.00
O48    O     0.24482   0.17403   0.19146   0.00000  Uiso   1.00
O49    O     0.18866   0.16874   0.31671   0.00000  Uiso   1.00
O50    O     0.14468   0.16460   0.18329   0.00000  Uiso   1.00
Br51   Br    0.37747   0.14499   0.10780   0.00000  Uiso   1.00
Br52   Br    0.57493   0.28180   0.41899   0.00000  Uiso   1.00
C53    C     0.51504   0.26671   0.25128   0.00000  Uiso   1.00
C54    C     0.53877   0.17153   0.16672   0.00000  Uiso   1.00
C55    C     0.43716   0.16133   0.38189   0.00000  Uiso   1.00
C56    C     0.56256   0.18469   0.11973   0.00000  Uiso   1.00
C57    C     0.35137   0.13969   0.44761   0.00000  Uiso   1.00
C58    C     0.63038   0.24455   0.06286   0.00000  Uiso   1.00
C59    C     0.37226   0.14453   0.40179   0.00000  Uiso   1.00
C60    C     0.61621   0.22492   0.10536   0.00000  Uiso   1.00
C61    C     0.48000   0.17626   0.40864   0.00000  Uiso   1.00
C62    C     0.52381   0.16449   0.09115   0.00000  Uiso   1.00
C63    C     0.45896   0.17713   0.45493   0.00000  Uiso   1.00
C64    C     0.48498   0.06662   0.24867   0.00000  Uiso   1.00
C65    C     0.53063   0.19002   0.05167   0.00000  Uiso   1.00
C66    C     0.39479   0.15402   0.47409   0.00000  Uiso   1.00
C67    C     0.58764   0.22780   0.03609   0.00000  Uiso   1.00
C68    C     0.50099   0.19669   0.48249   0.00000  Uiso   1.00
C69    C     0.48330   0.17909   0.02712   0.00000  Uiso   1.00
C70    C     0.41791   0.15534   0.04572   0.00000  Uiso   1.00
C71    C     0.55801   0.23566   0.46821   0.00000  Uiso   1.00
C72    C     0.37484   0.14480   0.01925   0.00000  Uiso   1.00
C73    C     0.60016   0.25039   0.49499   0.00000  Uiso   1.00
C74    C     0.52351   0.32269   0.25188   0.00000  Uiso   1.00
C75    C     0.47654   0.01064   0.24802   0.00000  Uiso   1.00
C76    C     0.46127   0.16301   0.33344   0.00000  Uiso   1.00
Cu77   Cu    0.44071   0.16108   0.24517   0.00000  Uiso   1.00
Cu78   Cu    0.55929   0.17225   0.25484   0.00000  Uiso   1.00
H79    H     0.65853   0.12824   0.03409   0.00000  Uiso   1.00
H80    H     0.53025   0.18507   0.39313   0.00000  Uiso   1.00
H81    H     0.56876   0.01317   0.25551   0.00000  Uiso   1.00
H82    H     0.43129   0.32016   0.24438   0.00000  Uiso   1.00
H83    H     0.64246   0.28099   0.48403   0.00000  Uiso   1.00
H84    H     0.64636   0.24178   0.12720   0.00000  Uiso   1.00
H85    H     0.33811   0.13296   0.38190   0.00000  Uiso   1.00
H86    H     0.63483   0.12395   0.46230   0.00000  Uiso   1.00
H87    H     0.33972   0.27471   0.05176   0.00000  Uiso   1.00
H88    H     0.33465   0.20538   0.28446   0.00000  Uiso   1.00
H89    H     0.66529   0.12787   0.21562   0.00000  Uiso   1.00
H90    H     0.48834   0.12894   0.10060   0.00000  Uiso   1.00
N91    N     0.64839   0.18068   0.26212   0.00000  Uiso   1.00
N92    N     0.35161   0.15265   0.23788   0.00000  Uiso   1.00
O93    O     0.46148   0.23809   0.24686   0.00000  Uiso   1.00
O94    O     0.53852   0.09524   0.25314   0.00000  Uiso   1.00
O95    O     0.56163   0.24753   0.25503   0.00000  Uiso   1.00
O96    O     0.43837   0.08580   0.24498   0.00000  Uiso   1.00
O97    O     0.42185   0.15930   0.30855   0.00000  Uiso   1.00
O98    O     0.57815   0.17403   0.19146   0.00000  Uiso   1.00
O99    O     0.52199   0.16874   0.31671   0.00000  Uiso   1.00
O100   O     0.47801   0.16460   0.18329   0.00000  Uiso   1.00
Br101  Br    0.71080   0.14499   0.10780   0.00000  Uiso   1.00
Br102  Br    0.90827   0.28180   0.41899   0.00000  Uiso   1.00
C103   C     0.84838   0.26671   0.25128   0.00000  Uiso   1.00
C104   C     0.87210   0.17153   0.16672   0.00000  Uiso   1.00
C105   C     0.77049   0.16133   0.38189   0.00000  Uiso   1.00
C106   C     0.89589   0.18469   0.11973   0.00000  Uiso   1.00
C107   C     0.68470   0.13969   0.44761   0.00000  Uiso   1.00
C108   C     0.96371   0.24455   0.06286   0.00000  Uiso   1.00
C109   C     0.70559   0.14453   0.40179   0.00000  Uiso   1.00
C110   C     0.94954   0.22492   0.10536   0.00000  Uiso   1.00
C111   C     0.81334   0.17626   0.40864   0.00000  Uiso   1.00
C112   C     0.85714   0.16449   0.09115   0.00000  Uiso   1.00
C113   C     0.79230   0.17713   0.45493   0.00000  Uiso   1.00
C114   C     0.81831   0.06662   0.24867   0.00000  Uiso   1.00
C115   C     0.86396   0.19002   0.05167   0.00000  Uiso   1.00
C116   C     0.72813   0.15402   0.47409   0.00000  Uiso   1.00
C117   C     0.92097   0.22780   0.03609   0.00000  Uiso   1.00
C118   C     0.83433   0.19669   0.48249   0.00000  Uiso   1.00
C119   C     0.81664   0.17909   0.02712   0.00000  Uiso   1.00
C120   C     0.75124   0.15534   0.04572   0.00000  Uiso   1.00
C121   C     0.89134   0.23566   0.46821   0.00000  Uiso   1.00
C122   C     0.70818   0.14480   0.01925   0.00000  Uiso   1.00
C123   C     0.93349   0.25039   0.49499   0.00000  Uiso   1.00
C124   C     0.85684   0.32269   0.25188   0.00000  Uiso   1.00
C125   C     0.80988   0.01064   0.24802   0.00000  Uiso   1.00
C126   C     0.79461   0.16301   0.33344   0.00000  Uiso   1.00
Cu127  Cu    0.77404   0.16108   0.24517   0.00000  Uiso   1.00
Cu128  Cu    0.89263   0.17225   0.25484   0.00000  Uiso   1.00
H129   H     0.99186   0.12824   0.03409   0.00000  Uiso   1.00
H130   H     0.86359   0.18507   0.39313   0.00000  Uiso   1.00
H131   H     0.90210   0.01317   0.25551   0.00000  Uiso   1.00
H132   H     0.76463   0.32016   0.24438   0.00000  Uiso   1.00
H133   H     0.97580   0.28099   0.48403   0.00000  Uiso   1.00
H134   H     0.97969   0.24178   0.12720   0.00000  Uiso   1.00
H135   H     0.67145   0.13296   0.38190   0.00000  Uiso   1.00
H136   H     0.96816   0.12395   0.46230   0.00000  Uiso   1.00
H137   H     0.67306   0.27471   0.05176   0.00000  Uiso   1.00
H138   H     0.66798   0.20538   0.28446   0.00000  Uiso   1.00
H139   H     0.99862   0.12787   0.21562   0.00000  Uiso   1.00
H140   H     0.82168   0.12894   0.10060   0.00000  Uiso   1.00
N141   N     0.98173   0.18068   0.26212   0.00000  Uiso   1.00
N142   N     0.68494   0.15265   0.23788   0.00000  Uiso   1.00
O143   O     0.79482   0.23809   0.24686   0.00000  Uiso   1.00
O144   O     0.87185   0.09524   0.25314   0.00000  Uiso   1.00
O145   O     0.89496   0.24753   0.25503   0.00000  Uiso   1.00
O146   O     0.77171   0.08580   0.24498   0.00000  Uiso   1.00
O147   O     0.75518   0.15930   0.30855   0.00000  Uiso   1.00
O148   O     0.91149   0.17403   0.19146   0.00000  Uiso   1.00
O149   O     0.85532   0.16874   0.31671   0.00000  Uiso   1.00
O150   O     0.81134   0.16460   0.18329   0.00000  Uiso   1.00
Br151  Br    0.04413   0.47832   0.10780   0.00000  Uiso   1.00
Br152  Br    0.24160   0.61513   0.41899   0.00000  Uiso   1.00
C153   C     0.18171   0.60005   0.25128   0.00000  Uiso   1.00
C154   C     0.20543   0.50486   0.16672   0.00000  Uiso   1.00
C155   C     0.10382   0.49466   0.38189   0.00000  Uiso   1.00
C156   C     0.22922   0.51803   0.11973   0.00000  Uiso   1.00
C157   C     0.01804   0.47302   0.44761   0.00000  Uiso   1.00
C158   C     0.29704   0.57788   0.06286   0.00000  Uiso   1.00
C159   C     0.03892   0.47786   0.40179   0.00000  Uiso   1.00
C160   C     0.28288   0.55825   0.10536   0.00000  Uiso   1.00
C161   C     0.14667   0.50959   0.40864   0.00000  Uiso   1.00
C162   C     0.19047   0.49782   0.09115   0.00000  Uiso   1.00
C163   C     0.12563   0.51046   0.45493   0.00000  Uiso   1.00
C164   C     0.15165   0.39995   0.24867   0.00000  Uiso   1.00
C165   C     0.19729   0.52335   0.05167   0.00000  Uiso   1.00
C166   C     0.06146   0.48735   0.47409   0.00000  Uiso   1.00
C167   C     0.25430   0.56113   0.03609   0.00000  Uiso   1.00
C168   C     0.16766   0.53002   0.48249   0.00000  Uiso   1.00
C169   C     0.14997   0.51242   0.02712   0.00000  Uiso   1.00
C170   C     0.08458   0.48867   0.04572   0.00000  Uiso   1.00
C171   C     0.22467   0.56900   0.46821   0.00000  Uiso   1.00
C172   C     0.04151   0.47813   0.01925   0.00000  Uiso   1.00
C173   C     0.26682   0.58372   0.49499   0.00000  Uiso   1.00
C174   C     0.19018   0.65602   0.25188   0.00000  Uiso   1.00
C175   C     0.14321   0.34397   0.24802   0.00000  Uiso   1.00
C176   C     0.12794   0.49634   0.33344   0.00000  Uiso   1.00
Cu177  Cu    0.10737   0.49441   0.24517   0.00000  Uiso   1.00
Cu178  Cu    0.22596   0.50559   0.25484   0.00000  Uiso   1.00
H179   H     0.32520   0.46157   0.03409   0.00000  Uiso   1.00
H180   H     0.19692   0.51840   0.39313   0.00000  Uiso   1.00
H181   H     0.23543   0.34650   0.25551   0.00000  Uiso   1.00
H182   H     0.09796   0.65350   0.24438   0.00000  Uiso   1.00
H183   H     0.30913   0.61433   0.48403   0.00000  Uiso   1.00
H184   H     0.31303   0.57511   0.12720   0.00000  Uiso   1.00
H185   H     0.00478   0.46630   0.38190   0.00000  Uiso   1.00
H186   H     0.30149   0.45729   0.46230   0.00000  Uiso   1.00
H187   H     0.00639   0.60804   0.05176   0.00000  Uiso   1.00
H188   H     0.00132   0.53871   0.28446   0.00000  Uiso   1.00
H189   H     0.33196   0.46121   0.21562   0.00000  Uiso   1.00
H190   H     0.15501   0.46227   0.10060   0.00000  Uiso   1.00
N191   N     0.31506   0.51401   0.26212   0.00000  Uiso   1.00
N192   N     0.01827   0.48599   0.23788   0.00000  Uiso   1.00
O193   O     0.12815   0.57142   0.24686   0.00000  Uiso   1.00
O194   O     0.20518   0.42858   0.25314   0.00000  Uiso   1.00
O195   O     0.22829   0.58086   0.25503   0.00000  Uiso   1.00
O196   O     0.10504   0.41914   0.24498   0.00000  Uiso   1.00
O197   O     0.08851   0.49263   0.30855   0.00000  Uiso   1.00
O198   O     0.24482   0.50737   0.19146   0.00000  Uiso   1.00
O199   O     0.18866   0.50207   0.31671   0.00000  Uiso   1.00
O200   O     0.14468   0.49793   0.18329   0.00000  Uiso   1.00
Br201  Br    0.37747   0.47832   0.10780   0.00000  Uiso   1.00
Br202  Br    0.57493   0.61513   0.41899   0.00000  Uiso   1.00
C203   C     0.51504   0.60005   0.25128   0.00000  Uiso   1.00
C204   C     0.53877   0.50486   0.16672   0.00000  Uiso   1.00
C205   C     0.43716   0.49466   0.38189   0.00000  Uiso   1.00
C206   C     0.56256   0.51803   0.11973   0.00000  Uiso   1.00
C207   C     0.35137   0.47302   0.44761   0.00000  Uiso   1.00
C208   C     0.63038   0.57788   0.06286   0.00000  Uiso   1.00
C209   C     0.37226   0.47786   0.40179   0.00000  Uiso   1.00
C210   C     0.61621   0.55825   0.10536   0.00000  Uiso   1.00
C211   C     0.48000   0.50959   0.40864   0.00000  Uiso   1.00
C212   C     0.52381   0.49782   0.09115   0.00000  Uiso   1.00
C213   C     0.45896   0.51046   0.45493   0.00000  Uiso   1.00
C214   C     0.48498   0.39995   0.24867   0.00000  Uiso   1.00
C215   C     0.53063   0.52335   0.05167   0.00000  Uiso   1.00
C216   C     0.39479   0.48735   0.47409   0.00000  Uiso   1.00
C217   C     0.58764   0.56113   0.03609   0.00000  Uiso   1.00
C218   C     0.50099   0.53002   0.48249   0.00000  Uiso   1.00
C219   C     0.48330   0.51242   0.02712   0.00000  Uiso   1.00
C220   C     0.41791   0.48867   0.04572   0.00000  Uiso   1.00
C221   C     0.55801   0.56900   0.46821   0.00000  Uiso   1.00
C222   C     0.37484   0.47813   0.01925   0.00000  Uiso   1.00
C223   C     0.60016   0.58372   0.49499   0.00000  Uiso   1.00
C224   C     0.52351   0.65602   0.25188   0.00000  Uiso   1.00
C225   C     0.47654   0.34397   0.24802   0.00000  Uiso   1.00
C226   C     0.46127   0.49634   0.33344   0.00000  Uiso   1.00
Cu227  Cu    0.44071   0.49441   0.24517   0.00000  Uiso   1.00
Cu228  Cu    0.55929   0.50559   0.25484   0.00000  Uiso   1.00
H229   H     0.65853   0.46157   0.03409   0.00000  Uiso   1.00
H230   H     0.53025   0.51840   0.39313   0.00000  Uiso   1.00
H231   H     0.56876   0.34650   0.25551   0.00000  Uiso   1.00
H232   H     0.43129   0.65350   0.24438   0.00000  Uiso   1.00
H233   H     0.64246   0.61433   0.48403   0.00000  Uiso   1.00
H234   H     0.64636   0.57511   0.12720   0.00000  Uiso   1.00
H235   H     0.33811   0.46630   0.38190   0.00000  Uiso   1.00
H236   H     0.63483   0.45729   0.46230   0.00000  Uiso   1.00
H237   H     0.33972   0.60804   0.05176   0.00000  Uiso   1.00
H238   H     0.33465   0.53871   0.28446   0.00000  Uiso   1.00
H239   H     0.66529   0.46121   0.21562   0.00000  Uiso   1.00
H240   H     0.48834   0.46227   0.10060   0.00000  Uiso   1.00
N241   N     0.64839   0.51401   0.26212   0.00000  Uiso   1.00
N242   N     0.35161   0.48599   0.23788   0.00000  Uiso   1.00
O243   O     0.46148   0.57142   0.24686   0.00000  Uiso   1.00
O244   O     0.53852   0.42858   0.25314   0.00000  Uiso   1.00
O245   O     0.56163   0.58086   0.25503   0.00000  Uiso   1.00
O246   O     0.43837   0.41914   0.24498   0.00000  Uiso   1.00
O247   O     0.42185   0.49263   0.30855   0.00000  Uiso   1.00
O248   O     0.57815   0.50737   0.19146   0.00000  Uiso   1.00
O249   O     0.52199   0.50207   0.31671   0.00000  Uiso   1.00
O250   O     0.47801   0.49793   0.18329   0.00000  Uiso   1.00
Br251  Br    0.71080   0.47832   0.10780   0.00000  Uiso   1.00
Br252  Br    0.90827   0.61513   0.41899   0.00000  Uiso   1.00
C253   C     0.84838   0.60005   0.25128   0.00000  Uiso   1.00
C254   C     0.87210   0.50486   0.16672   0.00000  Uiso   1.00
C255   C     0.77049   0.49466   0.38189   0.00000  Uiso   1.00
C256   C     0.89589   0.51803   0.11973   0.00000  Uiso   1.00
C257   C     0.68470   0.47302   0.44761   0.00000  Uiso   1.00
C258   C     0.96371   0.57788   0.06286   0.00000  Uiso   1.00
C259   C     0.70559   0.47786   0.40179   0.00000  Uiso   1.00
C260   C     0.94954   0.55825   0.10536   0.00000  Uiso   1.00
C261   C     0.81334   0.50959   0.40864   0.00000  Uiso   1.00
C262   C     0.85714   0.49782   0.09115   0.00000  Uiso   1.00
C263   C     0.79230   0.51046   0.45493   0.00000  Uiso   1.00
C264   C     0.81831   0.39995   0.24867   0.00000  Uiso   1.00
C265   C     0.86396   0.52335   0.05167   0.00000  Uiso   1.00
C266   C     0.72813   0.48735   0.47409   0.00000  Uiso   1.00
C267   C     0.92097   0.56113   0.03609   0.00000  Uiso   1.00
C268   C     0.83433   0.53002   0.48249   0.00000  Uiso   1.00
C269   C     0.81664   0.51242   0.02712   0.00000  Uiso   1.00
C270   C     0.75124   0.48867   0.04572   0.00000  Uiso   1.00
C271   C     0.89134   0.56900   0.46821   0.00000  Uiso   1.00
C272   C     0.70818   0.47813   0.01925   0.00000  Uiso   1.00
C273   C     0.93349   0.58372   0.49499   0.00000  Uiso   1.00
C274   C     0.85684   0.65602   0.25188   0.00000  Uiso   1.00
C275   C     0.80988   0.34397   0.24802   0.00000  Uiso   1.00
C276   C     0.79461   0.49634   0.33344   0.00000  Uiso   1.00
Cu277  Cu    0.77404   0.49441   0.24517   0.00000  Uiso   1.00
Cu278  Cu    0.89263   0.50559   0.25484   0.00000  Uiso   1.00
H279   H     0.99186   0.46157   0.03409   0.00000  Uiso   1.00
H280   H     0.86359   0.51840   0.39313   0.00000  Uiso   1.00
H281   H     0.90210   0.34650   0.25551   0.00000  Uiso   1.00
H282   H     0.76463   0.65350   0.24438   0.00000  Uiso   1.00
H283   H     0.97580   0.61433   0.48403   0.00000  Uiso   1.00
H284   H     0.97969   0.57511   0.12720   0.00000  Uiso   1.00
H285   H     0.67145   0.46630   0.38190   0.00000  Uiso   1.00
H286   H     0.96816   0.45729   0.46230   0.00000  Uiso   1.00
H287   H     0.67306   0.60804   0.05176   0.00000  Uiso   1.00
H288   H     0.66798   0.53871   0.28446   0.00000  Uiso   1.00
H289   H     0.99862   0.46121   0.21562   0.00000  Uiso   1.00
H290   H     0.82168   0.46227   0.10060   0.00000  Uiso   1.00
N291   N     0.98173   0.51401   0.26212   0.00000  Uiso   1.00
N292   N     0.68494   0.48599   0.23788   0.00000  Uiso   1.00
O293   O     0.79482   0.57142   0.24686   0.00000  Uiso   1.00
O294   O     0.87185   0.42858   0.25314   0.00000  Uiso   1.00
O295   O     0.89496   0.58086   0.25503   0.00000  Uiso   1.00
O296   O     0.77171   0.41914   0.24498   0.00000  Uiso   1.00
O297   O     0.75518   0.49263   0.30855   0.00000  Uiso   1.00
O298   O     0.91149   0.50737   0.19146   0.00000  Uiso   1.00
O299   O     0.85532   0.50207   0.31671   0.00000  Uiso   1.00
O300   O     0.81134   0.49793   0.18329   0.00000  Uiso   1.00
Br301  Br    0.04413   0.81165   0.10780   0.00000  Uiso   1.00
Br302  Br    0.24160   0.94847   0.41899   0.00000  Uiso   1.00
C303   C     0.18171   0.93338   0.25128   0.00000  Uiso   1.00
C304   C     0.20543   0.83819   0.16672   0.00000  Uiso   1.00
C305   C     0.10382   0.82800   0.38189   0.00000  Uiso   1.00
C306   C     0.22922   0.85136   0.11973   0.00000  Uiso   1.00
C307   C     0.01804   0.80636   0.44761   0.00000  Uiso   1.00
C308   C     0.29704   0.91121   0.06286   0.00000  Uiso   1.00
C309   C     0.03892   0.81119   0.40179   0.00000  Uiso   1.00
C310   C     0.28288   0.89159   0.10536   0.00000  Uiso   1.00
C311   C     0.14667   0.84292   0.40864   0.00000  Uiso   1.00
C312   C     0.19047   0.83115   0.09115   0.00000  Uiso   1.00
C313   C     0.12563   0.84379   0.45493   0.00000  Uiso   1.00
C314   C     0.15165   0.73329   0.24867   0.00000  Uiso   1.00
C315   C     0.19729   0.85669   0.05167   0.00000  Uiso   1.00
C316   C     0.06146   0.82068   0.47409   0.00000  Uiso   1.00
C317   C     0.25430   0.89446   0.03609   0.00000  Uiso   1.00
C318   C     0.16766   0.86336   0.48249   0.00000  Uiso   1.00
C319   C     0.14997   0.84576   0.02712   0.00000  Uiso   1.00
C320   C     0.08458   0.82200   0.04572   0.00000  Uiso   1.00
C321   C     0.22467   0.90233   0.46821   0.00000  Uiso   1.00
C322   C     0.04151   0.81146   0.01925   0.00000  Uiso   1.00
C323   C     0.26682   0.91705   0.49499   0.00000  Uiso   1.00
C324   C     0.19018   0.98936   0.25188   0.00000  Uiso   1.00
C325   C     0.14321   0.67731   0.24802   0.00000  Uiso   1.00
C326   C     0.12794   0.82968   0.33344   0.00000  Uiso   1.00
Cu327  Cu    0.10737   0.82775   0.24517   0.00000  Uiso   1.00
Cu328  Cu    0.22596   0.83892   0.25484   0.00000  Uiso   1.00
H329   H     0.32520   0.79491   0.03409   0.00000  Uiso   1.00
H330   H     0.19692   0.85174   0.39313   0.00000  Uiso   1.00
H331   H     0.23543   0.67983   0.25551   0.00000  Uiso   1.00
H332   H     0.09796   0.98683   0.24438   0.00000  Uiso   1.00
H333   H     0.30913   0.94766   0.48403   0.00000  Uiso   1.00
H334   H     0.31303   0.90845   0.12720   0.00000  Uiso   1.00
H335   H     0.00478   0.79963   0.38190   0.00000  Uiso   1.00
H336   H     0.30149   0.79062   0.46230   0.00000  Uiso   1.00
H337   H     0.00639   0.94137   0.05176   0.00000  Uiso   1.00
H338   H     0.00132   0.87205   0.28446   0.00000  Uiso   1.00
H339   H     0.33196   0.79454   0.21562   0.00000  Uiso   1.00
H340   H     0.15501   0.79561   0.10060   0.00000  Uiso   1.00
N341   N     0.31506   0.84735   0.26212   0.00000  Uiso   1.00
N342   N     0.01827   0.81932   0.23788   0.00000  Uiso   1.00
O343   O     0.12815   0.90476   0.24686   0.00000  Uiso   1.00
O344   O     0.20518   0.76191   0.25314   0.00000  Uiso   1.00
O345   O     0.22829   0.91420   0.25503   0.00000  Uiso   1.00
O346   O     0.10504   0.75247   0.24498   0.00000  Uiso   1.00
O347   O     0.08851   0.82597   0.30855   0.00000  Uiso   1.00
O348   O     0.24482   0.84070   0.19146   0.00000  Uiso   1.00
O349   O     0.18866   0.83540   0.31671   0.00000  Uiso   1.00
O350   O     0.14468   0.83126   0.18329   0.00000  Uiso   1.00
Br351  Br    0.37747   0.81165   0.10780   0.00000  Uiso   1.00
Br352  Br    0.57493   0.94847   0.41899   0.00000  Uiso   1.00
C353   C     0.51504   0.93338   0.25128   0.00000  Uiso   1.00
C354   C     0.53877   0.83819   0.16672   0.00000  Uiso   1.00
C355   C     0.43716   0.82800   0.38189   0.00000  Uiso   1.00
C356   C     0.56256   0.85136   0.11973   0.00000  Uiso   1.00
C357   C     0.35137   0.80636   0.44761   0.00000  Uiso   1.00
C358   C     0.63038   0.91121   0.06286   0.00000  Uiso   1.00
C359   C     0.37226   0.81119   0.40179   0.00000  Uiso   1.00
C360   C     0.61621   0.89159   0.10536   0.00000  Uiso   1.00
C361   C     0.48000   0.84292   0.40864   0.00000  Uiso   1.00
C362   C     0.52381   0.83115   0.09115   0.00000  Uiso   1.00
C363   C     0.45896   0.84379   0.45493   0.00000  Uiso   1.00
C364   C     0.48498   0.73329   0.24867   0.00000  Uiso   1.00
C365   C     0.53063   0.85669   0.05167   0.00000  Uiso   1.00
C366   C     0.39479   0.82068   0.47409   0.00000  Uiso   1.00
C367   C     0.58764   0.89446   0.03609   0.00000  Uiso   1.00
C368   C     0.50099   0.86336   0.48249   0.00000  Uiso   1.00
C369   C     0.48330   0.84576   0.02712   0.00000  Uiso   1.00
C370   C     0.41791   0.82200   0.04572   0.00000  Uiso   1.00
C371   C     0.55801   0.90233   0.46821   0.00000  Uiso   1.00
C372   C     0.37484   0.81146   0.01925   0.00000  Uiso   1.00
C373   C     0.60016   0.91705   0.49499   0.00000  Uiso   1.00
C374   C     0.52351   0.98936   0.25188   0.00000  Uiso   1.00
C375   C     0.47654   0.67731   0.24802   0.00000  Uiso   1.00
C376   C     0.46127   0.82968   0.33344   0.00000  Uiso   1.00
Cu377  Cu    0.44071   0.82775   0.24517   0.00000  Uiso   1.00
Cu378  Cu    0.55929   0.83892   0.25484   0.00000  Uiso   1.00
H379   H     0.65853   0.79491   0.03409   0.00000  Uiso   1.00
H380   H     0.53025   0.85174   0.39313   0.00000  Uiso   1.00
H381   H     0.56876   0.67983   0.25551   0.00000  Uiso   1.00
H382   H     0.43129   0.98683   0.24438   0.00000  Uiso   1.00
H383   H     0.64246   0.94766   0.48403   0.00000  Uiso   1.00
H384   H     0.64636   0.90845   0.12720   0.00000  Uiso   1.00
H385   H     0.33811   0.79963   0.38190   0.00000  Uiso   1.00
H386   H     0.63483   0.79062   0.46230   0.00000  Uiso   1.00
H387   H     0.33972   0.94137   0.05176   0.00000  Uiso   1.00
H388   H     0.33465   0.87205   0.28446   0.00000  Uiso   1.00
H389   H     0.66529   0.79454   0.21562   0.00000  Uiso   1.00
H390   H     0.48834   0.79561   0.10060   0.00000  Uiso   1.00
N391   N     0.64839   0.84735   0.26212   0.00000  Uiso   1.00
N392   N     0.35161   0.81932   0.23788   0.00000  Uiso   1.00
O393   O     0.46148   0.90476   0.24686   0.00000  Uiso   1.00
O394   O     0.53852   0.76191   0.25314   0.00000  Uiso   1.00
O395   O     0.56163   0.91420   0.25503   0.00000  Uiso   1.00
O396   O     0.43837   0.75247   0.24498   0.00000  Uiso   1.00
O397   O     0.42185   0.82597   0.30855   0.00000  Uiso   1.00
O398   O     0.57815   0.84070   0.19146   0.00000  Uiso   1.00
O399   O     0.52199   0.83540   0.31671   0.00000  Uiso   1.00
O400   O     0.47801   0.83126   0.18329   0.00000  Uiso   1.00
Br401  Br    0.71080   0.81165   0.10780   0.00000  Uiso   1.00
Br402  Br    0.90827   0.94847   0.41899   0.00000  Uiso   1.00
C403   C     0.84838   0.93338   0.25128   0.00000  Uiso   1.00
C404   C     0.87210   0.83819   0.16672   0.00000  Uiso   1.00
C405   C     0.77049   0.82800   0.38189   0.00000  Uiso   1.00
C406   C     0.89589   0.85136   0.11973   0.00000  Uiso   1.00
C407   C     0.68470   0.80636   0.44761   0.00000  Uiso   1.00
C408   C     0.96371   0.91121   0.06286   0.00000  Uiso   1.00
C409   C     0.70559   0.81119   0.40179   0.00000  Uiso   1.00
C410   C     0.94954   0.89159   0.10536   0.00000  Uiso   1.00
C411   C     0.81334   0.84292   0.40864   0.00000  Uiso   1.00
C412   C     0.85714   0.83115   0.09115   0.00000  Uiso   1.00
C413   C     0.79230   0.84379   0.45493   0.00000  Uiso   1.00
C414   C     0.81831   0.73329   0.24867   0.00000  Uiso   1.00
C415   C     0.86396   0.85669   0.05167   0.00000  Uiso   1.00
C416   C     0.72813   0.82068   0.47409   0.00000  Uiso   1.00
C417   C     0.92097   0.89446   0.03609   0.00000  Uiso   1.00
C418   C     0.83433   0.86336   0.48249   0.00000  Uiso   1.00
C419   C     0.81664   0.84576   0.02712   0.00000  Uiso   1.00
C420   C     0.75124   0.82200   0.04572   0.00000  Uiso   1.00
C421   C     0.89134   0.90233   0.46821   0.00000  Uiso   1.00
C422   C     0.70818   0.81146   0.01925   0.00000  Uiso   1.00
C423   C     0.93349   0.91705   0.49499   0.00000  Uiso   1.00
C424   C     0.85684   0.98936   0.25188   0.00000  Uiso   1.00
C425   C     0.80988   0.67731   0.24802   0.00000  Uiso   1.00
C426   C     0.79461   0.82968   0.33344   0.00000  Uiso   1.00
Cu427  Cu    0.77404   0.82775   0.24517   0.00000  Uiso   1.00
Cu428  Cu    0.89263   0.83892   0.25484   0.00000  Uiso   1.00
H429   H     0.99186   0.79491   0.03409   0.00000  Uiso   1.00
H430   H     0.86359   0.85174   0.39313   0.00000  Uiso   1.00
H431   H     0.90210   0.67983   0.25551   0.00000  Uiso   1.00
H432   H     0.76463   0.98683   0.24438   0.00000  Uiso   1.00
H433   H     0.97580   0.94766   0.48403   0.00000  Uiso   1.00
H434   H     0.97969   0.90845   0.12720   0.00000  Uiso   1.00
H435   H     0.67145   0.79963   0.38190   0.00000  Uiso   1.00
H436   H     0.96816   0.79062   0.46230   0.00000  Uiso   1.00
H437   H     0.67306   0.94137   0.05176   0.00000  Uiso   1.00
H438   H     0.66798   0.87205   0.28446   0.00000  Uiso   1.00
H439   H     0.99862   0.79454   0.21562   0.00000  Uiso   1.00
H440   H     0.82168   0.79561   0.10060   0.00000  Uiso   1.00
N441   N     0.98173   0.84735   0.26212   0.00000  Uiso   1.00
N442   N     0.68494   0.81932   0.23788   0.00000  Uiso   1.00
O443   O     0.79482   0.90476   0.24686   0.00000  Uiso   1.00
O444   O     0.87185   0.76191   0.25314   0.00000  Uiso   1.00
O445   O     0.89496   0.91420   0.25503   0.00000  Uiso   1.00
O446   O     0.77171   0.75247   0.24498   0.00000  Uiso   1.00
O447   O     0.75518   0.82597   0.30855   0.00000  Uiso   1.00
O448   O     0.91149   0.84070   0.19146   0.00000  Uiso   1.00
O449   O     0.85532   0.83540   0.31671   0.00000  Uiso   1.00
O450   O     0.81134   0.83126   0.18329   0.00000  Uiso   1.00
Br451  Br    0.04413   0.14499   0.60780   0.00000  Uiso   1.00
Br452  Br    0.24160   0.28180   0.91899   0.00000  Uiso   1.00
C453   C     0.18171   0.26671   0.75128   0.00000  Uiso   1.00
C454   C     0.20543   0.17153   0.66672   0.00000  Uiso   1.00
C455   C     0.10382   0.16133   0.88189   0.00000  Uiso   1.00
C456   C     0.22922   0.18469   0.61973   0.00000  Uiso   1.00
C457   C     0.01804   0.13969   0.94761   0.00000  Uiso   1.00
C458   C     0.29704   0.24455   0.56286   0.00000  Uiso   1.00
C459   C     0.03892   0.14453   0.90179   0.00000  Uiso   1.00
C460   C     0.28288   0.22492   0.60536   0.00000  Uiso   1.00
C461   C     0.14667   0.17626   0.90864   0.00000  Uiso   1.00
C462   C     0.19047   0.16449   0.59115   0.00000  Uiso   1.00
C463   C     0.12563   0.17713   0.95493   0.00000  Uiso   1.00
C464   C     0.15165   0.06662   0.74867   0.00000  Uiso   1.00
C465   C     0.19729   0.19002   0.55167   0.00000  Uiso   1.00
C466   C     0.06146   0.15402   0.97409   0.00000  Uiso   1.00
C467   C     0.25430   0.22780   0.53609   0.00000  Uiso   1.00
C468   C     0.16766   0.19669   0.98249   0.00000  Uiso   1.00
C469   C     0.14997   0.17909   0.52712   0.00000  Uiso   1.00
C470   C     0.08458   0.15534   0.54572   0.00000  Uiso   1.00
C471   C     0.22467   0.23566   0.96821   0.00000  Uiso   1.00
C472   C     0.04151   0.14480   0.51925   0.00000  Uiso   1.00
C473   C     0.26682   0.25039   0.99499   0.00000  Uiso   1.00
C474   C     0.19018   0.32269   0.75188   0.00000  Uiso   1.00
C475   C     0.14321   0.01064   0.74802   0.00000  Uiso   1.00
C476   C     0.12794   0.16301   0.83344   0.00000  Uiso   1.00
Cu477  Cu    0.10737   0.16108   0.74517   0.00000  Uiso   1.00
Cu478  Cu    0.22596   0.17225   0.75484   0.00000  Uiso   1.00
H479   H     0.32520   0.12824   0.53409   0.00000  Uiso   1.00
H480   H     0.19692   0.18507   0.89313   0.00000  Uiso   1.00
H481   H     0.23543   0.01317   0.75551   0.00000  Uiso   1.00
H482   H     0.09796   0.32016   0.74438   0.00000  Uiso   1.00
H483   H     0.30913   0.28099   0.98403   0.00000  Uiso   1.00
H484   H     0.31303   0.24178   0.62720   0.00000  Uiso   1.00
H485   H     0.00478   0.13296   0.88190   0.00000  Uiso   1.00
H486   H     0.30149   0.12395   0.96230   0.00000  Uiso   1.00
H487   H     0.00639   0.27471   0.55176   0.00000  Uiso   1.00
H488   H     0.00132   0.20538   0.78446   0.00000  Uiso   1.00
H489   H     0.33196   0.12787   0.71562   0.00000  Uiso   1.00
H490   H     0.15501   0.12894   0.60060   0.00000  Uiso   1.00
N491   N     0.31506   0.18068   0.76212   0.00000  Uiso   1.00
N492   N     0.01827   0.15265   0.73788   0.00000  Uiso   1.00
O493   O     0.12815   0.23809   0.74686   0.00000  Uiso   1.00
O494   O     0.20518   0.09524   0.75314   0.00000  Uiso   1.00
O495   O     0.22829   0.24753   0.75503   0.00000  Uiso   1.00
O496   O     0.10504   0.08580   0.74498   0.00000  Uiso   1.00
O497   O     0.08851   0.15930   0.80855   0.00000  Uiso   1.00
O498   O     0.24482   0.17403   0.69146   0.00000  Uiso   1.00
O499   O     0.18866   0.16874   0.81671   0.00000  Uiso   1.00
O500   O     0.14468   0.16460   0.68329   0.00000  Uiso   1.00
Br501  Br    0.37747   0.14499   0.60780   0.00000  Uiso   1.00
Br502  Br    0.57493   0.28180   0.91899   0.00000  Uiso   1.00
C503   C     0.51504   0.26671   0.75128   0.00000  Uiso   1.00
C504   C     0.53877   0.17153   0.66672   0.00000  Uiso   1.00
C505   C     0.43716   0.16133   0.88189   0.00000  Uiso   1.00
C506   C     0.56256   0.18469   0.61973   0.00000  Uiso   1.00
C507   C     0.35137   0.13969   0.94761   0.00000  Uiso   1.00
C508   C     0.63038   0.24455   0.56286   0.00000  Uiso   1.00
C509   C     0.37226   0.14453   0.90179   0.00000  Uiso   1.00
C510   C     0.61621   0.22492   0.60536   0.00000  Uiso   1.00
C511   C     0.48000   0.17626   0.90864   0.00000  Uiso   1.00
C512   C     0.52381   0.16449   0.59115   0.00000  Uiso   1.00
C513   C     0.45896   0.17713   0.95493   0.00000  Uiso   1.00
C514   C     0.48498   0.06662   0.74867   0.00000  Uiso   1.00
C515   C     0.53063   0.19002   0.55167   0.00000  Uiso   1.00
C516   C     0.39479   0.15402   0.97409   0.00000  Uiso   1.00
C517   C     0.58764   0.22780   0.53609   0.00000  Uiso   1.00
C518   C     0.50099   0.19669   0.98249   0.00000  Uiso   1.00
C519   C     0.48330   0.17909   0.52712   0.00000  Uiso   1.00
C520   C     0.41791   0.15534   0.54572   0.00000  Uiso   1.00
C521   C     0.55801   0.23566   0.96821   0.00000  Uiso   1.00
C522   C     0.37484   0.14480   0.51925   0.00000  Uiso   1.00
C523   C     0.60016   0.25039   0.99499   0.00000  Uiso   1.00
C524   C     0.52351   0.32269   0.75188   0.00000  Uiso   1.00
C525   C     0.47654   0.01064   0.74802   0.00000  Uiso   1.00
C526   C     0.46127   0.16301   0.83344   0.00000  Uiso   1.00
Cu527  Cu    0.44071   0.16108   0.74517   0.00000  Uiso   1.00
Cu528  Cu    0.55929   0.17225   0.75484   0.00000  Uiso   1.00
H529   H     0.65853   0.12824   0.53409   0.00000  Uiso   1.00
H530   H     0.53025   0.18507   0.89313   0.00000  Uiso   1.00
H531   H     0.56876   0.01317   0.75551   0.00000  Uiso   1.00
H532   H     0.43129   0.32016   0.74438   0.00000  Uiso   1.00
H533   H     0.64246   0.28099   0.98403   0.00000  Uiso   1.00
H534   H     0.64636   0.24178   0.62720   0.00000  Uiso   1.00
H535   H     0.33811   0.13296   0.88190   0.00000  Uiso   1.00
H536   H     0.63483   0.12395   0.96230   0.00000  Uiso   1.00
H537   H     0.33972   0.27471   0.55176   0.00000  Uiso   1.00
H538   H     0.33465   0.20538   0.78446   0.00000  Uiso   1.00
H539   H     0.66529   0.12787   0.71562   0.00000  Uiso   1.00
H540   H     0.48834   0.12894   0.60060   0.00000  Uiso   1.00
N541   N     0.64839   0.18068   0.76212   0.00000  Uiso   1.00
N542   N     0.35161   0.15265   0.73788   0.00000  Uiso   1.00
O543   O     0.46148   0.23809   0.74686   0.00000  Uiso   1.00
O544   O     0.53852   0.09524   0.75314   0.00000  Uiso   1.00
O545   O     0.56163   0.24753   0.75503   0.00000  Uiso   1.00
O546   O     0.43837   0.08580   0.74498   0.00000  Uiso   1.00
O547   O     0.42185   0.15930   0.80855   0.00000  Uiso   1.00
O548   O     0.57815   0.17403   0.69146   0.00000  Uiso   1.00
O549   O     0.52199   0.16874   0.81671   0.00000  Uiso   1.00
O550   O     0.47801   0.16460   0.68329   0.00000  Uiso   1.00
Br551  Br    0.71080   0.14499   0.60780   0.00000  Uiso   1.00
Br552  Br    0.90827   0.28180   0.91899   0.00000  Uiso   1.00
C553   C     0.84838   0.26671   0.75128   0.00000  Uiso   1.00
C554   C     0.87210   0.17153   0.66672   0.00000  Uiso   1.00
C555   C     0.77049   0.16133   0.88189   0.00000  Uiso   1.00
C556   C     0.89589   0.18469   0.61973   0.00000  Uiso   1.00
C557   C     0.68470   0.13969   0.94761   0.00000  Uiso   1.00
C558   C     0.96371   0.24455   0.56286   0.00000  Uiso   1.00
C559   C     0.70559   0.14453   0.90179   0.00000  Uiso   1.00
C560   C     0.94954   0.22492   0.60536   0.00000  Uiso   1.00
C561   C     0.81334   0.17626   0.90864   0.00000  Uiso   1.00
C562   C     0.85714   0.16449   0.59115   0.00000  Uiso   1.00
C563   C     0.79230   0.17713   0.95493   0.00000  Uiso   1.00
C564   C     0.81831   0.06662   0.74867   0.00000  Uiso   1.00
C565   C     0.86396   0.19002   0.55167   0.00000  Uiso   1.00
C566   C     0.72813   0.15402   0.97409   0.00000  Uiso   1.00
C567   C     0.92097   0.22780   0.53609   0.00000  Uiso   1.00
C568   C     0.83433   0.19669   0.98249   0.00000  Uiso   1.00
C569   C     0.81664   0.17909   0.52712   0.00000  Uiso   1.00
C570   C     0.75124   0.15534   0.54572   0.00000  Uiso   1.00
C571   C     0.89134   0.23566   0.96821   0.00000  Uiso   1.00
C572   C     0.70818   0.14480   0.51925   0.00000  Uiso   1.00
C573   C     0.93349   0.25039   0.99499   0.00000  Uiso   1.00
C574   C     0.85684   0.32269   0.75188   0.00000  Uiso   1.00
C575   C     0.80988   0.01064   0.74802   0.00000  Uiso   1.00
C576   C     0.79461   0.16301   0.83344   0.00000  Uiso   1.00
Cu577  Cu    0.77404   0.16108   0.74517   0.00000  Uiso   1.00
Cu578  Cu    0.89263   0.17225   0.75484   0.00000  Uiso   1.00
H579   H     0.99186   0.12824   0.53409   0.00000  Uiso   1.00
H580   H     0.86359   0.18507   0.89313   0.00000  Uiso   1.00
H581   H     0.90210   0.01317   0.75551   0.00000  Uiso   1.00
H582   H     0.76463   0.32016   0.74438   0.00000  Uiso   1.00
H583   H     0.97580   0.28099   0.98403   0.00000  Uiso   1.00
H584   H     0.97969   0.24178   0.62720   0.00000  Uiso   1.00
H585   H     0.67145   0.13296   0.88190   0.00000  Uiso   1.00
H586   H     0.96816   0.12395   0.96230   0.00000  Uiso   1.00
H587   H     0.67306   0.27471   0.55176   0.00000  Uiso   1.00
H588   H     0.66798   0.20538   0.78446   0.00000  Uiso   1.00
H589   H     0.99862   0.12787   0.71562   0.00000  Uiso   1.00
H590   H     0.82168   0.12894   0.60060   0.00000  Uiso   1.00
N591   N     0.98173   0.18068   0.76212   0.00000  Uiso   1.00
N592   N     0.68494   0.15265   0.73788   0.00000  Uiso   1.00
O593   O     0.79482   0.23809   0.74686   0.00000  Uiso   1.00
O594   O     0.87185   0.09524   0.75314   0.00000  Uiso   1.00
O595   O     0.89496   0.24753   0.75503   0.00000  Uiso   1.00
O596   O     0.77171   0.08580   0.74498   0.00000  Uiso   1.00
O597   O     0.75518   0.15930   0.80855   0.00000  Uiso   1.00
O598   O     0.91149   0.17403   0.69146   0.00000  Uiso   1.00
O599   O     0.85532   0.16874   0.81671   0.00000  Uiso   1.00
O600   O     0.81134   0.16460   0.68329   0.00000  Uiso   1.00
Br601  Br    0.04413   0.47832   0.60780   0.00000  Uiso   1.00
Br602  Br    0.24160   0.61513   0.91899   0.00000  Uiso   1.00
C603   C     0.18171   0.60005   0.75128   0.00000  Uiso   1.00
C604   C     0.20543   0.50486   0.66672   0.00000  Uiso   1.00
C605   C     0.10382   0.49466   0.88189   0.00000  Uiso   1.00
C606   C     0.22922   0.51803   0.61973   0.00000  Uiso   1.00
C607   C     0.01804   0.47302   0.94761   0.00000  Uiso   1.00
C608   C     0.29704   0.57788   0.56286   0.00000  Uiso   1.00
C609   C     0.03892   0.47786   0.90179   0.00000  Uiso   1.00
C610   C     0.28288   0.55825   0.60536   0.00000  Uiso   1.00
C611   C     0.14667   0.50959   0.90864   0.00000  Uiso   1.00
C612   C     0.19047   0.49782   0.59115   0.00000  Uiso   1.00
C613   C     0.12563   0.51046   0.95493   0.00000  Uiso   1.00
C614   C     0.15165   0.39995   0.74867   0.00000  Uiso   1.00
C615   C     0.19729   0.52335   0.55167   0.00000  Uiso   1.00
C616   C     0.06146   0.48735   0.97409   0.00000  Uiso   1.00
C617   C     0.25430   0.56113   0.53609   0.00000  Uiso   1.00
C618   C     0.16766   0.53002   0.98249   0.00000  Uiso   1.00
C619   C     0.14997   0.51242   0.52712   0.00000  Uiso   1.00
C620   C     0.08458   0.48867   0.54572   0.00000  Uiso   1.00
C621   C     0.22467   0.56900   0.96821   0.00000  Uiso   1.00
C622   C     0.04151   0.47813   0.51925   0.00000  Uiso   1.00
C623   C     0.26682   0.58372   0.99499   0.00000  Uiso   1.00
C624   C     0.19018   0.65602   0.75188   0.00000  Uiso   1.00
C625   C     0.14321   0.34397   0.74802   0.00000  Uiso   1.00
C626   C     0.12794   0.49634   0.83344   0.00000  Uiso   1.00
Cu627  Cu    0.10737   0.49441   0.74517   0.00000  Uiso   1.00
Cu628  Cu    0.22596   0.50559   0.75484   0.00000  Uiso   1.00
H629   H     0.32520   0.46157   0.53409   0.00000  Uiso   1.00
H630   H     0.19692   0.51840   0.89313   0.00000  Uiso   1.00
H631   H     0.23543   0.34650   0.75551   0.00000  Uiso   1.00
H632   H     0.09796   0.65350   0.74438   0.00000  Uiso   1.00
H633   H     0.30913   0.61433   0.98403   0.00000  Uiso   1.00
H634   H     0.31303   0.57511   0.62720   0.00000  Uiso   1.00
H635   H     0.00478   0.46630   0.88190   0.00000  Uiso   1.00
H636   H     0.30149   0.45729   0.96230   0.00000  Uiso   1.00
H637   H     0.00639   0.60804   0.55176   0.00000  Uiso   1.00
H638   H     0.00132   0.53871   0.78446   0.00000  Uiso   1.00
H639   H     0.33196   0.46121   0.71562   0.00000  Uiso   1.00
H640   H     0.15501   0.46227   0.60060   0.00000  Uiso   1.00
N641   N     0.31506   0.51401   0.76212   0.00000  Uiso   1.00
N642   N     0.01827   0.48599   0.73788   0.00000  Uiso   1.00
O643   O     0.12815   0.57142   0.74686   0.00000  Uiso   1.00
O644   O     0.20518   0.42858   0.75314   0.00000  Uiso   1.00
O645   O     0.22829   0.58086   0.75503   0.00000  Uiso   1.00
O646   O     0.10504   0.41914   0.74498   0.00000  Uiso   1.00
O647   O     0.08851   0.49263   0.80855   0.00000  Uiso   1.00
O648   O     0.24482   0.50737   0.69146   0.00000  Uiso   1.00
O649   O     0.18866   0.50207   0.81671   0.00000  Uiso   1.00
O650   O     0.14468   0.49793   0.68329   0.00000  Uiso   1.00
Br651  Br    0.37747   0.47832   0.60780   0.00000  Uiso   1.00
Br652  Br    0.57493   0.61513   0.91899   0.00000  Uiso   1.00
C653   C     0.51504   0.60005   0.75128   0.00000  Uiso   1.00
C654   C     0.53877   0.50486   0.66672   0.00000  Uiso   1.00
C655   C     0.43716   0.49466   0.88189   0.00000  Uiso   1.00
C656   C     0.56256   0.51803   0.61973   0.00000  Uiso   1.00
C657   C     0.35137   0.47302   0.94761   0.00000  Uiso   1.00
C658   C     0.63038   0.57788   0.56286   0.00000  Uiso   1.00
C659   C     0.37226   0.47786   0.90179   0.00000  Uiso   1.00
C660   C     0.61621   0.55825   0.60536   0.00000  Uiso   1.00
C661   C     0.48000   0.50959   0.90864   0.00000  Uiso   1.00
C662   C     0.52381   0.49782   0.59115   0.00000  Uiso   1.00
C663   C     0.45896   0.51046   0.95493   0.00000  Uiso   1.00
C664   C     0.48498   0.39995   0.74867   0.00000  Uiso   1.00
C665   C     0.53063   0.52335   0.55167   0.00000  Uiso   1.00
C666   C     0.39479   0.48735   0.97409   0.00000  Uiso   1.00
C667   C     0.58764   0.56113   0.53609   0.00000  Uiso   1.00
C668   C     0.50099   0.53002   0.98249   0.00000  Uiso   1.00
C669   C     0.48330   0.51242   0.52712   0.00000  Uiso   1.00
C670   C     0.41791   0.48867   0.54572   0.00000  Uiso   1.00
C671   C     0.55801   0.56900   0.96821   0.00000  Uiso   1.00
C672   C     0.37484   0.47813   0.51925   0.00000  Uiso   1.00
C673   C     0.60016   0.58372   0.99499   0.00000  Uiso   1.00
C674   C     0.52351   0.65602   0.75188   0.00000  Uiso   1.00
C675   C     0.47654   0.34397   0.74802   0.00000  Uiso   1.00
C676   C     0.46127   0.49634   0.83344   0.00000  Uiso   1.00
Cu677  Cu    0.44071   0.49441   0.74517   0.00000  Uiso   1.00
Cu678  Cu    0.55929   0.50559   0.75484   0.00000  Uiso   1.00
H679   H     0.65853   0.46157   0.53409   0.00000  Uiso   1.00
H680   H     0.53025   0.51840   0.89313   0.00000  Uiso   1.00
H681   H     0.56876   0.34650   0.75551   0.00000  Uiso   1.00
H682   H     0.43129   0.65350   0.74438   0.00000  Uiso   1.00
H683   H     0.64246   0.61433   0.98403   0.00000  Uiso   1.00
H684   H     0.64636   0.57511   0.62720   0.00000  Uiso   1.00
H685   H     0.33811   0.46630   0.88190   0.00000  Uiso   1.00
H686   H     0.63483   0.45729   0.96230   0.00000  Uiso   1.00
H687   H     0.33972   0.60804   0.55176   0.00000  Uiso   1.00
H688   H     0.33465   0.53871   0.78446   0.00000  Uiso   1.00
H689   H     0.66529   0.46121   0.71562   0.00000  Uiso   1.00
H690   H     0.48834   0.46227   0.60060   0.00000  Uiso   1.00
N691   N     0.64839   0.51401   0.76212   0.00000  Uiso   1.00
N692   N     0.35161   0.48599   0.73788   0.00000  Uiso   1.00
O693   O     0.46148   0.57142   0.74686   0.00000  Uiso   1.00
O694   O     0.53852   0.42858   0.75314   0.00000  Uiso   1.00
O695   O     0.56163   0.58086   0.75503   0.00000  Uiso   1.00
O696   O     0.43837   0.41914   0.74498   0.00000  Uiso   1.00
O697   O     0.42185   0.49263   0.80855   0.00000  Uiso   1.00
O698   O     0.57815   0.50737   0.69146   0.00000  Uiso   1.00
O699   O     0.52199   0.50207   0.81671   0.00000  Uiso   1.00
O700   O     0.47801   0.49793   0.68329   0.00000  Uiso   1.00
Br701  Br    0.71080   0.47832   0.60780   0.00000  Uiso   1.00
Br702  Br    0.90827   0.61513   0.91899   0.00000  Uiso   1.00
C703   C     0.84838   0.60005   0.75128   0.00000  Uiso   1.00
C704   C     0.87210   0.50486   0.66672   0.00000  Uiso   1.00
C705   C     0.77049   0.49466   0.88189   0.00000  Uiso   1.00
C706   C     0.89589   0.51803   0.61973   0.00000  Uiso   1.00
C707   C     0.68470   0.47302   0.94761   0.00000  Uiso   1.00
C708   C     0.96371   0.57788   0.56286   0.00000  Uiso   1.00
C709   C     0.70559   0.47786   0.90179   0.00000  Uiso   1.00
C710   C     0.94954   0.55825   0.60536   0.00000  Uiso   1.00
C711   C     0.81334   0.50959   0.90864   0.00000  Uiso   1.00
C712   C     0.85714   0.49782   0.59115   0.00000  Uiso   1.00
C713   C     0.79230   0.51046   0.95493   0.00000  Uiso   1.00
C714   C     0.81831   0.39995   0.74867   0.00000  Uiso   1.00
C715   C     0.86396   0.52335   0.55167   0.00000  Uiso   1.00
C716   C     0.72813   0.48735   0.97409   0.00000  Uiso   1.00
C717   C     0.92097   0.56113   0.53609   0.00000  Uiso   1.00
C718   C     0.83433   0.53002   0.98249   0.00000  Uiso   1.00
C719   C     0.81664   0.51242   0.52712   0.00000  Uiso   1.00
C720   C     0.75124   0.48867   0.54572   0.00000  Uiso   1.00
C721   C     0.89134   0.56900   0.96821   0.00000  Uiso   1.00
C722   C     0.70818   0.47813   0.51925   0.00000  Uiso   1.00
C723   C     0.93349   0.58372   0.99499   0.00000  Uiso   1.00
C724   C     0.85684   0.65602   0.75188   0.00000  Uiso   1.00
C725   C     0.80988   0.34397   0.74802   0.00000  Uiso   1.00
C726   C     0.79461   0.49634   0.83344   0.00000  Uiso   1.00
Cu727  Cu    0.77404   0.49441   0.74517   0.00000  Uiso   1.00
Cu728  Cu    0.89263   0.50559   0.75484   0.00000  Uiso   1.00
H729   H     0.99186   0.46157   0.53409   0.00000  Uiso   1.00
H730   H     0.86359   0.51840   0.89313   0.00000  Uiso   1.00
H731   H     0.90210   0.34650   0.75551   0.00000  Uiso   1.00
H732   H     0.76463   0.65350   0.74438   0.00000  Uiso   1.00
H733   H     0.97580   0.61433   0.98403   0.00000  Uiso   1.00
H734   H     0.97969   0.57511   0.62720   0.00000  Uiso   1.00
H735   H     0.67145   0.46630   0.88190   0.00000  Uiso   1.00
H736   H     0.96816   0.45729   0.96230   0.00000  Uiso   1.00
H737   H     0.67306   0.60804   0.55176   0.00000  Uiso   1.00
H738   H     0.66798   0.53871   0.78446   0.00000  Uiso   1.00
H739   H     0.99862   0.46121   0.71562   0.00000  Uiso   1.00
H740   H     0.82168   0.46227   0.60060   0.00000  Uiso   1.00
N741   N     0.98173   0.51401   0.76212   0.00000  Uiso   1.00
N742   N     0.68494   0.48599   0.73788   0.00000  Uiso   1.00
O743   O     0.79482   0.57142   0.74686   0.00000  Uiso   1.00
O744   O     0.87185   0.42858   0.75314   0.00000  Uiso   1.00
O745   O     0.89496   0.58086   0.75503   0.00000  Uiso   1.00
O746   O     0.77171   0.41914   0.74498   0.00000  Uiso   1.00
O747   O     0.75518   0.49263   0.80855   0.00000  Uiso   1.00
O748   O     0.91149   0.50737   0.69146   0.00000  Uiso   1.00
O749   O     0.85532   0.50207   0.81671   0.00000  Uiso   1.00
O750   O     0.81134   0.49793   0.68329   0.00000  Uiso   1.00
Br751  Br    0.04413   0.81165   0.60780   0.00000  Uiso   1.00
Br752  Br    0.24160   0.94847   0.91899   0.00000  Uiso   1.00
C753   C     0.18171   0.93338   0.75128   0.00000  Uiso   1.00
C754   C     0.20543   0.83819   0.66672   0.00000  Uiso   1.00
C755   C     0.10382   0.82800   0.88189   0.00000  Uiso   1.00
C756   C     0.22922   0.85136   0.61973   0.00000  Uiso   1.00
C757   C     0.01804   0.80636   0.94761   0.00000  Uiso   1.00
C758   C     0.29704   0.91121   0.56286   0.00000  Uiso   1.00
C759   C     0.03892   0.81119   0.90179   0.00000  Uiso   1.00
C760   C     0.28288   0.89159   0.60536   0.00000  Uiso   1.00
C761   C     0.14667   0.84292   0.90864   0.00000  Uiso   1.00
C762   C     0.19047   0.83115   0.59115   0.00000  Uiso   1.00
C763   C     0.12563   0.84379   0.95493   0.00000  Uiso   1.00
C764   C     0.15165   0.73329   0.74867   0.00000  Uiso   1.00
C765   C     0.19729   0.85669   0.55167   0.00000  Uiso   1.00
C766   C     0.06146   0.82068   0.97409   0.00000  Uiso   1.00
C767   C     0.25430   0.89446   0.53609   0.00000  Uiso   1.00
C768   C     0.16766   0.86336   0.98249   0.00000  Uiso   1.00
C769   C     0.14997   0.84576   0.52712   0.00000  Uiso   1.00
C770   C     0.08458   0.82200   0.54572   0.00000  Uiso   1.00
C771   C     0.22467   0.90233   0.96821   0.00000  Uiso   1.00
C772   C     0.04151   0.81146   0.51925   0.00000  Uiso   1.00
C773   C     0.26682   0.91705   0.99499   0.00000  Uiso   1.00
C774   C     0.19018   0.98936   0.75188   0.00000  Uiso   1.00
C775   C     0.14321   0.67731   0.74802   0.00000  Uiso   1.00
C776   C     0.12794   0.82968   0.83344   0.00000  Uiso   1.00
Cu777  Cu    0.10737   0.82775   0.74517   0.00000  Uiso   1.00
Cu778  Cu    0.22596   0.83892   0.75484   0.00000  Uiso   1.00
H779   H     0.32520   0.79491   0.53409   0.00000  Uiso   1.00
H780   H     0.19692   0.85174   0.89313   0.00000  Uiso   1.00
H781   H     0.23543   0.67983   0.75551   0.00000  Uiso   1.00
H782   H     0.09796   0.98683   0.74438   0.00000  Uiso   1.00
H783   H     0.30913   0.94766   0.98403   0.00000  Uiso   1.00
H784   H     0.31303   0.90845   0.62720   0.00000  Uiso   1.00
H785   H     0.00478   0.79963   0.88190   0.00000  Uiso   1.00
H786   H     0.30149   0.79062   0.96230   0.00000  Uiso   1.00
H787   H     0.00639   0.94137   0.55176   0.00000  Uiso   1.00
H788   H     0.00132   0.87205   0.78446   0.00000  Uiso   1.00
H789   H     0.33196   0.79454   0.71562   0.00000  Uiso   1.00
H790   H     0.15501   0.79561   0.60060   0.00000  Uiso   1.00
N791   N     0.31506   0.84735   0.76212   0.00000  Uiso   1.00
N792   N     0.01827   0.81932   0.73788   0.00000  Uiso   1.00
O793   O     0.12815   0.90476   0.74686   0.00000  Uiso   1.00
O794   O     0.20518   0.76191   0.75314   0.00000  Uiso   1.00
O795   O     0.22829   0.91420   0.75503   0.00000  Uiso   1.00
O796   O     0.10504   0.75247   0.74498   0.00000  Uiso   1.00
O797   O     0.08851   0.82597   0.80855   0.00000  Uiso   1.00
O798   O     0.24482   0.84070   0.69146   0.00000  Uiso   1.00
O799   O     0.18866   0.83540   0.81671   0.00000  Uiso   1.00
O800   O     0.14468   0.83126   0.68329   0.00000  Uiso   1.00
Br801  Br    0.37747   0.81165   0.60780   0.00000  Uiso   1.00
Br802  Br    0.57493   0.94847   0.91899   0.00000  Uiso   1.00
C803   C     0.51504   0.93338   0.75128   0.00000  Uiso   1.00
C804   C     0.53877   0.83819   0.66672   0.00000  Uiso   1.00
C805   C     0.43716   0.82800   0.88189   0.00000  Uiso   1.00
C806   C     0.56256   0.85136   0.61973   0.00000  Uiso   1.00
C807   C     0.35137   0.80636   0.94761   0.00000  Uiso   1.00
C808   C     0.63038   0.91121   0.56286   0.00000  Uiso   1.00
C809   C     0.37226   0.81119   0.90179   0.00000  Uiso   1.00
C810   C     0.61621   0.89159   0.60536   0.00000  Uiso   1.00
C811   C     0.48000   0.84292   0.90864   0.00000  Uiso   1.00
C812   C     0.52381   0.83115   0.59115   0.00000  Uiso   1.00
C813   C     0.45896   0.84379   0.95493   0.00000  Uiso   1.00
C814   C     0.48498   0.73329   0.74867   0.00000  Uiso   1.00
C815   C     0.53063   0.85669   0.55167   0.00000  Uiso   1.00
C816   C     0.39479   0.82068   0.97409   0.00000  Uiso   1.00
C817   C     0.58764   0.89446   0.53609   0.00000  Uiso   1.00
C818   C     0.50099   0.86336   0.98249   0.00000  Uiso   1.00
C819   C     0.48330   0.84576   0.52712   0.00000  Uiso   1.00
C820   C     0.41791   0.82200   0.54572   0.00000  Uiso   1.00
C821   C     0.55801   0.90233   0.96821   0.00000  Uiso   1.00
C822   C     0.37484   0.81146   0.51925   0.00000  Uiso   1.00
C823   C     0.60016   0.91705   0.99499   0.00000  Uiso   1.00
C824   C     0.52351   0.98936   0.75188   0.00000  Uiso   1.00
C825   C     0.47654   0.67731   0.74802   0.00000  Uiso   1.00
C826   C     0.46127   0.82968   0.83344   0.00000  Uiso   1.00
Cu827  Cu    0.44071   0.82775   0.74517   0.00000  Uiso   1.00
Cu828  Cu    0.55929   0.83892   0.75484   0.00000  Uiso   1.00
H829   H     0.65853   0.79491   0.53409   0.00000  Uiso   1.00
H830   H     0.53025   0.85174   0.89313   0.00000  Uiso   1.00
H831   H     0.56876   0.67983   0.75551   0.00000  Uiso   1.00
H832   H     0.43129   0.98683   0.74438   0.00000  Uiso   1.00
H833   H     0.64246   0.94766   0.98403   0.00000  Uiso   1.00
H834   H     0.64636   0.90845   0.62720   0.00000  Uiso   1.00
H835   H     0.33811   0.79963   0.88190   0.00000  Uiso   1.00
H836   H     0.63483   0.79062   0.96230   0.00000  Uiso   1.00
H837   H     0.33972   0.94137   0.55176   0.00000  Uiso   1.00
H838   H     0.33465   0.87205   0.78446   0.00000  Uiso   1.00
H839   H     0.66529   0.79454   0.71562   0.00000  Uiso   1.00
H840   H     0.48834   0.79561   0.60060   0.00000  Uiso   1.00
N841   N     0.64839   0.84735   0.76212   0.00000  Uiso   1.00
N842   N     0.35161   0.81932   0.73788   0.00000  Uiso   1.00
O843   O     0.46148   0.90476   0.74686   0.00000  Uiso   1.00
O844   O     0.53852   0.76191   0.75314   0.00000  Uiso   1.00
O845   O     0.56163   0.91420   0.75503   0.00000  Uiso   1.00
O846   O     0.43837   0.75247   0.74498   0.00000  Uiso   1.00
O847   O     0.42185   0.82597   0.80855   0.00000  Uiso   1.00
O848   O     0.57815   0.84070   0.69146   0.00000  Uiso   1.00
O849   O     0.52199   0.83540   0.81671   0.00000  Uiso   1.00
O850   O     0.47801   0.83126   0.68329   0.00000  Uiso   1.00
Br851  Br    0.71080   0.81165   0.60780   0.00000  Uiso   1.00
Br852  Br    0.90827   0.94847   0.91899   0.00000  Uiso   1.00
C853   C     0.84838   0.93338   0.75128   0.00000  Uiso   1.00
C854   C     0.87210   0.83819   0.66672   0.00000  Uiso   1.00
C855   C     0.77049   0.82800   0.88189   0.00000  Uiso   1.00
C856   C     0.89589   0.85136   0.61973   0.00000  Uiso   1.00
C857   C     0.68470   0.80636   0.94761   0.00000  Uiso   1.00
C858   C     0.96371   0.91121   0.56286   0.00000  Uiso   1.00
C859   C     0.70559   0.81119   0.90179   0.00000  Uiso   1.00
C860   C     0.94954   0.89159   0.60536   0.00000  Uiso   1.00
C861   C     0.81334   0.84292   0.90864   0.00000  Uiso   1.00
C862   C     0.85714   0.83115   0.59115   0.00000  Uiso   1.00
C863   C     0.79230   0.84379   0.95493   0.00000  Uiso   1.00
C864   C     0.81831   0.73329   0.74867   0.00000  Uiso   1.00
C865   C     0.86396   0.85669   0.55167   0.00000  Uiso   1.00
C866   C     0.72813   0.82068   0.97409   0.00000  Uiso   1.00
C867   C     0.92097   0.89446   0.53609   0.00000  Uiso   1.00
C868   C     0.83433   0.86336   0.98249   0.00000  Uiso   1.00
C869   C     0.81664   0.84576   0.52712   0.00000  Uiso   1.00
C870   C     0.75124   0.82200   0.54572   0.00000  Uiso   1.00
C871   C     0.89134   0.90233   0.96821   0.00000  Uiso   1.00
C872   C     0.70818   0.81146   0.51925   0.00000  Uiso   1.00
C873   C     0.93349   0.91705   0.99499   0.00000  Uiso   1.00
C874   C     0.85684   0.98936   0.75188   0.00000  Uiso   1.00
C875   C     0.80988   0.67731   0.74802   0.00000  Uiso   1.00
C876   C     0.79461   0.82968   0.83344   0.00000  Uiso   1.00
Cu877  Cu    0.77404   0.82775   0.74517   0.00000  Uiso   1.00
Cu878  Cu    0.89263   0.83892   0.75484   0.00000  Uiso   1.00
H879   H     0.99186   0.79491   0.53409   0.00000  Uiso   1.00
H880   H     0.86359   0.85174   0.89313   0.00000  Uiso   1.00
H881   H     0.90210   0.67983   0.75551   0.00000  Uiso   1.00
H882   H     0.76463   0.98683   0.74438   0.00000  Uiso   1.00
H883   H     0.97580   0.94766   0.98403   0.00000  Uiso   1.00
H884   H     0.97969   0.90845   0.62720   0.00000  Uiso   1.00
H885   H     0.67145   0.79963   0.88190   0.00000  Uiso   1.00
H886   H     0.96816   0.79062   0.96230   0.00000  Uiso   1.00
H887   H     0.67306   0.94137   0.55176   0.00000  Uiso   1.00
H888   H     0.66798   0.87205   0.78446   0.00000  Uiso   1.00
H889   H     0.99862   0.79454   0.71562   0.00000  Uiso   1.00
H890   H     0.82168   0.79561   0.60060   0.00000  Uiso   1.00
N891   N     0.98173   0.84735   0.76212   0.00000  Uiso   1.00
N892   N     0.68494   0.81932   0.73788   0.00000  Uiso   1.00
O893   O     0.79482   0.90476   0.74686   0.00000  Uiso   1.00
O894   O     0.87185   0.76191   0.75314   0.00000  Uiso   1.00
O895   O     0.89496   0.91420   0.75503   0.00000  Uiso   1.00
O896   O     0.77171   0.75247   0.74498   0.00000  Uiso   1.00
O897   O     0.75518   0.82597   0.80855   0.00000  Uiso   1.00
O898   O     0.91149   0.84070   0.69146   0.00000  Uiso   1.00
O899   O     0.85532   0.83540   0.81671   0.00000  Uiso   1.00
O900   O     0.81134   0.83126   0.68329   0.00000  Uiso   1.00
loop_
_geom_bond_atom_site_label_1
_geom_bond_atom_site_label_2
_geom_bond_distance
_geom_bond_site_symmetry_2
_ccdc_geom_bond_type
Br1    C20     1.930   .     S
Br2    C21     1.931   .     S
C3     O45     1.287   .     A
C3     O43     1.293   .     A
C3     C24     1.428   .     S
C4     O50     1.297   .     A
C4     C6      1.467   .     S
C4     O48     1.302   .     A
C5     C11     1.402   .     A
C5     C26     1.473   .     S
C5     C9      1.402   .     A
C6     C10     1.398   .     A
C6     C12     1.397   .     A
C7     C16     1.404   .     A
C7     C9      1.395   .     A
C7     H136    1.084   1_455 S
C8     C10     1.393   .     A
C8     C17     1.405   .     A
C8     H87     1.084   .     S
C9     H35     1.083   .     S
C10    H34     1.083   .     S
C11    C13     1.404   .     A
C11    H30     1.080   .     S
C12    H40     1.076   .     S
C12    C15     1.404   .     A
C13    C18     1.422   .     A
C13    C16     1.411   .     A
C14    O44     1.293   .     A
C14    C25     1.428   .     S
C14    O46     1.287   .     A
C15    C19     1.428   .     A
C15    C17     1.417   .     A
C16    C472    1.390   .     S
C17    C473    1.389   1_554 S
C18    C21     1.427   .     A
C18    C469    1.430   .     S
C19    C20     1.434   .     A
C19    C468    1.430   1_554 S
C20    C22     1.395   .     A
C21    C23     1.390   .     A
C22    C466    1.390   1_554 S
C22    H129    1.085   1_455 S
C23    H33     1.084   .     S
C23    C467    1.389   .     S
C24    C175    1.328   .     S
C24    H181    1.088   .     S
C25    C324    1.328   1_545 S
C25    H332    1.088   1_545 S
C26    O47     1.303   .     A
C26    O49     1.299   .     A
Cu27   O50     1.901   .     S
Cu27   N42     2.022   .     S
Cu27   O46     1.952   .     S
Cu27   O43     1.955   .     S
Cu27   O47     1.921   .     S
Cu27   Cu28    2.691   .     S
Cu28   O45     1.952   .     S
Cu28   N41     2.022   .     S
Cu28   O48     1.921   .     S
Cu28   O44     1.955   .     S
Cu28   O49     1.901   .     S
H29    C72     1.085   .     S
H31    C324    1.088   1_545 S
H32    C175    1.088   .     S
H36    C57     1.084   .     S
H37    C108    1.084   1_455 S
H38    N141    1.029   1_455 S
H39    N92     1.029   .     S
N41    H88     1.029   .     S
N41    N92     1.284   .     S
N42    H139    1.029   1_455 S
N42    N141    1.284   1_455 S
Br51   C70     1.930   .     S
Br52   C71     1.931   .     S
C53    O95     1.287   .     A
C53    O93     1.293   .     A
C53    C74     1.428   .     S
C54    O100    1.297   .     A
C54    C56     1.467   .     S
C54    O98     1.302   .     A
C55    C61     1.402   .     A
C55    C76     1.473   .     S
C55    C59     1.402   .     A
C56    C60     1.398   .     A
C56    C62     1.397   .     A
C57    C66     1.404   .     A
C57    C59     1.395   .     A
C58    C60     1.393   .     A
C58    C67     1.405   .     A
C58    H137    1.084   .     S
C59    H85     1.083   .     S
C60    H84     1.083   .     S
C61    C63     1.404   .     A
C61    H80     1.080   .     S
C62    H90     1.076   .     S
C62    C65     1.404   .     A
C63    C68     1.422   .     A
C63    C66     1.411   .     A
C64    O94     1.293   .     A
C64    C75     1.428   .     S
C64    O96     1.287   .     A
C65    C69     1.428   .     A
C65    C67     1.417   .     A
C66    C522    1.390   .     S
C67    C523    1.389   1_554 S
C68    C71     1.427   .     A
C68    C519    1.430   .     S
C69    C70     1.434   .     A
C69    C518    1.430   1_554 S
C70    C72     1.395   .     A
C71    C73     1.390   .     A
C72    C516    1.390   1_554 S
C73    H83     1.084   .     S
C73    C517    1.389   .     S
C74    C225    1.328   .     S
C74    H231    1.088   .     S
C75    C374    1.328   1_545 S
C75    H382    1.088   1_545 S
C76    O97     1.303   .     A
C76    O99     1.299   .     A
Cu77   O100    1.901   .     S
Cu77   N92     2.022   .     S
Cu77   O96     1.952   .     S
Cu77   O93     1.955   .     S
Cu77   O97     1.921   .     S
Cu77   Cu78    2.691   .     S
Cu78   O95     1.952   .     S
Cu78   N91     2.022   .     S
Cu78   O98     1.921   .     S
Cu78   O94     1.955   .     S
Cu78   O99     1.901   .     S
H79    C122    1.085   .     S
H81    C374    1.088   1_545 S
H82    C225    1.088   .     S
H86    C107    1.084   .     S
H89    N142    1.029   .     S
N91    H138    1.029   .     S
N91    N142    1.284   .     S
Br101  C120    1.930   .     S
Br102  C121    1.931   .     S
C103   O145    1.287   .     A
C103   O143    1.293   .     A
C103   C124    1.428   .     S
C104   O150    1.297   .     A
C104   C106    1.467   .     S
C104   O148    1.302   .     A
C105   C111    1.402   .     A
C105   C126    1.473   .     S
C105   C109    1.402   .     A
C106   C110    1.398   .     A
C106   C112    1.397   .     A
C107   C116    1.404   .     A
C107   C109    1.395   .     A
C108   C110    1.393   .     A
C108   C117    1.405   .     A
C108   H37     1.084   1_655 S
C109   H135    1.083   .     S
C110   H134    1.083   .     S
C111   C113    1.404   .     A
C111   H130    1.080   .     S
C112   H140    1.076   .     S
C112   C115    1.404   .     A
C113   C118    1.422   .     A
C113   C116    1.411   .     A
C114   O144    1.293   .     A
C114   C125    1.428   .     S
C114   O146    1.287   .     A
C115   C119    1.428   .     A
C115   C117    1.417   .     A
C116   C572    1.390   .     S
C117   C573    1.389   1_554 S
C118   C121    1.427   .     A
C118   C569    1.430   .     S
C119   C120    1.434   .     A
C119   C568    1.430   1_554 S
C120   C122    1.395   .     A
C121   C123    1.390   .     A
C122   C566    1.390   1_554 S
C123   H133    1.084   .     S
C123   C567    1.389   .     S
C124   C275    1.328   .     S
C124   H281    1.088   .     S
C125   C424    1.328   1_545 S
C125   H432    1.088   1_545 S
C126   O147    1.303   .     A
C126   O149    1.299   .     A
Cu127  O150    1.901   .     S
Cu127  N142    2.022   .     S
Cu127  O146    1.952   .     S
Cu127  O143    1.955   .     S
Cu127  O147    1.921   .     S
Cu127  Cu128   2.691   .     S
Cu128  O145    1.952   .     S
Cu128  N141    2.022   .     S
Cu128  O148    1.921   .     S
Cu128  O144    1.955   .     S
Cu128  O149    1.901   .     S
H129   C22     1.085   1_655 S
H131   C424    1.088   1_545 S
H132   C275    1.088   .     S
H136   C7      1.084   1_655 S
H139   N42     1.029   1_655 S
N141   H38     1.029   1_655 S
N141   N42     1.284   1_655 S
Br151  C170    1.930   .     S
Br152  C171    1.931   .     S
C153   O195    1.287   .     A
C153   O193    1.293   .     A
C153   C174    1.428   .     S
C154   O200    1.297   .     A
C154   C156    1.467   .     S
C154   O198    1.302   .     A
C155   C161    1.402   .     A
C155   C176    1.473   .     S
C155   C159    1.402   .     A
C156   C160    1.398   .     A
C156   C162    1.397   .     A
C157   C166    1.404   .     A
C157   C159    1.395   .     A
C157   H286    1.084   1_455 S
C158   C160    1.393   .     A
C158   C167    1.405   .     A
C158   H237    1.084   .     S
C159   H185    1.083   .     S
C160   H184    1.083   .     S
C161   C163    1.404   .     A
C161   H180    1.080   .     S
C162   H190    1.076   .     S
C162   C165    1.404   .     A
C163   C168    1.422   .     A
C163   C166    1.411   .     A
C164   O194    1.293   .     A
C164   C175    1.428   .     S
C164   O196    1.287   .     A
C165   C169    1.428   .     A
C165   C167    1.417   .     A
C166   C622    1.390   .     S
C167   C623    1.389   1_554 S
C168   C171    1.427   .     A
C168   C619    1.430   .     S
C169   C170    1.434   .     A
C169   C618    1.430   1_554 S
C170   C172    1.395   .     A
C171   C173    1.390   .     A
C172   C616    1.390   1_554 S
C172   H279    1.085   1_455 S
C173   H183    1.084   .     S
C173   C617    1.389   .     S
C174   C325    1.328   .     S
C174   H331    1.088   .     S
C176   O197    1.303   .     A
C176   O199    1.299   .     A
Cu177  O200    1.901   .     S
Cu177  N192    2.022   .     S
Cu177  O196    1.952   .     S
Cu177  O193    1.955   .     S
Cu177  O197    1.921   .     S
Cu177  Cu178   2.691   .     S
Cu178  O195    1.952   .     S
Cu178  N191    2.022   .     S
Cu178  O198    1.921   .     S
Cu178  O194    1.955   .     S
Cu178  O199    1.901   .     S
H179   C222    1.085   .     S
H182   C325    1.088   .     S
H186   C207    1.084   .     S
H187   C258    1.084   1_455 S
H188   N291    1.029   1_455 S
H189   N242    1.029   .     S
N191   H238    1.029   .     S
N191   N242    1.284   .     S
N192   H289    1.029   1_455 S
N192   N291    1.284   1_455 S
Br201  C220    1.930   .     S
Br202  C221    1.931   .     S
C203   O245    1.287   .     A
C203   O243    1.293   .     A
C203   C224    1.428   .     S
C204   O250    1.297   .     A
C204   C206    1.467   .     S
C204   O248    1.302   .     A
C205   C211    1.402   .     A
C205   C226    1.473   .     S
C205   C209    1.402   .     A
C206   C210    1.398   .     A
C206   C212    1.397   .     A
C207   C216    1.404   .     A
C207   C209    1.395   .     A
C208   C210    1.393   .     A
C208   C217    1.405   .     A
C208   H287    1.084   .     S
C209   H235    1.083   .     S
C210   H234    1.083   .     S
C211   C213    1.404   .     A
C211   H230    1.080   .     S
C212   H240    1.076   .     S
C212   C215    1.404   .     A
C213   C218    1.422   .     A
C213   C216    1.411   .     A
C214   O244    1.293   .     A
C214   C225    1.428   .     S
C214   O246    1.287   .     A
C215   C219    1.428   .     A
C215   C217    1.417   .     A
C216   C672    1.390   .     S
C217   C673    1.389   1_554 S
C218   C221    1.427   .     A
C218   C669    1.430   .     S
C219   C220    1.434   .     A
C219   C668    1.430   1_554 S
C220   C222    1.395   .     A
C221   C223    1.390   .     A
C222   C666    1.390   1_554 S
C223   H233    1.084   .     S
C223   C667    1.389   .     S
C224   C375    1.328   .     S
C224   H381    1.088   .     S
C226   O247    1.303   .     A
C226   O249    1.299   .     A
Cu227  O250    1.901   .     S
Cu227  N242    2.022   .     S
Cu227  O246    1.952   .     S
Cu227  O243    1.955   .     S
Cu227  O247    1.921   .     S
Cu227  Cu228   2.691   .     S
Cu228  O245    1.952   .     S
Cu228  N241    2.022   .     S
Cu228  O248    1.921   .     S
Cu228  O244    1.955   .     S
Cu228  O249    1.901   .     S
H229   C272    1.085   .     S
H232   C375    1.088   .     S
H236   C257    1.084   .     S
H239   N292    1.029   .     S
N241   H288    1.029   .     S
N241   N292    1.284   .     S
Br251  C270    1.930   .     S
Br252  C271    1.931   .     S
C253   O295    1.287   .     A
C253   O293    1.293   .     A
C253   C274    1.428   .     S
C254   O300    1.297   .     A
C254   C256    1.467   .     S
C254   O298    1.302   .     A
C255   C261    1.402   .     A
C255   C276    1.473   .     S
C255   C259    1.402   .     A
C256   C260    1.398   .     A
C256   C262    1.397   .     A
C257   C266    1.404   .     A
C257   C259    1.395   .     A
C258   C260    1.393   .     A
C258   C267    1.405   .     A
C258   H187    1.084   1_655 S
C259   H285    1.083   .     S
C260   H284    1.083   .     S
C261   C263    1.404   .     A
C261   H280    1.080   .     S
C262   H290    1.076   .     S
C262   C265    1.404   .     A
C263   C268    1.422   .     A
C263   C266    1.411   .     A
C264   O294    1.293   .     A
C264   C275    1.428   .     S
C264   O296    1.287   .     A
C265   C269    1.428   .     A
C265   C267    1.417   .     A
C266   C722    1.390   .     S
C267   C723    1.389   1_554 S
C268   C271    1.427   .     A
C268   C719    1.430   .     S
C269   C270    1.434   .     A
C269   C718    1.430   1_554 S
C270   C272    1.395   .     A
C271   C273    1.390   .     A
C272   C716    1.390   1_554 S
C273   H283    1.084   .     S
C273   C717    1.389   .     S
C274   C425    1.328   .     S
C274   H431    1.088   .     S
C276   O297    1.303   .     A
C276   O299    1.299   .     A
Cu277  O300    1.901   .     S
Cu277  N292    2.022   .     S
Cu277  O296    1.952   .     S
Cu277  O293    1.955   .     S
Cu277  O297    1.921   .     S
Cu277  Cu278   2.691   .     S
Cu278  O295    1.952   .     S
Cu278  N291    2.022   .     S
Cu278  O298    1.921   .     S
Cu278  O294    1.955   .     S
Cu278  O299    1.901   .     S
H279   C172    1.085   1_655 S
H282   C425    1.088   .     S
H286   C157    1.084   1_655 S
H289   N192    1.029   1_655 S
N291   H188    1.029   1_655 S
N291   N192    1.284   1_655 S
Br301  C320    1.930   .     S
Br302  C321    1.931   .     S
C303   O345    1.287   .     A
C303   O343    1.293   .     A
C303   C324    1.428   .     S
C304   O350    1.297   .     A
C304   C306    1.467   .     S
C304   O348    1.302   .     A
C305   C311    1.402   .     A
C305   C326    1.473   .     S
C305   C309    1.402   .     A
C306   C310    1.398   .     A
C306   C312    1.397   .     A
C307   C316    1.404   .     A
C307   C309    1.395   .     A
C307   H436    1.084   1_455 S
C308   C310    1.393   .     A
C308   C317    1.405   .     A
C308   H387    1.084   .     S
C309   H335    1.083   .     S
C310   H334    1.083   .     S
C311   C313    1.404   .     A
C311   H330    1.080   .     S
C312   H340    1.076   .     S
C312   C315    1.404   .     A
C313   C318    1.422   .     A
C313   C316    1.411   .     A
C314   O344    1.293   .     A
C314   C325    1.428   .     S
C314   O346    1.287   .     A
C315   C319    1.428   .     A
C315   C317    1.417   .     A
C316   C772    1.390   .     S
C317   C773    1.389   1_554 S
C318   C321    1.427   .     A
C318   C769    1.430   .     S
C319   C320    1.434   .     A
C319   C768    1.430   1_554 S
C320   C322    1.395   .     A
C321   C323    1.390   .     A
C322   C766    1.390   1_554 S
C322   H429    1.085   1_455 S
C323   H333    1.084   .     S
C323   C767    1.389   .     S
C324   C25     1.328   1_565 S
C324   H31     1.088   1_565 S
C326   O347    1.303   .     A
C326   O349    1.299   .     A
Cu327  O350    1.901   .     S
Cu327  N342    2.022   .     S
Cu327  O346    1.952   .     S
Cu327  O343    1.955   .     S
Cu327  O347    1.921   .     S
Cu327  Cu328   2.691   .     S
Cu328  O345    1.952   .     S
Cu328  N341    2.022   .     S
Cu328  O348    1.921   .     S
Cu328  O344    1.955   .     S
Cu328  O349    1.901   .     S
H329   C372    1.085   .     S
H332   C25     1.088   1_565 S
H336   C357    1.084   .     S
H337   C408    1.084   1_455 S
H338   N441    1.029   1_455 S
H339   N392    1.029   .     S
N341   H388    1.029   .     S
N341   N392    1.284   .     S
N342   H439    1.029   1_455 S
N342   N441    1.284   1_455 S
Br351  C370    1.930   .     S
Br352  C371    1.931   .     S
C353   O395    1.287   .     A
C353   O393    1.293   .     A
C353   C374    1.428   .     S
C354   O400    1.297   .     A
C354   C356    1.467   .     S
C354   O398    1.302   .     A
C355   C361    1.402   .     A
C355   C376    1.473   .     S
C355   C359    1.402   .     A
C356   C360    1.398   .     A
C356   C362    1.397   .     A
C357   C366    1.404   .     A
C357   C359    1.395   .     A
C358   C360    1.393   .     A
C358   C367    1.405   .     A
C358   H437    1.084   .     S
C359   H385    1.083   .     S
C360   H384    1.083   .     S
C361   C363    1.404   .     A
C361   H380    1.080   .     S
C362   H390    1.076   .     S
C362   C365    1.404   .     A
C363   C368    1.422   .     A
C363   C366    1.411   .     A
C364   O394    1.293   .     A
C364   C375    1.428   .     S
C364   O396    1.287   .     A
C365   C369    1.428   .     A
C365   C367    1.417   .     A
C366   C822    1.390   .     S
C367   C823    1.389   1_554 S
C368   C371    1.427   .     A
C368   C819    1.430   .     S
C369   C370    1.434   .     A
C369   C818    1.430   1_554 S
C370   C372    1.395   .     A
C371   C373    1.390   .     A
C372   C816    1.390   1_554 S
C373   H383    1.084   .     S
C373   C817    1.389   .     S
C374   C75     1.328   1_565 S
C374   H81     1.088   1_565 S
C376   O397    1.303   .     A
C376   O399    1.299   .     A
Cu377  O400    1.901   .     S
Cu377  N392    2.022   .     S
Cu377  O396    1.952   .     S
Cu377  O393    1.955   .     S
Cu377  O397    1.921   .     S
Cu377  Cu378   2.691   .     S
Cu378  O395    1.952   .     S
Cu378  N391    2.022   .     S
Cu378  O398    1.921   .     S
Cu378  O394    1.955   .     S
Cu378  O399    1.901   .     S
H379   C422    1.085   .     S
H382   C75     1.088   1_565 S
H386   C407    1.084   .     S
H389   N442    1.029   .     S
N391   H438    1.029   .     S
N391   N442    1.284   .     S
Br401  C420    1.930   .     S
Br402  C421    1.931   .     S
C403   O445    1.287   .     A
C403   O443    1.293   .     A
C403   C424    1.428   .     S
C404   O450    1.297   .     A
C404   C406    1.467   .     S
C404   O448    1.302   .     A
C405   C411    1.402   .     A
C405   C426    1.473   .     S
C405   C409    1.402   .     A
C406   C410    1.398   .     A
C406   C412    1.397   .     A
C407   C416    1.404   .     A
C407   C409    1.395   .     A
C408   C410    1.393   .     A
C408   C417    1.405   .     A
C408   H337    1.084   1_655 S
C409   H435    1.083   .     S
C410   H434    1.083   .     S
C411   C413    1.404   .     A
C411   H430    1.080   .     S
C412   H440    1.076   .     S
C412   C415    1.404   .     A
C413   C418    1.422   .     A
C413   C416    1.411   .     A
C414   O444    1.293   .     A
C414   C425    1.428   .     S
C414   O446    1.287   .     A
C415   C419    1.428   .     A
C415   C417    1.417   .     A
C416   C872    1.390   .     S
C417   C873    1.389   1_554 S
C418   C421    1.427   .     A
C418   C869    1.430   .     S
C419   C420    1.434   .     A
C419   C868    1.430   1_554 S
C420   C422    1.395   .     A
C421   C423    1.390   .     A
C422   C866    1.390   1_554 S
C423   H433    1.084   .     S
C423   C867    1.389   .     S
C424   C125    1.328   1_565 S
C424   H131    1.088   1_565 S
C426   O447    1.303   .     A
C426   O449    1.299   .     A
Cu427  O450    1.901   .     S
Cu427  N442    2.022   .     S
Cu427  O446    1.952   .     S
Cu427  O443    1.955   .     S
Cu427  O447    1.921   .     S
Cu427  Cu428   2.691   .     S
Cu428  O445    1.952   .     S
Cu428  N441    2.022   .     S
Cu428  O448    1.921   .     S
Cu428  O444    1.955   .     S
Cu428  O449    1.901   .     S
H429   C322    1.085   1_655 S
H432   C125    1.088   1_565 S
H436   C307    1.084   1_655 S
H439   N342    1.029   1_655 S
N441   H338    1.029   1_655 S
N441   N342    1.284   1_655 S
Br451  C470    1.930   .     S
Br452  C471    1.931   .     S
C453   O495    1.287   .     A
C453   O493    1.293   .     A
C453   C474    1.428   .     S
C454   O500    1.297   .     A
C454   C456    1.467   .     S
C454   O498    1.302   .     A
C455   C461    1.402   .     A
C455   C476    1.473   .     S
C455   C459    1.402   .     A
C456   C460    1.398   .     A
C456   C462    1.397   .     A
C457   C466    1.404   .     A
C457   C459    1.395   .     A
C457   H586    1.084   1_455 S
C458   C460    1.393   .     A
C458   C467    1.405   .     A
C458   H537    1.084   .     S
C459   H485    1.083   .     S
C460   H484    1.083   .     S
C461   C463    1.404   .     A
C461   H480    1.080   .     S
C462   H490    1.076   .     S
C462   C465    1.404   .     A
C463   C468    1.422   .     A
C463   C466    1.411   .     A
C464   O494    1.293   .     A
C464   C475    1.428   .     S
C464   O496    1.287   .     A
C465   C469    1.428   .     A
C465   C467    1.417   .     A
C466   C22     1.390   1_556 S
C468   C471    1.427   .     A
C468   C19     1.430   1_556 S
C469   C470    1.434   .     A
C470   C472    1.395   .     A
C471   C473    1.390   .     A
C472   H579    1.085   1_455 S
C473   H483    1.084   .     S
C473   C17     1.389   1_556 S
C474   C625    1.328   .     S
C474   H631    1.088   .     S
C475   C774    1.328   1_545 S
C475   H782    1.088   1_545 S
C476   O497    1.303   .     A
C476   O499    1.299   .     A
Cu477  O500    1.901   .     S
Cu477  N492    2.022   .     S
Cu477  O496    1.952   .     S
Cu477  O493    1.955   .     S
Cu477  O497    1.921   .     S
Cu477  Cu478   2.691   .     S
Cu478  O495    1.952   .     S
Cu478  N491    2.022   .     S
Cu478  O498    1.921   .     S
Cu478  O494    1.955   .     S
Cu478  O499    1.901   .     S
H479   C522    1.085   .     S
H481   C774    1.088   1_545 S
H482   C625    1.088   .     S
H486   C507    1.084   .     S
H487   C558    1.084   1_455 S
H488   N591    1.029   1_455 S
H489   N542    1.029   .     S
N491   H538    1.029   .     S
N491   N542    1.284   .     S
N492   H589    1.029   1_455 S
N492   N591    1.284   1_455 S
Br501  C520    1.930   .     S
Br502  C521    1.931   .     S
C503   O545    1.287   .     A
C503   O543    1.293   .     A
C503   C524    1.428   .     S
C504   O550    1.297   .     A
C504   C506    1.467   .     S
C504   O548    1.302   .     A
C505   C511    1.402   .     A
C505   C526    1.473   .     S
C505   C509    1.402   .     A
C506   C510    1.398   .     A
C506   C512    1.397   .     A
C507   C516    1.404   .     A
C507   C509    1.395   .     A
C508   C510    1.393   .     A
C508   C517    1.405   .     A
C508   H587    1.084   .     S
C509   H535    1.083   .     S
C510   H534    1.083   .     S
C511   C513    1.404   .     A
C511   H530    1.080   .     S
C512   H540    1.076   .     S
C512   C515    1.404   .     A
C513   C518    1.422   .     A
C513   C516    1.411   .     A
C514   O544    1.293   .     A
C514   C525    1.428   .     S
C514   O546    1.287   .     A
C515   C519    1.428   .     A
C515   C517    1.417   .     A
C516   C72     1.390   1_556 S
C518   C521    1.427   .     A
C518   C69     1.430   1_556 S
C519   C520    1.434   .     A
C520   C522    1.395   .     A
C521   C523    1.390   .     A
C523   H533    1.084   .     S
C523   C67     1.389   1_556 S
C524   C675    1.328   .     S
C524   H681    1.088   .     S
C525   C824    1.328   1_545 S
C525   H832    1.088   1_545 S
C526   O547    1.303   .     A
C526   O549    1.299   .     A
Cu527  O550    1.901   .     S
Cu527  N542    2.022   .     S
Cu527  O546    1.952   .     S
Cu527  O543    1.955   .     S
Cu527  O547    1.921   .     S
Cu527  Cu528   2.691   .     S
Cu528  O545    1.952   .     S
Cu528  N541    2.022   .     S
Cu528  O548    1.921   .     S
Cu528  O544    1.955   .     S
Cu528  O549    1.901   .     S
H529   C572    1.085   .     S
H531   C824    1.088   1_545 S
H532   C675    1.088   .     S
H536   C557    1.084   .     S
H539   N592    1.029   .     S
N541   H588    1.029   .     S
N541   N592    1.284   .     S
Br551  C570    1.930   .     S
Br552  C571    1.931   .     S
C553   O595    1.287   .     A
C553   O593    1.293   .     A
C553   C574    1.428   .     S
C554   O600    1.297   .     A
C554   C556    1.467   .     S
C554   O598    1.302   .     A
C555   C561    1.402   .     A
C555   C576    1.473   .     S
C555   C559    1.402   .     A
C556   C560    1.398   .     A
C556   C562    1.397   .     A
C557   C566    1.404   .     A
C557   C559    1.395   .     A
C558   C560    1.393   .     A
C558   C567    1.405   .     A
C558   H487    1.084   1_655 S
C559   H585    1.083   .     S
C560   H584    1.083   .     S
C561   C563    1.404   .     A
C561   H580    1.080   .     S
C562   H590    1.076   .     S
C562   C565    1.404   .     A
C563   C568    1.422   .     A
C563   C566    1.411   .     A
C564   O594    1.293   .     A
C564   C575    1.428   .     S
C564   O596    1.287   .     A
C565   C569    1.428   .     A
C565   C567    1.417   .     A
C566   C122    1.390   1_556 S
C568   C571    1.427   .     A
C568   C119    1.430   1_556 S
C569   C570    1.434   .     A
C570   C572    1.395   .     A
C571   C573    1.390   .     A
C573   H583    1.084   .     S
C573   C117    1.389   1_556 S
C574   C725    1.328   .     S
C574   H731    1.088   .     S
C575   C874    1.328   1_545 S
C575   H882    1.088   1_545 S
C576   O597    1.303   .     A
C576   O599    1.299   .     A
Cu577  O600    1.901   .     S
Cu577  N592    2.022   .     S
Cu577  O596    1.952   .     S
Cu577  O593    1.955   .     S
Cu577  O597    1.921   .     S
Cu577  Cu578   2.691   .     S
Cu578  O595    1.952   .     S
Cu578  N591    2.022   .     S
Cu578  O598    1.921   .     S
Cu578  O594    1.955   .     S
Cu578  O599    1.901   .     S
H579   C472    1.085   1_655 S
H581   C874    1.088   1_545 S
H582   C725    1.088   .     S
H586   C457    1.084   1_655 S
H589   N492    1.029   1_655 S
N591   H488    1.029   1_655 S
N591   N492    1.284   1_655 S
Br601  C620    1.930   .     S
Br602  C621    1.931   .     S
C603   O645    1.287   .     A
C603   O643    1.293   .     A
C603   C624    1.428   .     S
C604   O650    1.297   .     A
C604   C606    1.467   .     S
C604   O648    1.302   .     A
C605   C611    1.402   .     A
C605   C626    1.473   .     S
C605   C609    1.402   .     A
C606   C610    1.398   .     A
C606   C612    1.397   .     A
C607   C616    1.404   .     A
C607   C609    1.395   .     A
C607   H736    1.084   1_455 S
C608   C610    1.393   .     A
C608   C617    1.405   .     A
C608   H687    1.084   .     S
C609   H635    1.083   .     S
C610   H634    1.083   .     S
C611   C613    1.404   .     A
C611   H630    1.080   .     S
C612   H640    1.076   .     S
C612   C615    1.404   .     A
C613   C618    1.422   .     A
C613   C616    1.411   .     A
C614   O644    1.293   .     A
C614   C625    1.428   .     S
C614   O646    1.287   .     A
C615   C619    1.428   .     A
C615   C617    1.417   .     A
C616   C172    1.390   1_556 S
C618   C621    1.427   .     A
C618   C169    1.430   1_556 S
C619   C620    1.434   .     A
C620   C622    1.395   .     A
C621   C623    1.390   .     A
C622   H729    1.085   1_455 S
C623   H633    1.084   .     S
C623   C167    1.389   1_556 S
C624   C775    1.328   .     S
C624   H781    1.088   .     S
C626   O647    1.303   .     A
C626   O649    1.299   .     A
Cu627  O650    1.901   .     S
Cu627  N642    2.022   .     S
Cu627  O646    1.952   .     S
Cu627  O643    1.955   .     S
Cu627  O647    1.921   .     S
Cu627  Cu628   2.691   .     S
Cu628  O645    1.952   .     S
Cu628  N641    2.022   .     S
Cu628  O648    1.921   .     S
Cu628  O644    1.955   .     S
Cu628  O649    1.901   .     S
H629   C672    1.085   .     S
H632   C775    1.088   .     S
H636   C657    1.084   .     S
H637   C708    1.084   1_455 S
H638   N741    1.029   1_455 S
H639   N692    1.029   .     S
N641   H688    1.029   .     S
N641   N692    1.284   .     S
N642   H739    1.029   1_455 S
N642   N741    1.284   1_455 S
Br651  C670    1.930   .     S
Br652  C671    1.931   .     S
C653   O695    1.287   .     A
C653   O693    1.293   .     A
C653   C674    1.428   .     S
C654   O700    1.297   .     A
C654   C656    1.467   .     S
C654   O698    1.302   .     A
C655   C661    1.402   .     A
C655   C676    1.473   .     S
C655   C659    1.402   .     A
C656   C660    1.398   .     A
C656   C662    1.397   .     A
C657   C666    1.404   .     A
C657   C659    1.395   .     A
C658   C660    1.393   .     A
C658   C667    1.405   .     A
C658   H737    1.084   .     S
C659   H685    1.083   .     S
C660   H684    1.083   .     S
C661   C663    1.404   .     A
C661   H680    1.080   .     S
C662   H690    1.076   .     S
C662   C665    1.404   .     A
C663   C668    1.422   .     A
C663   C666    1.411   .     A
C664   O694    1.293   .     A
C664   C675    1.428   .     S
C664   O696    1.287   .     A
C665   C669    1.428   .     A
C665   C667    1.417   .     A
C666   C222    1.390   1_556 S
C668   C671    1.427   .     A
C668   C219    1.430   1_556 S
C669   C670    1.434   .     A
C670   C672    1.395   .     A
C671   C673    1.390   .     A
C673   H683    1.084   .     S
C673   C217    1.389   1_556 S
C674   C825    1.328   .     S
C674   H831    1.088   .     S
C676   O697    1.303   .     A
C676   O699    1.299   .     A
Cu677  O700    1.901   .     S
Cu677  N692    2.022   .     S
Cu677  O696    1.952   .     S
Cu677  O693    1.955   .     S
Cu677  O697    1.921   .     S
Cu677  Cu678   2.691   .     S
Cu678  O695    1.952   .     S
Cu678  N691    2.022   .     S
Cu678  O698    1.921   .     S
Cu678  O694    1.955   .     S
Cu678  O699    1.901   .     S
H679   C722    1.085   .     S
H682   C825    1.088   .     S
H686   C707    1.084   .     S
H689   N742    1.029   .     S
N691   H738    1.029   .     S
N691   N742    1.284   .     S
Br701  C720    1.930   .     S
Br702  C721    1.931   .     S
C703   O745    1.287   .     A
C703   O743    1.293   .     A
C703   C724    1.428   .     S
C704   O750    1.297   .     A
C704   C706    1.467   .     S
C704   O748    1.302   .     A
C705   C711    1.402   .     A
C705   C726    1.473   .     S
C705   C709    1.402   .     A
C706   C710    1.398   .     A
C706   C712    1.397   .     A
C707   C716    1.404   .     A
C707   C709    1.395   .     A
C708   C710    1.393   .     A
C708   C717    1.405   .     A
C708   H637    1.084   1_655 S
C709   H735    1.083   .     S
C710   H734    1.083   .     S
C711   C713    1.404   .     A
C711   H730    1.080   .     S
C712   H740    1.076   .     S
C712   C715    1.404   .     A
C713   C718    1.422   .     A
C713   C716    1.411   .     A
C714   O744    1.293   .     A
C714   C725    1.428   .     S
C714   O746    1.287   .     A
C715   C719    1.428   .     A
C715   C717    1.417   .     A
C716   C272    1.390   1_556 S
C718   C721    1.427   .     A
C718   C269    1.430   1_556 S
C719   C720    1.434   .     A
C720   C722    1.395   .     A
C721   C723    1.390   .     A
C723   H733    1.084   .     S
C723   C267    1.389   1_556 S
C724   C875    1.328   .     S
C724   H881    1.088   .     S
C726   O747    1.303   .     A
C726   O749    1.299   .     A
Cu727  O750    1.901   .     S
Cu727  N742    2.022   .     S
Cu727  O746    1.952   .     S
Cu727  O743    1.955   .     S
Cu727  O747    1.921   .     S
Cu727  Cu728   2.691   .     S
Cu728  O745    1.952   .     S
Cu728  N741    2.022   .     S
Cu728  O748    1.921   .     S
Cu728  O744    1.955   .     S
Cu728  O749    1.901   .     S
H729   C622    1.085   1_655 S
H732   C875    1.088   .     S
H736   C607    1.084   1_655 S
H739   N642    1.029   1_655 S
N741   H638    1.029   1_655 S
N741   N642    1.284   1_655 S
Br751  C770    1.930   .     S
Br752  C771    1.931   .     S
C753   O795    1.287   .     A
C753   O793    1.293   .     A
C753   C774    1.428   .     S
C754   O800    1.297   .     A
C754   C756    1.467   .     S
C754   O798    1.302   .     A
C755   C761    1.402   .     A
C755   C776    1.473   .     S
C755   C759    1.402   .     A
C756   C760    1.398   .     A
C756   C762    1.397   .     A
C757   C766    1.404   .     A
C757   C759    1.395   .     A
C757   H886    1.084   1_455 S
C758   C760    1.393   .     A
C758   C767    1.405   .     A
C758   H837    1.084   .     S
C759   H785    1.083   .     S
C760   H784    1.083   .     S
C761   C763    1.404   .     A
C761   H780    1.080   .     S
C762   H790    1.076   .     S
C762   C765    1.404   .     A
C763   C768    1.422   .     A
C763   C766    1.411   .     A
C764   O794    1.293   .     A
C764   C775    1.428   .     S
C764   O796    1.287   .     A
C765   C769    1.428   .     A
C765   C767    1.417   .     A
C766   C322    1.390   1_556 S
C768   C771    1.427   .     A
C768   C319    1.430   1_556 S
C769   C770    1.434   .     A
C770   C772    1.395   .     A
C771   C773    1.390   .     A
C772   H879    1.085   1_455 S
C773   H783    1.084   .     S
C773   C317    1.389   1_556 S
C774   C475    1.328   1_565 S
C774   H481    1.088   1_565 S
C776   O797    1.303   .     A
C776   O799    1.299   .     A
Cu777  O800    1.901   .     S
Cu777  N792    2.022   .     S
Cu777  O796    1.952   .     S
Cu777  O793    1.955   .     S
Cu777  O797    1.921   .     S
Cu777  Cu778   2.691   .     S
Cu778  O795    1.952   .     S
Cu778  N791    2.022   .     S
Cu778  O798    1.921   .     S
Cu778  O794    1.955   .     S
Cu778  O799    1.901   .     S
H779   C822    1.085   .     S
H782   C475    1.088   1_565 S
H786   C807    1.084   .     S
H787   C858    1.084   1_455 S
H788   N891    1.029   1_455 S
H789   N842    1.029   .     S
N791   H838    1.029   .     S
N791   N842    1.284   .     S
N792   H889    1.029   1_455 S
N792   N891    1.284   1_455 S
Br801  C820    1.930   .     S
Br802  C821    1.931   .     S
C803   O845    1.287   .     A
C803   O843    1.293   .     A
C803   C824    1.428   .     S
C804   O850    1.297   .     A
C804   C806    1.467   .     S
C804   O848    1.302   .     A
C805   C811    1.402   .     A
C805   C826    1.473   .     S
C805   C809    1.402   .     A
C806   C810    1.398   .     A
C806   C812    1.397   .     A
C807   C816    1.404   .     A
C807   C809    1.395   .     A
C808   C810    1.393   .     A
C808   C817    1.405   .     A
C808   H887    1.084   .     S
C809   H835    1.083   .     S
C810   H834    1.083   .     S
C811   C813    1.404   .     A
C811   H830    1.080   .     S
C812   H840    1.076   .     S
C812   C815    1.404   .     A
C813   C818    1.422   .     A
C813   C816    1.411   .     A
C814   O844    1.293   .     A
C814   C825    1.428   .     S
C814   O846    1.287   .     A
C815   C819    1.428   .     A
C815   C817    1.417   .     A
C816   C372    1.390   1_556 S
C818   C821    1.427   .     A
C818   C369    1.430   1_556 S
C819   C820    1.434   .     A
C820   C822    1.395   .     A
C821   C823    1.390   .     A
C823   H833    1.084   .     S
C823   C367    1.389   1_556 S
C824   C525    1.328   1_565 S
C824   H531    1.088   1_565 S
C826   O847    1.303   .     A
C826   O849    1.299   .     A
Cu827  O850    1.901   .     S
Cu827  N842    2.022   .     S
Cu827  O846    1.952   .     S
Cu827  O843    1.955   .     S
Cu827  O847    1.921   .     S
Cu827  Cu828   2.691   .     S
Cu828  O845    1.952   .     S
Cu828  N841    2.022   .     S
Cu828  O848    1.921   .     S
Cu828  O844    1.955   .     S
Cu828  O849    1.901   .     S
H829   C872    1.085   .     S
H832   C525    1.088   1_565 S
H836   C857    1.084   .     S
H839   N892    1.029   .     S
N841   H888    1.029   .     S
N841   N892    1.284   .     S
Br851  C870    1.930   .     S
Br852  C871    1.931   .     S
C853   O895    1.287   .     A
C853   O893    1.293   .     A
C853   C874    1.428   .     S
C854   O900    1.297   .     A
C854   C856    1.467   .     S
C854   O898    1.302   .     A
C855   C861    1.402   .     A
C855   C876    1.473   .     S
C855   C859    1.402   .     A
C856   C860    1.398   .     A
C856   C862    1.397   .     A
C857   C866    1.404   .     A
C857   C859    1.395   .     A
C858   C860    1.393   .     A
C858   C867    1.405   .     A
C858   H787    1.084   1_655 S
C859   H885    1.083   .     S
C860   H884    1.083   .     S
C861   C863    1.404   .     A
C861   H880    1.080   .     S
C862   H890    1.076   .     S
C862   C865    1.404   .     A
C863   C868    1.422   .     A
C863   C866    1.411   .     A
C864   O894    1.293   .     A
C864   C875    1.428   .     S
C864   O896    1.287   .     A
C865   C869    1.428   .     A
C865   C867    1.417   .     A
C866   C422    1.390   1_556 S
C868   C871    1.427   .     A
C868   C419    1.430   1_556 S
C869   C870    1.434   .     A
C870   C872    1.395   .     A
C871   C873    1.390   .     A
C873   H883    1.084   .     S
C873   C417    1.389   1_556 S
C874   C575    1.328   1_565 S
C874   H581    1.088   1_565 S
C876   O897    1.303   .     A
C876   O899    1.299   .     A
Cu877  O900    1.901   .     S
Cu877  N892    2.022   .     S
Cu877  O896    1.952   .     S
Cu877  O893    1.955   .     S
Cu877  O897    1.921   .     S
Cu877  Cu878   2.691   .     S
Cu878  O895    1.952   .     S
Cu878  N891    2.022   .     S
Cu878  O898    1.921   .     S
Cu878  O894    1.955   .     S
Cu878  O899    1.901   .     S
H879   C772    1.085   1_655 S
H882   C575    1.088   1_565 S
H886   C757    1.084   1_655 S
H889   N792    1.029   1_655 S
N891   H788    1.029   1_655 S
N891   N792    1.284   1_655 S
