data_str_m2_o10_o16_pcu_sym.88
_audit_creation_date              2020-01-03
_audit_creation_method            'Materials Studio'
_symmetry_space_group_name_H-M    'P1'
_symmetry_Int_Tables_number       1
_symmetry_cell_setting            triclinic
loop_
_symmetry_equiv_pos_as_xyz
  x,y,z
_cell_length_a                    22.4479
_cell_length_b                    26.0999
_cell_length_c                    26.5707
_cell_angle_alpha                 94.4762
_cell_angle_beta                  77.6142
_cell_angle_gamma                 103.2294
loop_
_atom_site_label
_atom_site_type_symbol
_atom_site_fract_x
_atom_site_fract_y
_atom_site_fract_z
_atom_site_U_iso_or_equiv
_atom_site_adp_type
_atom_site_occupancy
C1     C     0.18045   0.26650   0.25487   0.00000  Uiso   1.00
C2     C     0.11167   0.16287   0.40372   0.00000  Uiso   1.00
C3     C     0.18397   0.32162   0.26677   0.00000  Uiso   1.00
C4     C     0.13314   0.16503   0.34732   0.00000  Uiso   1.00
C5     C     0.14366   0.01079   0.25031   0.00000  Uiso   1.00
C6     C     0.15099   0.06675   0.25061   0.00000  Uiso   1.00
C7     C     0.20039   0.17115   0.15295   0.00000  Uiso   1.00
C8     C     0.28217   0.24380   0.03243   0.00000  Uiso   1.00
C9     C     0.22035   0.18365   0.09835   0.00000  Uiso   1.00
C10    C     0.05318   0.13111   0.42345   0.00000  Uiso   1.00
C11    C     0.03283   0.12463   0.47615   0.00000  Uiso   1.00
C12    C     0.13463   0.17396   0.49047   0.00000  Uiso   1.00
C13    C     0.07186   0.14673   0.01041   0.00000  Uiso   1.00
C14    C     0.00186   0.20834   0.30777   0.00000  Uiso   1.00
C15    C     0.04122   0.14653   0.06576   0.00000  Uiso   1.00
C16    C     0.22798   0.01480   0.30052   0.00000  Uiso   1.00
C17    C     0.15060   0.18799   0.43793   0.00000  Uiso   1.00
C18    C     0.18233   0.18817   0.02000   0.00000  Uiso   1.00
C19    C     0.23727   0.22653   0.00172   0.00000  Uiso   1.00
C20    C     0.24644   0.24732   0.45322   0.00000  Uiso   1.00
C21    C     0.20440   0.22754   0.42127   0.00000  Uiso   1.00
C22    C     0.17861   0.16348   0.06591   0.00000  Uiso   1.00
C23    C     0.27250   0.22379   0.08139   0.00000  Uiso   1.00
Cu24   Cu    0.10710   0.16105   0.24435   0.00000  Uiso   1.00
Cu25   Cu    0.22623   0.17228   0.25564   0.00000  Uiso   1.00
H26    H     0.10786   0.32109   0.23085   0.00000  Uiso   1.00
H27    H     0.03264   0.24696   0.30414   0.00000  Uiso   1.00
H28    H     0.00154   0.11512   0.08007   0.00000  Uiso   1.00
H29    H     0.27226   0.00342   0.29735   0.00000  Uiso   1.00
H30    H     0.33210   0.13104   0.20667   0.00000  Uiso   1.00
H31    H     0.28742   0.27756   0.43914   0.00000  Uiso   1.00
H32    H     0.32345   0.27411   0.01936   0.00000  Uiso   1.00
H33    H     0.14196   0.12945   0.07814   0.00000  Uiso   1.00
H34    H     0.02255   0.11164   0.39801   0.00000  Uiso   1.00
H35    H     0.31889   0.10297   0.49039   0.00000  Uiso   1.00
H36    H     0.21393   0.24443   0.38371   0.00000  Uiso   1.00
H37    H     0.30437   0.24093   0.10659   0.00000  Uiso   1.00
N38    N     0.31574   0.18074   0.26416   0.00000  Uiso   1.00
N39    N     0.01759   0.15259   0.23584   0.00000  Uiso   1.00
O40    O     0.12797   0.23807   0.24633   0.00000  Uiso   1.00
O41    O     0.05724   0.18290   0.09521   0.00000  Uiso   1.00
O42    O     0.21346   0.04683   0.33428   0.00000  Uiso   1.00
O43    O     0.22858   0.24755   0.25586   0.00000  Uiso   1.00
O44    O     0.09181   0.15960   0.31839   0.00000  Uiso   1.00
O45    O     0.19242   0.16908   0.32793   0.00000  Uiso   1.00
O46    O     0.10476   0.08578   0.24413   0.00000  Uiso   1.00
O47    O     0.20536   0.09526   0.25367   0.00000  Uiso   1.00
O48    O     0.14092   0.16425   0.17207   0.00000  Uiso   1.00
O49    O     0.24152   0.17373   0.18160   0.00000  Uiso   1.00
O50    O     0.31404   0.19015   0.35046   0.00000  Uiso   1.00
C51    C     0.51378   0.26650   0.25487   0.00000  Uiso   1.00
C52    C     0.44500   0.16287   0.40372   0.00000  Uiso   1.00
C53    C     0.51730   0.32162   0.26677   0.00000  Uiso   1.00
C54    C     0.46647   0.16503   0.34732   0.00000  Uiso   1.00
C55    C     0.47700   0.01079   0.25031   0.00000  Uiso   1.00
C56    C     0.48433   0.06675   0.25061   0.00000  Uiso   1.00
C57    C     0.53372   0.17115   0.15295   0.00000  Uiso   1.00
C58    C     0.61550   0.24380   0.03243   0.00000  Uiso   1.00
C59    C     0.55368   0.18365   0.09835   0.00000  Uiso   1.00
C60    C     0.38652   0.13111   0.42345   0.00000  Uiso   1.00
C61    C     0.36616   0.12463   0.47615   0.00000  Uiso   1.00
C62    C     0.46796   0.17396   0.49047   0.00000  Uiso   1.00
C63    C     0.40519   0.14673   0.01041   0.00000  Uiso   1.00
C64    C     0.33519   0.20834   0.30777   0.00000  Uiso   1.00
C65    C     0.37455   0.14653   0.06576   0.00000  Uiso   1.00
C66    C     0.56132   0.01480   0.30052   0.00000  Uiso   1.00
C67    C     0.48394   0.18799   0.43793   0.00000  Uiso   1.00
C68    C     0.51566   0.18817   0.02000   0.00000  Uiso   1.00
C69    C     0.57060   0.22653   0.00172   0.00000  Uiso   1.00
C70    C     0.57977   0.24732   0.45322   0.00000  Uiso   1.00
C71    C     0.53773   0.22754   0.42127   0.00000  Uiso   1.00
C72    C     0.51195   0.16348   0.06591   0.00000  Uiso   1.00
C73    C     0.60584   0.22379   0.08139   0.00000  Uiso   1.00
Cu74   Cu    0.44043   0.16105   0.24435   0.00000  Uiso   1.00
Cu75   Cu    0.55957   0.17228   0.25564   0.00000  Uiso   1.00
H76    H     0.44120   0.32109   0.23085   0.00000  Uiso   1.00
H77    H     0.36598   0.24696   0.30414   0.00000  Uiso   1.00
H78    H     0.33488   0.11512   0.08007   0.00000  Uiso   1.00
H79    H     0.60559   0.00342   0.29735   0.00000  Uiso   1.00
H80    H     0.66543   0.13104   0.20667   0.00000  Uiso   1.00
H81    H     0.62075   0.27756   0.43914   0.00000  Uiso   1.00
H82    H     0.65678   0.27411   0.01936   0.00000  Uiso   1.00
H83    H     0.47529   0.12945   0.07814   0.00000  Uiso   1.00
H84    H     0.35589   0.11164   0.39801   0.00000  Uiso   1.00
H85    H     0.65222   0.10297   0.49039   0.00000  Uiso   1.00
H86    H     0.54726   0.24443   0.38371   0.00000  Uiso   1.00
H87    H     0.63771   0.24093   0.10659   0.00000  Uiso   1.00
N88    N     0.64908   0.18074   0.26416   0.00000  Uiso   1.00
N89    N     0.35092   0.15259   0.23584   0.00000  Uiso   1.00
O90    O     0.46131   0.23807   0.24633   0.00000  Uiso   1.00
O91    O     0.39057   0.18290   0.09521   0.00000  Uiso   1.00
O92    O     0.54679   0.04683   0.33428   0.00000  Uiso   1.00
O93    O     0.56191   0.24755   0.25586   0.00000  Uiso   1.00
O94    O     0.42515   0.15960   0.31839   0.00000  Uiso   1.00
O95    O     0.52575   0.16908   0.32793   0.00000  Uiso   1.00
O96    O     0.43809   0.08578   0.24413   0.00000  Uiso   1.00
O97    O     0.53869   0.09526   0.25367   0.00000  Uiso   1.00
O98    O     0.47425   0.16425   0.17207   0.00000  Uiso   1.00
O99    O     0.57485   0.17373   0.18160   0.00000  Uiso   1.00
O100   O     0.64737   0.19015   0.35046   0.00000  Uiso   1.00
C101   C     0.84711   0.26650   0.25487   0.00000  Uiso   1.00
C102   C     0.77833   0.16287   0.40372   0.00000  Uiso   1.00
C103   C     0.85063   0.32162   0.26677   0.00000  Uiso   1.00
C104   C     0.79980   0.16503   0.34732   0.00000  Uiso   1.00
C105   C     0.81033   0.01079   0.25031   0.00000  Uiso   1.00
C106   C     0.81766   0.06675   0.25061   0.00000  Uiso   1.00
C107   C     0.86706   0.17115   0.15295   0.00000  Uiso   1.00
C108   C     0.94883   0.24380   0.03243   0.00000  Uiso   1.00
C109   C     0.88701   0.18365   0.09835   0.00000  Uiso   1.00
C110   C     0.71985   0.13111   0.42345   0.00000  Uiso   1.00
C111   C     0.69949   0.12463   0.47615   0.00000  Uiso   1.00
C112   C     0.80129   0.17396   0.49047   0.00000  Uiso   1.00
C113   C     0.73852   0.14673   0.01041   0.00000  Uiso   1.00
C114   C     0.66852   0.20834   0.30777   0.00000  Uiso   1.00
C115   C     0.70788   0.14653   0.06576   0.00000  Uiso   1.00
C116   C     0.89465   0.01480   0.30052   0.00000  Uiso   1.00
C117   C     0.81727   0.18799   0.43793   0.00000  Uiso   1.00
C118   C     0.84900   0.18817   0.02000   0.00000  Uiso   1.00
C119   C     0.90393   0.22653   0.00172   0.00000  Uiso   1.00
C120   C     0.91310   0.24732   0.45322   0.00000  Uiso   1.00
C121   C     0.87106   0.22754   0.42127   0.00000  Uiso   1.00
C122   C     0.84528   0.16348   0.06591   0.00000  Uiso   1.00
C123   C     0.93917   0.22379   0.08139   0.00000  Uiso   1.00
Cu124  Cu    0.77377   0.16105   0.24435   0.00000  Uiso   1.00
Cu125  Cu    0.89290   0.17228   0.25564   0.00000  Uiso   1.00
H126   H     0.77453   0.32109   0.23085   0.00000  Uiso   1.00
H127   H     0.69931   0.24696   0.30414   0.00000  Uiso   1.00
H128   H     0.66821   0.11512   0.08007   0.00000  Uiso   1.00
H129   H     0.93892   0.00342   0.29735   0.00000  Uiso   1.00
H130   H     0.99877   0.13104   0.20667   0.00000  Uiso   1.00
H131   H     0.95408   0.27756   0.43914   0.00000  Uiso   1.00
H132   H     0.99012   0.27411   0.01936   0.00000  Uiso   1.00
H133   H     0.80862   0.12945   0.07814   0.00000  Uiso   1.00
H134   H     0.68922   0.11164   0.39801   0.00000  Uiso   1.00
H135   H     0.98556   0.10297   0.49039   0.00000  Uiso   1.00
H136   H     0.88059   0.24443   0.38371   0.00000  Uiso   1.00
H137   H     0.97104   0.24093   0.10659   0.00000  Uiso   1.00
N138   N     0.98241   0.18074   0.26416   0.00000  Uiso   1.00
N139   N     0.68426   0.15259   0.23584   0.00000  Uiso   1.00
O140   O     0.79464   0.23807   0.24633   0.00000  Uiso   1.00
O141   O     0.72390   0.18290   0.09521   0.00000  Uiso   1.00
O142   O     0.88013   0.04683   0.33428   0.00000  Uiso   1.00
O143   O     0.89524   0.24755   0.25586   0.00000  Uiso   1.00
O144   O     0.75848   0.15960   0.31839   0.00000  Uiso   1.00
O145   O     0.85908   0.16908   0.32793   0.00000  Uiso   1.00
O146   O     0.77142   0.08578   0.24413   0.00000  Uiso   1.00
O147   O     0.87203   0.09526   0.25367   0.00000  Uiso   1.00
O148   O     0.80758   0.16425   0.17207   0.00000  Uiso   1.00
O149   O     0.90819   0.17373   0.18160   0.00000  Uiso   1.00
O150   O     0.98071   0.19015   0.35046   0.00000  Uiso   1.00
C151   C     0.18045   0.59984   0.25487   0.00000  Uiso   1.00
C152   C     0.11167   0.49620   0.40372   0.00000  Uiso   1.00
C153   C     0.18397   0.65496   0.26677   0.00000  Uiso   1.00
C154   C     0.13314   0.49837   0.34732   0.00000  Uiso   1.00
C155   C     0.14366   0.34412   0.25031   0.00000  Uiso   1.00
C156   C     0.15099   0.40009   0.25061   0.00000  Uiso   1.00
C157   C     0.20039   0.50448   0.15295   0.00000  Uiso   1.00
C158   C     0.28217   0.57713   0.03243   0.00000  Uiso   1.00
C159   C     0.22035   0.51699   0.09835   0.00000  Uiso   1.00
C160   C     0.05318   0.46444   0.42345   0.00000  Uiso   1.00
C161   C     0.03283   0.45796   0.47615   0.00000  Uiso   1.00
C162   C     0.13463   0.50729   0.49047   0.00000  Uiso   1.00
C163   C     0.07186   0.48006   0.01041   0.00000  Uiso   1.00
C164   C     0.00186   0.54167   0.30777   0.00000  Uiso   1.00
C165   C     0.04122   0.47987   0.06576   0.00000  Uiso   1.00
C166   C     0.22798   0.34813   0.30052   0.00000  Uiso   1.00
C167   C     0.15060   0.52132   0.43793   0.00000  Uiso   1.00
C168   C     0.18233   0.52150   0.02000   0.00000  Uiso   1.00
C169   C     0.23727   0.55987   0.00172   0.00000  Uiso   1.00
C170   C     0.24644   0.58065   0.45322   0.00000  Uiso   1.00
C171   C     0.20440   0.56088   0.42127   0.00000  Uiso   1.00
C172   C     0.17861   0.49682   0.06591   0.00000  Uiso   1.00
C173   C     0.27250   0.55713   0.08139   0.00000  Uiso   1.00
Cu174  Cu    0.10710   0.49439   0.24435   0.00000  Uiso   1.00
Cu175  Cu    0.22623   0.50561   0.25564   0.00000  Uiso   1.00
H176   H     0.10786   0.65442   0.23085   0.00000  Uiso   1.00
H177   H     0.03264   0.58030   0.30414   0.00000  Uiso   1.00
H178   H     0.00154   0.44846   0.08007   0.00000  Uiso   1.00
H179   H     0.27226   0.33676   0.29735   0.00000  Uiso   1.00
H180   H     0.33210   0.46437   0.20667   0.00000  Uiso   1.00
H181   H     0.28742   0.61089   0.43914   0.00000  Uiso   1.00
H182   H     0.32345   0.60744   0.01936   0.00000  Uiso   1.00
H183   H     0.14196   0.46279   0.07814   0.00000  Uiso   1.00
H184   H     0.02255   0.44498   0.39801   0.00000  Uiso   1.00
H185   H     0.31889   0.43630   0.49039   0.00000  Uiso   1.00
H186   H     0.21393   0.57776   0.38371   0.00000  Uiso   1.00
H187   H     0.30437   0.57426   0.10659   0.00000  Uiso   1.00
N188   N     0.31574   0.51407   0.26416   0.00000  Uiso   1.00
N189   N     0.01759   0.48593   0.23584   0.00000  Uiso   1.00
O190   O     0.12797   0.57141   0.24633   0.00000  Uiso   1.00
O191   O     0.05724   0.51623   0.09521   0.00000  Uiso   1.00
O192   O     0.21346   0.38017   0.33428   0.00000  Uiso   1.00
O193   O     0.22858   0.58089   0.25586   0.00000  Uiso   1.00
O194   O     0.09181   0.49293   0.31839   0.00000  Uiso   1.00
O195   O     0.19242   0.50241   0.32793   0.00000  Uiso   1.00
O196   O     0.10476   0.41911   0.24413   0.00000  Uiso   1.00
O197   O     0.20536   0.42859   0.25367   0.00000  Uiso   1.00
O198   O     0.14092   0.49759   0.17207   0.00000  Uiso   1.00
O199   O     0.24152   0.50707   0.18160   0.00000  Uiso   1.00
O200   O     0.31404   0.52349   0.35046   0.00000  Uiso   1.00
C201   C     0.51378   0.59984   0.25487   0.00000  Uiso   1.00
C202   C     0.44500   0.49620   0.40372   0.00000  Uiso   1.00
C203   C     0.51730   0.65496   0.26677   0.00000  Uiso   1.00
C204   C     0.46647   0.49837   0.34732   0.00000  Uiso   1.00
C205   C     0.47700   0.34412   0.25031   0.00000  Uiso   1.00
C206   C     0.48433   0.40009   0.25061   0.00000  Uiso   1.00
C207   C     0.53372   0.50448   0.15295   0.00000  Uiso   1.00
C208   C     0.61550   0.57713   0.03243   0.00000  Uiso   1.00
C209   C     0.55368   0.51699   0.09835   0.00000  Uiso   1.00
C210   C     0.38652   0.46444   0.42345   0.00000  Uiso   1.00
C211   C     0.36616   0.45796   0.47615   0.00000  Uiso   1.00
C212   C     0.46796   0.50729   0.49047   0.00000  Uiso   1.00
C213   C     0.40519   0.48006   0.01041   0.00000  Uiso   1.00
C214   C     0.33519   0.54167   0.30777   0.00000  Uiso   1.00
C215   C     0.37455   0.47987   0.06576   0.00000  Uiso   1.00
C216   C     0.56132   0.34813   0.30052   0.00000  Uiso   1.00
C217   C     0.48394   0.52132   0.43793   0.00000  Uiso   1.00
C218   C     0.51566   0.52150   0.02000   0.00000  Uiso   1.00
C219   C     0.57060   0.55987   0.00172   0.00000  Uiso   1.00
C220   C     0.57977   0.58065   0.45322   0.00000  Uiso   1.00
C221   C     0.53773   0.56088   0.42127   0.00000  Uiso   1.00
C222   C     0.51195   0.49682   0.06591   0.00000  Uiso   1.00
C223   C     0.60584   0.55713   0.08139   0.00000  Uiso   1.00
Cu224  Cu    0.44043   0.49439   0.24435   0.00000  Uiso   1.00
Cu225  Cu    0.55957   0.50561   0.25564   0.00000  Uiso   1.00
H226   H     0.44120   0.65442   0.23085   0.00000  Uiso   1.00
H227   H     0.36598   0.58030   0.30414   0.00000  Uiso   1.00
H228   H     0.33488   0.44846   0.08007   0.00000  Uiso   1.00
H229   H     0.60559   0.33676   0.29735   0.00000  Uiso   1.00
H230   H     0.66543   0.46437   0.20667   0.00000  Uiso   1.00
H231   H     0.62075   0.61089   0.43914   0.00000  Uiso   1.00
H232   H     0.65678   0.60744   0.01936   0.00000  Uiso   1.00
H233   H     0.47529   0.46279   0.07814   0.00000  Uiso   1.00
H234   H     0.35589   0.44498   0.39801   0.00000  Uiso   1.00
H235   H     0.65222   0.43630   0.49039   0.00000  Uiso   1.00
H236   H     0.54726   0.57776   0.38371   0.00000  Uiso   1.00
H237   H     0.63771   0.57426   0.10659   0.00000  Uiso   1.00
N238   N     0.64908   0.51407   0.26416   0.00000  Uiso   1.00
N239   N     0.35092   0.48593   0.23584   0.00000  Uiso   1.00
O240   O     0.46131   0.57141   0.24633   0.00000  Uiso   1.00
O241   O     0.39057   0.51623   0.09521   0.00000  Uiso   1.00
O242   O     0.54679   0.38017   0.33428   0.00000  Uiso   1.00
O243   O     0.56191   0.58089   0.25586   0.00000  Uiso   1.00
O244   O     0.42515   0.49293   0.31839   0.00000  Uiso   1.00
O245   O     0.52575   0.50241   0.32793   0.00000  Uiso   1.00
O246   O     0.43809   0.41911   0.24413   0.00000  Uiso   1.00
O247   O     0.53869   0.42859   0.25367   0.00000  Uiso   1.00
O248   O     0.47425   0.49759   0.17207   0.00000  Uiso   1.00
O249   O     0.57485   0.50707   0.18160   0.00000  Uiso   1.00
O250   O     0.64737   0.52349   0.35046   0.00000  Uiso   1.00
C251   C     0.84711   0.59984   0.25487   0.00000  Uiso   1.00
C252   C     0.77833   0.49620   0.40372   0.00000  Uiso   1.00
C253   C     0.85063   0.65496   0.26677   0.00000  Uiso   1.00
C254   C     0.79980   0.49837   0.34732   0.00000  Uiso   1.00
C255   C     0.81033   0.34412   0.25031   0.00000  Uiso   1.00
C256   C     0.81766   0.40009   0.25061   0.00000  Uiso   1.00
C257   C     0.86706   0.50448   0.15295   0.00000  Uiso   1.00
C258   C     0.94883   0.57713   0.03243   0.00000  Uiso   1.00
C259   C     0.88701   0.51699   0.09835   0.00000  Uiso   1.00
C260   C     0.71985   0.46444   0.42345   0.00000  Uiso   1.00
C261   C     0.69949   0.45796   0.47615   0.00000  Uiso   1.00
C262   C     0.80129   0.50729   0.49047   0.00000  Uiso   1.00
C263   C     0.73852   0.48006   0.01041   0.00000  Uiso   1.00
C264   C     0.66852   0.54167   0.30777   0.00000  Uiso   1.00
C265   C     0.70788   0.47987   0.06576   0.00000  Uiso   1.00
C266   C     0.89465   0.34813   0.30052   0.00000  Uiso   1.00
C267   C     0.81727   0.52132   0.43793   0.00000  Uiso   1.00
C268   C     0.84900   0.52150   0.02000   0.00000  Uiso   1.00
C269   C     0.90393   0.55987   0.00172   0.00000  Uiso   1.00
C270   C     0.91310   0.58065   0.45322   0.00000  Uiso   1.00
C271   C     0.87106   0.56088   0.42127   0.00000  Uiso   1.00
C272   C     0.84528   0.49682   0.06591   0.00000  Uiso   1.00
C273   C     0.93917   0.55713   0.08139   0.00000  Uiso   1.00
Cu274  Cu    0.77377   0.49439   0.24435   0.00000  Uiso   1.00
Cu275  Cu    0.89290   0.50561   0.25564   0.00000  Uiso   1.00
H276   H     0.77453   0.65442   0.23085   0.00000  Uiso   1.00
H277   H     0.69931   0.58030   0.30414   0.00000  Uiso   1.00
H278   H     0.66821   0.44846   0.08007   0.00000  Uiso   1.00
H279   H     0.93892   0.33676   0.29735   0.00000  Uiso   1.00
H280   H     0.99877   0.46437   0.20667   0.00000  Uiso   1.00
H281   H     0.95408   0.61089   0.43914   0.00000  Uiso   1.00
H282   H     0.99012   0.60744   0.01936   0.00000  Uiso   1.00
H283   H     0.80862   0.46279   0.07814   0.00000  Uiso   1.00
H284   H     0.68922   0.44498   0.39801   0.00000  Uiso   1.00
H285   H     0.98556   0.43630   0.49039   0.00000  Uiso   1.00
H286   H     0.88059   0.57776   0.38371   0.00000  Uiso   1.00
H287   H     0.97104   0.57426   0.10659   0.00000  Uiso   1.00
N288   N     0.98241   0.51407   0.26416   0.00000  Uiso   1.00
N289   N     0.68426   0.48593   0.23584   0.00000  Uiso   1.00
O290   O     0.79464   0.57141   0.24633   0.00000  Uiso   1.00
O291   O     0.72390   0.51623   0.09521   0.00000  Uiso   1.00
O292   O     0.88013   0.38017   0.33428   0.00000  Uiso   1.00
O293   O     0.89524   0.58089   0.25586   0.00000  Uiso   1.00
O294   O     0.75848   0.49293   0.31839   0.00000  Uiso   1.00
O295   O     0.85908   0.50241   0.32793   0.00000  Uiso   1.00
O296   O     0.77142   0.41911   0.24413   0.00000  Uiso   1.00
O297   O     0.87203   0.42859   0.25367   0.00000  Uiso   1.00
O298   O     0.80758   0.49759   0.17207   0.00000  Uiso   1.00
O299   O     0.90819   0.50707   0.18160   0.00000  Uiso   1.00
O300   O     0.98071   0.52349   0.35046   0.00000  Uiso   1.00
C301   C     0.18045   0.93317   0.25487   0.00000  Uiso   1.00
C302   C     0.11167   0.82954   0.40372   0.00000  Uiso   1.00
C303   C     0.18397   0.98829   0.26677   0.00000  Uiso   1.00
C304   C     0.13314   0.83170   0.34732   0.00000  Uiso   1.00
C305   C     0.14366   0.67745   0.25031   0.00000  Uiso   1.00
C306   C     0.15099   0.73342   0.25061   0.00000  Uiso   1.00
C307   C     0.20039   0.83781   0.15295   0.00000  Uiso   1.00
C308   C     0.28217   0.91046   0.03243   0.00000  Uiso   1.00
C309   C     0.22035   0.85032   0.09835   0.00000  Uiso   1.00
C310   C     0.05318   0.79778   0.42345   0.00000  Uiso   1.00
C311   C     0.03283   0.79130   0.47615   0.00000  Uiso   1.00
C312   C     0.13463   0.84063   0.49047   0.00000  Uiso   1.00
C313   C     0.07186   0.81339   0.01041   0.00000  Uiso   1.00
C314   C     0.00186   0.87501   0.30777   0.00000  Uiso   1.00
C315   C     0.04122   0.81320   0.06576   0.00000  Uiso   1.00
C316   C     0.22798   0.68146   0.30052   0.00000  Uiso   1.00
C317   C     0.15060   0.85465   0.43793   0.00000  Uiso   1.00
C318   C     0.18233   0.85484   0.02000   0.00000  Uiso   1.00
C319   C     0.23727   0.89320   0.00172   0.00000  Uiso   1.00
C320   C     0.24644   0.91399   0.45322   0.00000  Uiso   1.00
C321   C     0.20440   0.89421   0.42127   0.00000  Uiso   1.00
C322   C     0.17861   0.83015   0.06591   0.00000  Uiso   1.00
C323   C     0.27250   0.89046   0.08139   0.00000  Uiso   1.00
Cu324  Cu    0.10710   0.82772   0.24435   0.00000  Uiso   1.00
Cu325  Cu    0.22623   0.83895   0.25564   0.00000  Uiso   1.00
H326   H     0.10786   0.98776   0.23085   0.00000  Uiso   1.00
H327   H     0.03264   0.91363   0.30414   0.00000  Uiso   1.00
H328   H     0.00154   0.78179   0.08007   0.00000  Uiso   1.00
H329   H     0.27226   0.67009   0.29735   0.00000  Uiso   1.00
H330   H     0.33210   0.79771   0.20667   0.00000  Uiso   1.00
H331   H     0.28742   0.94422   0.43914   0.00000  Uiso   1.00
H332   H     0.32345   0.94078   0.01936   0.00000  Uiso   1.00
H333   H     0.14196   0.79612   0.07814   0.00000  Uiso   1.00
H334   H     0.02255   0.77831   0.39801   0.00000  Uiso   1.00
H335   H     0.31889   0.76964   0.49039   0.00000  Uiso   1.00
H336   H     0.21393   0.91110   0.38371   0.00000  Uiso   1.00
H337   H     0.30437   0.90759   0.10659   0.00000  Uiso   1.00
N338   N     0.31574   0.84741   0.26416   0.00000  Uiso   1.00
N339   N     0.01759   0.81926   0.23584   0.00000  Uiso   1.00
O340   O     0.12797   0.90474   0.24633   0.00000  Uiso   1.00
O341   O     0.05724   0.84956   0.09521   0.00000  Uiso   1.00
O342   O     0.21346   0.71350   0.33428   0.00000  Uiso   1.00
O343   O     0.22858   0.91422   0.25586   0.00000  Uiso   1.00
O344   O     0.09181   0.82627   0.31839   0.00000  Uiso   1.00
O345   O     0.19242   0.83575   0.32793   0.00000  Uiso   1.00
O346   O     0.10476   0.75245   0.24413   0.00000  Uiso   1.00
O347   O     0.20536   0.76193   0.25367   0.00000  Uiso   1.00
O348   O     0.14092   0.83092   0.17207   0.00000  Uiso   1.00
O349   O     0.24152   0.84040   0.18160   0.00000  Uiso   1.00
O350   O     0.31404   0.85682   0.35046   0.00000  Uiso   1.00
C351   C     0.51378   0.93317   0.25487   0.00000  Uiso   1.00
C352   C     0.44500   0.82954   0.40372   0.00000  Uiso   1.00
C353   C     0.51730   0.98829   0.26677   0.00000  Uiso   1.00
C354   C     0.46647   0.83170   0.34732   0.00000  Uiso   1.00
C355   C     0.47700   0.67745   0.25031   0.00000  Uiso   1.00
C356   C     0.48433   0.73342   0.25061   0.00000  Uiso   1.00
C357   C     0.53372   0.83781   0.15295   0.00000  Uiso   1.00
C358   C     0.61550   0.91046   0.03243   0.00000  Uiso   1.00
C359   C     0.55368   0.85032   0.09835   0.00000  Uiso   1.00
C360   C     0.38652   0.79778   0.42345   0.00000  Uiso   1.00
C361   C     0.36616   0.79130   0.47615   0.00000  Uiso   1.00
C362   C     0.46796   0.84063   0.49047   0.00000  Uiso   1.00
C363   C     0.40519   0.81339   0.01041   0.00000  Uiso   1.00
C364   C     0.33519   0.87501   0.30777   0.00000  Uiso   1.00
C365   C     0.37455   0.81320   0.06576   0.00000  Uiso   1.00
C366   C     0.56132   0.68146   0.30052   0.00000  Uiso   1.00
C367   C     0.48394   0.85465   0.43793   0.00000  Uiso   1.00
C368   C     0.51566   0.85484   0.02000   0.00000  Uiso   1.00
C369   C     0.57060   0.89320   0.00172   0.00000  Uiso   1.00
C370   C     0.57977   0.91399   0.45322   0.00000  Uiso   1.00
C371   C     0.53773   0.89421   0.42127   0.00000  Uiso   1.00
C372   C     0.51195   0.83015   0.06591   0.00000  Uiso   1.00
C373   C     0.60584   0.89046   0.08139   0.00000  Uiso   1.00
Cu374  Cu    0.44043   0.82772   0.24435   0.00000  Uiso   1.00
Cu375  Cu    0.55957   0.83895   0.25564   0.00000  Uiso   1.00
H376   H     0.44120   0.98776   0.23085   0.00000  Uiso   1.00
H377   H     0.36598   0.91363   0.30414   0.00000  Uiso   1.00
H378   H     0.33488   0.78179   0.08007   0.00000  Uiso   1.00
H379   H     0.60559   0.67009   0.29735   0.00000  Uiso   1.00
H380   H     0.66543   0.79771   0.20667   0.00000  Uiso   1.00
H381   H     0.62075   0.94422   0.43914   0.00000  Uiso   1.00
H382   H     0.65678   0.94078   0.01936   0.00000  Uiso   1.00
H383   H     0.47529   0.79612   0.07814   0.00000  Uiso   1.00
H384   H     0.35589   0.77831   0.39801   0.00000  Uiso   1.00
H385   H     0.65222   0.76964   0.49039   0.00000  Uiso   1.00
H386   H     0.54726   0.91110   0.38371   0.00000  Uiso   1.00
H387   H     0.63771   0.90759   0.10659   0.00000  Uiso   1.00
N388   N     0.64908   0.84741   0.26416   0.00000  Uiso   1.00
N389   N     0.35092   0.81926   0.23584   0.00000  Uiso   1.00
O390   O     0.46131   0.90474   0.24633   0.00000  Uiso   1.00
O391   O     0.39057   0.84956   0.09521   0.00000  Uiso   1.00
O392   O     0.54679   0.71350   0.33428   0.00000  Uiso   1.00
O393   O     0.56191   0.91422   0.25586   0.00000  Uiso   1.00
O394   O     0.42515   0.82627   0.31839   0.00000  Uiso   1.00
O395   O     0.52575   0.83575   0.32793   0.00000  Uiso   1.00
O396   O     0.43809   0.75245   0.24413   0.00000  Uiso   1.00
O397   O     0.53869   0.76193   0.25367   0.00000  Uiso   1.00
O398   O     0.47425   0.83092   0.17207   0.00000  Uiso   1.00
O399   O     0.57485   0.84040   0.18160   0.00000  Uiso   1.00
O400   O     0.64737   0.85682   0.35046   0.00000  Uiso   1.00
C401   C     0.84711   0.93317   0.25487   0.00000  Uiso   1.00
C402   C     0.77833   0.82954   0.40372   0.00000  Uiso   1.00
C403   C     0.85063   0.98829   0.26677   0.00000  Uiso   1.00
C404   C     0.79980   0.83170   0.34732   0.00000  Uiso   1.00
C405   C     0.81033   0.67745   0.25031   0.00000  Uiso   1.00
C406   C     0.81766   0.73342   0.25061   0.00000  Uiso   1.00
C407   C     0.86706   0.83781   0.15295   0.00000  Uiso   1.00
C408   C     0.94883   0.91046   0.03243   0.00000  Uiso   1.00
C409   C     0.88701   0.85032   0.09835   0.00000  Uiso   1.00
C410   C     0.71985   0.79778   0.42345   0.00000  Uiso   1.00
C411   C     0.69949   0.79130   0.47615   0.00000  Uiso   1.00
C412   C     0.80129   0.84063   0.49047   0.00000  Uiso   1.00
C413   C     0.73852   0.81339   0.01041   0.00000  Uiso   1.00
C414   C     0.66852   0.87501   0.30777   0.00000  Uiso   1.00
C415   C     0.70788   0.81320   0.06576   0.00000  Uiso   1.00
C416   C     0.89465   0.68146   0.30052   0.00000  Uiso   1.00
C417   C     0.81727   0.85465   0.43793   0.00000  Uiso   1.00
C418   C     0.84900   0.85484   0.02000   0.00000  Uiso   1.00
C419   C     0.90393   0.89320   0.00172   0.00000  Uiso   1.00
C420   C     0.91310   0.91399   0.45322   0.00000  Uiso   1.00
C421   C     0.87106   0.89421   0.42127   0.00000  Uiso   1.00
C422   C     0.84528   0.83015   0.06591   0.00000  Uiso   1.00
C423   C     0.93917   0.89046   0.08139   0.00000  Uiso   1.00
Cu424  Cu    0.77377   0.82772   0.24435   0.00000  Uiso   1.00
Cu425  Cu    0.89290   0.83895   0.25564   0.00000  Uiso   1.00
H426   H     0.77453   0.98776   0.23085   0.00000  Uiso   1.00
H427   H     0.69931   0.91363   0.30414   0.00000  Uiso   1.00
H428   H     0.66821   0.78179   0.08007   0.00000  Uiso   1.00
H429   H     0.93892   0.67009   0.29735   0.00000  Uiso   1.00
H430   H     0.99877   0.79771   0.20667   0.00000  Uiso   1.00
H431   H     0.95408   0.94422   0.43914   0.00000  Uiso   1.00
H432   H     0.99012   0.94078   0.01936   0.00000  Uiso   1.00
H433   H     0.80862   0.79612   0.07814   0.00000  Uiso   1.00
H434   H     0.68922   0.77831   0.39801   0.00000  Uiso   1.00
H435   H     0.98556   0.76964   0.49039   0.00000  Uiso   1.00
H436   H     0.88059   0.91110   0.38371   0.00000  Uiso   1.00
H437   H     0.97104   0.90759   0.10659   0.00000  Uiso   1.00
N438   N     0.98241   0.84741   0.26416   0.00000  Uiso   1.00
N439   N     0.68426   0.81926   0.23584   0.00000  Uiso   1.00
O440   O     0.79464   0.90474   0.24633   0.00000  Uiso   1.00
O441   O     0.72390   0.84956   0.09521   0.00000  Uiso   1.00
O442   O     0.88013   0.71350   0.33428   0.00000  Uiso   1.00
O443   O     0.89524   0.91422   0.25586   0.00000  Uiso   1.00
O444   O     0.75848   0.82627   0.31839   0.00000  Uiso   1.00
O445   O     0.85908   0.83575   0.32793   0.00000  Uiso   1.00
O446   O     0.77142   0.75245   0.24413   0.00000  Uiso   1.00
O447   O     0.87203   0.76193   0.25367   0.00000  Uiso   1.00
O448   O     0.80758   0.83092   0.17207   0.00000  Uiso   1.00
O449   O     0.90819   0.84040   0.18160   0.00000  Uiso   1.00
O450   O     0.98071   0.85682   0.35046   0.00000  Uiso   1.00
C451   C     0.18045   0.26650   0.75487   0.00000  Uiso   1.00
C452   C     0.11167   0.16287   0.90372   0.00000  Uiso   1.00
C453   C     0.18397   0.32162   0.76677   0.00000  Uiso   1.00
C454   C     0.13314   0.16503   0.84732   0.00000  Uiso   1.00
C455   C     0.14366   0.01079   0.75031   0.00000  Uiso   1.00
C456   C     0.15099   0.06675   0.75061   0.00000  Uiso   1.00
C457   C     0.20039   0.17115   0.65295   0.00000  Uiso   1.00
C458   C     0.28217   0.24380   0.53243   0.00000  Uiso   1.00
C459   C     0.22035   0.18365   0.59835   0.00000  Uiso   1.00
C460   C     0.05318   0.13111   0.92345   0.00000  Uiso   1.00
C461   C     0.03283   0.12463   0.97615   0.00000  Uiso   1.00
C462   C     0.13463   0.17396   0.99047   0.00000  Uiso   1.00
C463   C     0.07186   0.14673   0.51041   0.00000  Uiso   1.00
C464   C     0.00186   0.20834   0.80777   0.00000  Uiso   1.00
C465   C     0.04122   0.14653   0.56576   0.00000  Uiso   1.00
C466   C     0.22798   0.01480   0.80052   0.00000  Uiso   1.00
C467   C     0.15060   0.18799   0.93793   0.00000  Uiso   1.00
C468   C     0.18233   0.18817   0.52000   0.00000  Uiso   1.00
C469   C     0.23727   0.22653   0.50172   0.00000  Uiso   1.00
C470   C     0.24644   0.24732   0.95322   0.00000  Uiso   1.00
C471   C     0.20440   0.22754   0.92127   0.00000  Uiso   1.00
C472   C     0.17861   0.16348   0.56591   0.00000  Uiso   1.00
C473   C     0.27250   0.22379   0.58139   0.00000  Uiso   1.00
Cu474  Cu    0.10710   0.16105   0.74435   0.00000  Uiso   1.00
Cu475  Cu    0.22623   0.17228   0.75564   0.00000  Uiso   1.00
H476   H     0.10786   0.32109   0.73085   0.00000  Uiso   1.00
H477   H     0.03264   0.24696   0.80414   0.00000  Uiso   1.00
H478   H     0.00154   0.11512   0.58007   0.00000  Uiso   1.00
H479   H     0.27226   0.00342   0.79735   0.00000  Uiso   1.00
H480   H     0.33210   0.13104   0.70667   0.00000  Uiso   1.00
H481   H     0.28742   0.27756   0.93914   0.00000  Uiso   1.00
H482   H     0.32345   0.27411   0.51936   0.00000  Uiso   1.00
H483   H     0.14196   0.12945   0.57814   0.00000  Uiso   1.00
H484   H     0.02255   0.11164   0.89801   0.00000  Uiso   1.00
H485   H     0.31889   0.10297   0.99039   0.00000  Uiso   1.00
H486   H     0.21393   0.24443   0.88371   0.00000  Uiso   1.00
H487   H     0.30437   0.24093   0.60659   0.00000  Uiso   1.00
N488   N     0.31574   0.18074   0.76416   0.00000  Uiso   1.00
N489   N     0.01759   0.15259   0.73584   0.00000  Uiso   1.00
O490   O     0.12797   0.23807   0.74633   0.00000  Uiso   1.00
O491   O     0.05724   0.18290   0.59521   0.00000  Uiso   1.00
O492   O     0.21346   0.04683   0.83428   0.00000  Uiso   1.00
O493   O     0.22858   0.24755   0.75586   0.00000  Uiso   1.00
O494   O     0.09181   0.15960   0.81839   0.00000  Uiso   1.00
O495   O     0.19242   0.16908   0.82793   0.00000  Uiso   1.00
O496   O     0.10476   0.08578   0.74413   0.00000  Uiso   1.00
O497   O     0.20536   0.09526   0.75367   0.00000  Uiso   1.00
O498   O     0.14092   0.16425   0.67207   0.00000  Uiso   1.00
O499   O     0.24152   0.17373   0.68160   0.00000  Uiso   1.00
O500   O     0.31404   0.19015   0.85046   0.00000  Uiso   1.00
C501   C     0.51378   0.26650   0.75487   0.00000  Uiso   1.00
C502   C     0.44500   0.16287   0.90372   0.00000  Uiso   1.00
C503   C     0.51730   0.32162   0.76677   0.00000  Uiso   1.00
C504   C     0.46647   0.16503   0.84732   0.00000  Uiso   1.00
C505   C     0.47700   0.01079   0.75031   0.00000  Uiso   1.00
C506   C     0.48433   0.06675   0.75061   0.00000  Uiso   1.00
C507   C     0.53372   0.17115   0.65295   0.00000  Uiso   1.00
C508   C     0.61550   0.24380   0.53243   0.00000  Uiso   1.00
C509   C     0.55368   0.18365   0.59835   0.00000  Uiso   1.00
C510   C     0.38652   0.13111   0.92345   0.00000  Uiso   1.00
C511   C     0.36616   0.12463   0.97615   0.00000  Uiso   1.00
C512   C     0.46796   0.17396   0.99047   0.00000  Uiso   1.00
C513   C     0.40519   0.14673   0.51041   0.00000  Uiso   1.00
C514   C     0.33519   0.20834   0.80777   0.00000  Uiso   1.00
C515   C     0.37455   0.14653   0.56576   0.00000  Uiso   1.00
C516   C     0.56132   0.01480   0.80052   0.00000  Uiso   1.00
C517   C     0.48394   0.18799   0.93793   0.00000  Uiso   1.00
C518   C     0.51566   0.18817   0.52000   0.00000  Uiso   1.00
C519   C     0.57060   0.22653   0.50172   0.00000  Uiso   1.00
C520   C     0.57977   0.24732   0.95322   0.00000  Uiso   1.00
C521   C     0.53773   0.22754   0.92127   0.00000  Uiso   1.00
C522   C     0.51195   0.16348   0.56591   0.00000  Uiso   1.00
C523   C     0.60584   0.22379   0.58139   0.00000  Uiso   1.00
Cu524  Cu    0.44043   0.16105   0.74435   0.00000  Uiso   1.00
Cu525  Cu    0.55957   0.17228   0.75564   0.00000  Uiso   1.00
H526   H     0.44120   0.32109   0.73085   0.00000  Uiso   1.00
H527   H     0.36598   0.24696   0.80414   0.00000  Uiso   1.00
H528   H     0.33488   0.11512   0.58007   0.00000  Uiso   1.00
H529   H     0.60559   0.00342   0.79735   0.00000  Uiso   1.00
H530   H     0.66543   0.13104   0.70667   0.00000  Uiso   1.00
H531   H     0.62075   0.27756   0.93914   0.00000  Uiso   1.00
H532   H     0.65678   0.27411   0.51936   0.00000  Uiso   1.00
H533   H     0.47529   0.12945   0.57814   0.00000  Uiso   1.00
H534   H     0.35589   0.11164   0.89801   0.00000  Uiso   1.00
H535   H     0.65222   0.10297   0.99039   0.00000  Uiso   1.00
H536   H     0.54726   0.24443   0.88371   0.00000  Uiso   1.00
H537   H     0.63771   0.24093   0.60659   0.00000  Uiso   1.00
N538   N     0.64908   0.18074   0.76416   0.00000  Uiso   1.00
N539   N     0.35092   0.15259   0.73584   0.00000  Uiso   1.00
O540   O     0.46131   0.23807   0.74633   0.00000  Uiso   1.00
O541   O     0.39057   0.18290   0.59521   0.00000  Uiso   1.00
O542   O     0.54679   0.04683   0.83428   0.00000  Uiso   1.00
O543   O     0.56191   0.24755   0.75586   0.00000  Uiso   1.00
O544   O     0.42515   0.15960   0.81839   0.00000  Uiso   1.00
O545   O     0.52575   0.16908   0.82793   0.00000  Uiso   1.00
O546   O     0.43809   0.08578   0.74413   0.00000  Uiso   1.00
O547   O     0.53869   0.09526   0.75367   0.00000  Uiso   1.00
O548   O     0.47425   0.16425   0.67207   0.00000  Uiso   1.00
O549   O     0.57485   0.17373   0.68160   0.00000  Uiso   1.00
O550   O     0.64737   0.19015   0.85046   0.00000  Uiso   1.00
C551   C     0.84711   0.26650   0.75487   0.00000  Uiso   1.00
C552   C     0.77833   0.16287   0.90372   0.00000  Uiso   1.00
C553   C     0.85063   0.32162   0.76677   0.00000  Uiso   1.00
C554   C     0.79980   0.16503   0.84732   0.00000  Uiso   1.00
C555   C     0.81033   0.01079   0.75031   0.00000  Uiso   1.00
C556   C     0.81766   0.06675   0.75061   0.00000  Uiso   1.00
C557   C     0.86706   0.17115   0.65295   0.00000  Uiso   1.00
C558   C     0.94883   0.24380   0.53243   0.00000  Uiso   1.00
C559   C     0.88701   0.18365   0.59835   0.00000  Uiso   1.00
C560   C     0.71985   0.13111   0.92345   0.00000  Uiso   1.00
C561   C     0.69949   0.12463   0.97615   0.00000  Uiso   1.00
C562   C     0.80129   0.17396   0.99047   0.00000  Uiso   1.00
C563   C     0.73852   0.14673   0.51041   0.00000  Uiso   1.00
C564   C     0.66852   0.20834   0.80777   0.00000  Uiso   1.00
C565   C     0.70788   0.14653   0.56576   0.00000  Uiso   1.00
C566   C     0.89465   0.01480   0.80052   0.00000  Uiso   1.00
C567   C     0.81727   0.18799   0.93793   0.00000  Uiso   1.00
C568   C     0.84900   0.18817   0.52000   0.00000  Uiso   1.00
C569   C     0.90393   0.22653   0.50172   0.00000  Uiso   1.00
C570   C     0.91310   0.24732   0.95322   0.00000  Uiso   1.00
C571   C     0.87106   0.22754   0.92127   0.00000  Uiso   1.00
C572   C     0.84528   0.16348   0.56591   0.00000  Uiso   1.00
C573   C     0.93917   0.22379   0.58139   0.00000  Uiso   1.00
Cu574  Cu    0.77377   0.16105   0.74435   0.00000  Uiso   1.00
Cu575  Cu    0.89290   0.17228   0.75564   0.00000  Uiso   1.00
H576   H     0.77453   0.32109   0.73085   0.00000  Uiso   1.00
H577   H     0.69931   0.24696   0.80414   0.00000  Uiso   1.00
H578   H     0.66821   0.11512   0.58007   0.00000  Uiso   1.00
H579   H     0.93892   0.00342   0.79735   0.00000  Uiso   1.00
H580   H     0.99877   0.13104   0.70667   0.00000  Uiso   1.00
H581   H     0.95408   0.27756   0.93914   0.00000  Uiso   1.00
H582   H     0.99012   0.27411   0.51936   0.00000  Uiso   1.00
H583   H     0.80862   0.12945   0.57814   0.00000  Uiso   1.00
H584   H     0.68922   0.11164   0.89801   0.00000  Uiso   1.00
H585   H     0.98556   0.10297   0.99039   0.00000  Uiso   1.00
H586   H     0.88059   0.24443   0.88371   0.00000  Uiso   1.00
H587   H     0.97104   0.24093   0.60659   0.00000  Uiso   1.00
N588   N     0.98241   0.18074   0.76416   0.00000  Uiso   1.00
N589   N     0.68426   0.15259   0.73584   0.00000  Uiso   1.00
O590   O     0.79464   0.23807   0.74633   0.00000  Uiso   1.00
O591   O     0.72390   0.18290   0.59521   0.00000  Uiso   1.00
O592   O     0.88013   0.04683   0.83428   0.00000  Uiso   1.00
O593   O     0.89524   0.24755   0.75586   0.00000  Uiso   1.00
O594   O     0.75848   0.15960   0.81839   0.00000  Uiso   1.00
O595   O     0.85908   0.16908   0.82793   0.00000  Uiso   1.00
O596   O     0.77142   0.08578   0.74413   0.00000  Uiso   1.00
O597   O     0.87203   0.09526   0.75367   0.00000  Uiso   1.00
O598   O     0.80758   0.16425   0.67207   0.00000  Uiso   1.00
O599   O     0.90819   0.17373   0.68160   0.00000  Uiso   1.00
O600   O     0.98071   0.19015   0.85046   0.00000  Uiso   1.00
C601   C     0.18045   0.59984   0.75487   0.00000  Uiso   1.00
C602   C     0.11167   0.49620   0.90372   0.00000  Uiso   1.00
C603   C     0.18397   0.65496   0.76677   0.00000  Uiso   1.00
C604   C     0.13314   0.49837   0.84732   0.00000  Uiso   1.00
C605   C     0.14366   0.34412   0.75031   0.00000  Uiso   1.00
C606   C     0.15099   0.40009   0.75061   0.00000  Uiso   1.00
C607   C     0.20039   0.50448   0.65295   0.00000  Uiso   1.00
C608   C     0.28217   0.57713   0.53243   0.00000  Uiso   1.00
C609   C     0.22035   0.51699   0.59835   0.00000  Uiso   1.00
C610   C     0.05318   0.46444   0.92345   0.00000  Uiso   1.00
C611   C     0.03283   0.45796   0.97615   0.00000  Uiso   1.00
C612   C     0.13463   0.50729   0.99047   0.00000  Uiso   1.00
C613   C     0.07186   0.48006   0.51041   0.00000  Uiso   1.00
C614   C     0.00186   0.54167   0.80777   0.00000  Uiso   1.00
C615   C     0.04122   0.47987   0.56576   0.00000  Uiso   1.00
C616   C     0.22798   0.34813   0.80052   0.00000  Uiso   1.00
C617   C     0.15060   0.52132   0.93793   0.00000  Uiso   1.00
C618   C     0.18233   0.52150   0.52000   0.00000  Uiso   1.00
C619   C     0.23727   0.55987   0.50172   0.00000  Uiso   1.00
C620   C     0.24644   0.58065   0.95322   0.00000  Uiso   1.00
C621   C     0.20440   0.56088   0.92127   0.00000  Uiso   1.00
C622   C     0.17861   0.49682   0.56591   0.00000  Uiso   1.00
C623   C     0.27250   0.55713   0.58139   0.00000  Uiso   1.00
Cu624  Cu    0.10710   0.49439   0.74435   0.00000  Uiso   1.00
Cu625  Cu    0.22623   0.50561   0.75564   0.00000  Uiso   1.00
H626   H     0.10786   0.65442   0.73085   0.00000  Uiso   1.00
H627   H     0.03264   0.58030   0.80414   0.00000  Uiso   1.00
H628   H     0.00154   0.44846   0.58007   0.00000  Uiso   1.00
H629   H     0.27226   0.33676   0.79735   0.00000  Uiso   1.00
H630   H     0.33210   0.46437   0.70667   0.00000  Uiso   1.00
H631   H     0.28742   0.61089   0.93914   0.00000  Uiso   1.00
H632   H     0.32345   0.60744   0.51936   0.00000  Uiso   1.00
H633   H     0.14196   0.46279   0.57814   0.00000  Uiso   1.00
H634   H     0.02255   0.44498   0.89801   0.00000  Uiso   1.00
H635   H     0.31889   0.43630   0.99039   0.00000  Uiso   1.00
H636   H     0.21393   0.57776   0.88371   0.00000  Uiso   1.00
H637   H     0.30437   0.57426   0.60659   0.00000  Uiso   1.00
N638   N     0.31574   0.51407   0.76416   0.00000  Uiso   1.00
N639   N     0.01759   0.48593   0.73584   0.00000  Uiso   1.00
O640   O     0.12797   0.57141   0.74633   0.00000  Uiso   1.00
O641   O     0.05724   0.51623   0.59521   0.00000  Uiso   1.00
O642   O     0.21346   0.38017   0.83428   0.00000  Uiso   1.00
O643   O     0.22858   0.58089   0.75586   0.00000  Uiso   1.00
O644   O     0.09181   0.49293   0.81839   0.00000  Uiso   1.00
O645   O     0.19242   0.50241   0.82793   0.00000  Uiso   1.00
O646   O     0.10476   0.41911   0.74413   0.00000  Uiso   1.00
O647   O     0.20536   0.42859   0.75367   0.00000  Uiso   1.00
O648   O     0.14092   0.49759   0.67207   0.00000  Uiso   1.00
O649   O     0.24152   0.50707   0.68160   0.00000  Uiso   1.00
O650   O     0.31404   0.52349   0.85046   0.00000  Uiso   1.00
C651   C     0.51378   0.59984   0.75487   0.00000  Uiso   1.00
C652   C     0.44500   0.49620   0.90372   0.00000  Uiso   1.00
C653   C     0.51730   0.65496   0.76677   0.00000  Uiso   1.00
C654   C     0.46647   0.49837   0.84732   0.00000  Uiso   1.00
C655   C     0.47700   0.34412   0.75031   0.00000  Uiso   1.00
C656   C     0.48433   0.40009   0.75061   0.00000  Uiso   1.00
C657   C     0.53372   0.50448   0.65295   0.00000  Uiso   1.00
C658   C     0.61550   0.57713   0.53243   0.00000  Uiso   1.00
C659   C     0.55368   0.51699   0.59835   0.00000  Uiso   1.00
C660   C     0.38652   0.46444   0.92345   0.00000  Uiso   1.00
C661   C     0.36616   0.45796   0.97615   0.00000  Uiso   1.00
C662   C     0.46796   0.50729   0.99047   0.00000  Uiso   1.00
C663   C     0.40519   0.48006   0.51041   0.00000  Uiso   1.00
C664   C     0.33519   0.54167   0.80777   0.00000  Uiso   1.00
C665   C     0.37455   0.47987   0.56576   0.00000  Uiso   1.00
C666   C     0.56132   0.34813   0.80052   0.00000  Uiso   1.00
C667   C     0.48394   0.52132   0.93793   0.00000  Uiso   1.00
C668   C     0.51566   0.52150   0.52000   0.00000  Uiso   1.00
C669   C     0.57060   0.55987   0.50172   0.00000  Uiso   1.00
C670   C     0.57977   0.58065   0.95322   0.00000  Uiso   1.00
C671   C     0.53773   0.56088   0.92127   0.00000  Uiso   1.00
C672   C     0.51195   0.49682   0.56591   0.00000  Uiso   1.00
C673   C     0.60584   0.55713   0.58139   0.00000  Uiso   1.00
Cu674  Cu    0.44043   0.49439   0.74435   0.00000  Uiso   1.00
Cu675  Cu    0.55957   0.50561   0.75564   0.00000  Uiso   1.00
H676   H     0.44120   0.65442   0.73085   0.00000  Uiso   1.00
H677   H     0.36598   0.58030   0.80414   0.00000  Uiso   1.00
H678   H     0.33488   0.44846   0.58007   0.00000  Uiso   1.00
H679   H     0.60559   0.33676   0.79735   0.00000  Uiso   1.00
H680   H     0.66543   0.46437   0.70667   0.00000  Uiso   1.00
H681   H     0.62075   0.61089   0.93914   0.00000  Uiso   1.00
H682   H     0.65678   0.60744   0.51936   0.00000  Uiso   1.00
H683   H     0.47529   0.46279   0.57814   0.00000  Uiso   1.00
H684   H     0.35589   0.44498   0.89801   0.00000  Uiso   1.00
H685   H     0.65222   0.43630   0.99039   0.00000  Uiso   1.00
H686   H     0.54726   0.57776   0.88371   0.00000  Uiso   1.00
H687   H     0.63771   0.57426   0.60659   0.00000  Uiso   1.00
N688   N     0.64908   0.51407   0.76416   0.00000  Uiso   1.00
N689   N     0.35092   0.48593   0.73584   0.00000  Uiso   1.00
O690   O     0.46131   0.57141   0.74633   0.00000  Uiso   1.00
O691   O     0.39057   0.51623   0.59521   0.00000  Uiso   1.00
O692   O     0.54679   0.38017   0.83428   0.00000  Uiso   1.00
O693   O     0.56191   0.58089   0.75586   0.00000  Uiso   1.00
O694   O     0.42515   0.49293   0.81839   0.00000  Uiso   1.00
O695   O     0.52575   0.50241   0.82793   0.00000  Uiso   1.00
O696   O     0.43809   0.41911   0.74413   0.00000  Uiso   1.00
O697   O     0.53869   0.42859   0.75367   0.00000  Uiso   1.00
O698   O     0.47425   0.49759   0.67207   0.00000  Uiso   1.00
O699   O     0.57485   0.50707   0.68160   0.00000  Uiso   1.00
O700   O     0.64737   0.52349   0.85046   0.00000  Uiso   1.00
C701   C     0.84711   0.59984   0.75487   0.00000  Uiso   1.00
C702   C     0.77833   0.49620   0.90372   0.00000  Uiso   1.00
C703   C     0.85063   0.65496   0.76677   0.00000  Uiso   1.00
C704   C     0.79980   0.49837   0.84732   0.00000  Uiso   1.00
C705   C     0.81033   0.34412   0.75031   0.00000  Uiso   1.00
C706   C     0.81766   0.40009   0.75061   0.00000  Uiso   1.00
C707   C     0.86706   0.50448   0.65295   0.00000  Uiso   1.00
C708   C     0.94883   0.57713   0.53243   0.00000  Uiso   1.00
C709   C     0.88701   0.51699   0.59835   0.00000  Uiso   1.00
C710   C     0.71985   0.46444   0.92345   0.00000  Uiso   1.00
C711   C     0.69949   0.45796   0.97615   0.00000  Uiso   1.00
C712   C     0.80129   0.50729   0.99047   0.00000  Uiso   1.00
C713   C     0.73852   0.48006   0.51041   0.00000  Uiso   1.00
C714   C     0.66852   0.54167   0.80777   0.00000  Uiso   1.00
C715   C     0.70788   0.47987   0.56576   0.00000  Uiso   1.00
C716   C     0.89465   0.34813   0.80052   0.00000  Uiso   1.00
C717   C     0.81727   0.52132   0.93793   0.00000  Uiso   1.00
C718   C     0.84900   0.52150   0.52000   0.00000  Uiso   1.00
C719   C     0.90393   0.55987   0.50172   0.00000  Uiso   1.00
C720   C     0.91310   0.58065   0.95322   0.00000  Uiso   1.00
C721   C     0.87106   0.56088   0.92127   0.00000  Uiso   1.00
C722   C     0.84528   0.49682   0.56591   0.00000  Uiso   1.00
C723   C     0.93917   0.55713   0.58139   0.00000  Uiso   1.00
Cu724  Cu    0.77377   0.49439   0.74435   0.00000  Uiso   1.00
Cu725  Cu    0.89290   0.50561   0.75564   0.00000  Uiso   1.00
H726   H     0.77453   0.65442   0.73085   0.00000  Uiso   1.00
H727   H     0.69931   0.58030   0.80414   0.00000  Uiso   1.00
H728   H     0.66821   0.44846   0.58007   0.00000  Uiso   1.00
H729   H     0.93892   0.33676   0.79735   0.00000  Uiso   1.00
H730   H     0.99877   0.46437   0.70667   0.00000  Uiso   1.00
H731   H     0.95408   0.61089   0.93914   0.00000  Uiso   1.00
H732   H     0.99012   0.60744   0.51936   0.00000  Uiso   1.00
H733   H     0.80862   0.46279   0.57814   0.00000  Uiso   1.00
H734   H     0.68922   0.44498   0.89801   0.00000  Uiso   1.00
H735   H     0.98556   0.43630   0.99039   0.00000  Uiso   1.00
H736   H     0.88059   0.57776   0.88371   0.00000  Uiso   1.00
H737   H     0.97104   0.57426   0.60659   0.00000  Uiso   1.00
N738   N     0.98241   0.51407   0.76416   0.00000  Uiso   1.00
N739   N     0.68426   0.48593   0.73584   0.00000  Uiso   1.00
O740   O     0.79464   0.57141   0.74633   0.00000  Uiso   1.00
O741   O     0.72390   0.51623   0.59521   0.00000  Uiso   1.00
O742   O     0.88013   0.38017   0.83428   0.00000  Uiso   1.00
O743   O     0.89524   0.58089   0.75586   0.00000  Uiso   1.00
O744   O     0.75848   0.49293   0.81839   0.00000  Uiso   1.00
O745   O     0.85908   0.50241   0.82793   0.00000  Uiso   1.00
O746   O     0.77142   0.41911   0.74413   0.00000  Uiso   1.00
O747   O     0.87203   0.42859   0.75367   0.00000  Uiso   1.00
O748   O     0.80758   0.49759   0.67207   0.00000  Uiso   1.00
O749   O     0.90819   0.50707   0.68160   0.00000  Uiso   1.00
O750   O     0.98071   0.52349   0.85046   0.00000  Uiso   1.00
C751   C     0.18045   0.93317   0.75487   0.00000  Uiso   1.00
C752   C     0.11167   0.82954   0.90372   0.00000  Uiso   1.00
C753   C     0.18397   0.98829   0.76677   0.00000  Uiso   1.00
C754   C     0.13314   0.83170   0.84732   0.00000  Uiso   1.00
C755   C     0.14366   0.67745   0.75031   0.00000  Uiso   1.00
C756   C     0.15099   0.73342   0.75061   0.00000  Uiso   1.00
C757   C     0.20039   0.83781   0.65295   0.00000  Uiso   1.00
C758   C     0.28217   0.91046   0.53243   0.00000  Uiso   1.00
C759   C     0.22035   0.85032   0.59835   0.00000  Uiso   1.00
C760   C     0.05318   0.79778   0.92345   0.00000  Uiso   1.00
C761   C     0.03283   0.79130   0.97615   0.00000  Uiso   1.00
C762   C     0.13463   0.84063   0.99047   0.00000  Uiso   1.00
C763   C     0.07186   0.81339   0.51041   0.00000  Uiso   1.00
C764   C     0.00186   0.87501   0.80777   0.00000  Uiso   1.00
C765   C     0.04122   0.81320   0.56576   0.00000  Uiso   1.00
C766   C     0.22798   0.68146   0.80052   0.00000  Uiso   1.00
C767   C     0.15060   0.85465   0.93793   0.00000  Uiso   1.00
C768   C     0.18233   0.85484   0.52000   0.00000  Uiso   1.00
C769   C     0.23727   0.89320   0.50172   0.00000  Uiso   1.00
C770   C     0.24644   0.91399   0.95322   0.00000  Uiso   1.00
C771   C     0.20440   0.89421   0.92127   0.00000  Uiso   1.00
C772   C     0.17861   0.83015   0.56591   0.00000  Uiso   1.00
C773   C     0.27250   0.89046   0.58139   0.00000  Uiso   1.00
Cu774  Cu    0.10710   0.82772   0.74435   0.00000  Uiso   1.00
Cu775  Cu    0.22623   0.83895   0.75564   0.00000  Uiso   1.00
H776   H     0.10786   0.98776   0.73085   0.00000  Uiso   1.00
H777   H     0.03264   0.91363   0.80414   0.00000  Uiso   1.00
H778   H     0.00154   0.78179   0.58007   0.00000  Uiso   1.00
H779   H     0.27226   0.67009   0.79735   0.00000  Uiso   1.00
H780   H     0.33210   0.79771   0.70667   0.00000  Uiso   1.00
H781   H     0.28742   0.94422   0.93914   0.00000  Uiso   1.00
H782   H     0.32345   0.94078   0.51936   0.00000  Uiso   1.00
H783   H     0.14196   0.79612   0.57814   0.00000  Uiso   1.00
H784   H     0.02255   0.77831   0.89801   0.00000  Uiso   1.00
H785   H     0.31889   0.76964   0.99039   0.00000  Uiso   1.00
H786   H     0.21393   0.91110   0.88371   0.00000  Uiso   1.00
H787   H     0.30437   0.90759   0.60659   0.00000  Uiso   1.00
N788   N     0.31574   0.84741   0.76416   0.00000  Uiso   1.00
N789   N     0.01759   0.81926   0.73584   0.00000  Uiso   1.00
O790   O     0.12797   0.90474   0.74633   0.00000  Uiso   1.00
O791   O     0.05724   0.84956   0.59521   0.00000  Uiso   1.00
O792   O     0.21346   0.71350   0.83428   0.00000  Uiso   1.00
O793   O     0.22858   0.91422   0.75586   0.00000  Uiso   1.00
O794   O     0.09181   0.82627   0.81839   0.00000  Uiso   1.00
O795   O     0.19242   0.83575   0.82793   0.00000  Uiso   1.00
O796   O     0.10476   0.75245   0.74413   0.00000  Uiso   1.00
O797   O     0.20536   0.76193   0.75367   0.00000  Uiso   1.00
O798   O     0.14092   0.83092   0.67207   0.00000  Uiso   1.00
O799   O     0.24152   0.84040   0.68160   0.00000  Uiso   1.00
O800   O     0.31404   0.85682   0.85046   0.00000  Uiso   1.00
C801   C     0.51378   0.93317   0.75487   0.00000  Uiso   1.00
C802   C     0.44500   0.82954   0.90372   0.00000  Uiso   1.00
C803   C     0.51730   0.98829   0.76677   0.00000  Uiso   1.00
C804   C     0.46647   0.83170   0.84732   0.00000  Uiso   1.00
C805   C     0.47700   0.67745   0.75031   0.00000  Uiso   1.00
C806   C     0.48433   0.73342   0.75061   0.00000  Uiso   1.00
C807   C     0.53372   0.83781   0.65295   0.00000  Uiso   1.00
C808   C     0.61550   0.91046   0.53243   0.00000  Uiso   1.00
C809   C     0.55368   0.85032   0.59835   0.00000  Uiso   1.00
C810   C     0.38652   0.79778   0.92345   0.00000  Uiso   1.00
C811   C     0.36616   0.79130   0.97615   0.00000  Uiso   1.00
C812   C     0.46796   0.84063   0.99047   0.00000  Uiso   1.00
C813   C     0.40519   0.81339   0.51041   0.00000  Uiso   1.00
C814   C     0.33519   0.87501   0.80777   0.00000  Uiso   1.00
C815   C     0.37455   0.81320   0.56576   0.00000  Uiso   1.00
C816   C     0.56132   0.68146   0.80052   0.00000  Uiso   1.00
C817   C     0.48394   0.85465   0.93793   0.00000  Uiso   1.00
C818   C     0.51566   0.85484   0.52000   0.00000  Uiso   1.00
C819   C     0.57060   0.89320   0.50172   0.00000  Uiso   1.00
C820   C     0.57977   0.91399   0.95322   0.00000  Uiso   1.00
C821   C     0.53773   0.89421   0.92127   0.00000  Uiso   1.00
C822   C     0.51195   0.83015   0.56591   0.00000  Uiso   1.00
C823   C     0.60584   0.89046   0.58139   0.00000  Uiso   1.00
Cu824  Cu    0.44043   0.82772   0.74435   0.00000  Uiso   1.00
Cu825  Cu    0.55957   0.83895   0.75564   0.00000  Uiso   1.00
H826   H     0.44120   0.98776   0.73085   0.00000  Uiso   1.00
H827   H     0.36598   0.91363   0.80414   0.00000  Uiso   1.00
H828   H     0.33488   0.78179   0.58007   0.00000  Uiso   1.00
H829   H     0.60559   0.67009   0.79735   0.00000  Uiso   1.00
H830   H     0.66543   0.79771   0.70667   0.00000  Uiso   1.00
H831   H     0.62075   0.94422   0.93914   0.00000  Uiso   1.00
H832   H     0.65678   0.94078   0.51936   0.00000  Uiso   1.00
H833   H     0.47529   0.79612   0.57814   0.00000  Uiso   1.00
H834   H     0.35589   0.77831   0.89801   0.00000  Uiso   1.00
H835   H     0.65222   0.76964   0.99039   0.00000  Uiso   1.00
H836   H     0.54726   0.91110   0.88371   0.00000  Uiso   1.00
H837   H     0.63771   0.90759   0.60659   0.00000  Uiso   1.00
N838   N     0.64908   0.84741   0.76416   0.00000  Uiso   1.00
N839   N     0.35092   0.81926   0.73584   0.00000  Uiso   1.00
O840   O     0.46131   0.90474   0.74633   0.00000  Uiso   1.00
O841   O     0.39057   0.84956   0.59521   0.00000  Uiso   1.00
O842   O     0.54679   0.71350   0.83428   0.00000  Uiso   1.00
O843   O     0.56191   0.91422   0.75586   0.00000  Uiso   1.00
O844   O     0.42515   0.82627   0.81839   0.00000  Uiso   1.00
O845   O     0.52575   0.83575   0.82793   0.00000  Uiso   1.00
O846   O     0.43809   0.75245   0.74413   0.00000  Uiso   1.00
O847   O     0.53869   0.76193   0.75367   0.00000  Uiso   1.00
O848   O     0.47425   0.83092   0.67207   0.00000  Uiso   1.00
O849   O     0.57485   0.84040   0.68160   0.00000  Uiso   1.00
O850   O     0.64737   0.85682   0.85046   0.00000  Uiso   1.00
C851   C     0.84711   0.93317   0.75487   0.00000  Uiso   1.00
C852   C     0.77833   0.82954   0.90372   0.00000  Uiso   1.00
C853   C     0.85063   0.98829   0.76677   0.00000  Uiso   1.00
C854   C     0.79980   0.83170   0.84732   0.00000  Uiso   1.00
C855   C     0.81033   0.67745   0.75031   0.00000  Uiso   1.00
C856   C     0.81766   0.73342   0.75061   0.00000  Uiso   1.00
C857   C     0.86706   0.83781   0.65295   0.00000  Uiso   1.00
C858   C     0.94883   0.91046   0.53243   0.00000  Uiso   1.00
C859   C     0.88701   0.85032   0.59835   0.00000  Uiso   1.00
C860   C     0.71985   0.79778   0.92345   0.00000  Uiso   1.00
C861   C     0.69949   0.79130   0.97615   0.00000  Uiso   1.00
C862   C     0.80129   0.84063   0.99047   0.00000  Uiso   1.00
C863   C     0.73852   0.81339   0.51041   0.00000  Uiso   1.00
C864   C     0.66852   0.87501   0.80777   0.00000  Uiso   1.00
C865   C     0.70788   0.81320   0.56576   0.00000  Uiso   1.00
C866   C     0.89465   0.68146   0.80052   0.00000  Uiso   1.00
C867   C     0.81727   0.85465   0.93793   0.00000  Uiso   1.00
C868   C     0.84900   0.85484   0.52000   0.00000  Uiso   1.00
C869   C     0.90393   0.89320   0.50172   0.00000  Uiso   1.00
C870   C     0.91310   0.91399   0.95322   0.00000  Uiso   1.00
C871   C     0.87106   0.89421   0.92127   0.00000  Uiso   1.00
C872   C     0.84528   0.83015   0.56591   0.00000  Uiso   1.00
C873   C     0.93917   0.89046   0.58139   0.00000  Uiso   1.00
Cu874  Cu    0.77377   0.82772   0.74435   0.00000  Uiso   1.00
Cu875  Cu    0.89290   0.83895   0.75564   0.00000  Uiso   1.00
H876   H     0.77453   0.98776   0.73085   0.00000  Uiso   1.00
H877   H     0.69931   0.91363   0.80414   0.00000  Uiso   1.00
H878   H     0.66821   0.78179   0.58007   0.00000  Uiso   1.00
H879   H     0.93892   0.67009   0.79735   0.00000  Uiso   1.00
H880   H     0.99877   0.79771   0.70667   0.00000  Uiso   1.00
H881   H     0.95408   0.94422   0.93914   0.00000  Uiso   1.00
H882   H     0.99012   0.94078   0.51936   0.00000  Uiso   1.00
H883   H     0.80862   0.79612   0.57814   0.00000  Uiso   1.00
H884   H     0.68922   0.77831   0.89801   0.00000  Uiso   1.00
H885   H     0.98556   0.76964   0.99039   0.00000  Uiso   1.00
H886   H     0.88059   0.91110   0.88371   0.00000  Uiso   1.00
H887   H     0.97104   0.90759   0.60659   0.00000  Uiso   1.00
N888   N     0.98241   0.84741   0.76416   0.00000  Uiso   1.00
N889   N     0.68426   0.81926   0.73584   0.00000  Uiso   1.00
O890   O     0.79464   0.90474   0.74633   0.00000  Uiso   1.00
O891   O     0.72390   0.84956   0.59521   0.00000  Uiso   1.00
O892   O     0.88013   0.71350   0.83428   0.00000  Uiso   1.00
O893   O     0.89524   0.91422   0.75586   0.00000  Uiso   1.00
O894   O     0.75848   0.82627   0.81839   0.00000  Uiso   1.00
O895   O     0.85908   0.83575   0.82793   0.00000  Uiso   1.00
O896   O     0.77142   0.75245   0.74413   0.00000  Uiso   1.00
O897   O     0.87203   0.76193   0.75367   0.00000  Uiso   1.00
O898   O     0.80758   0.83092   0.67207   0.00000  Uiso   1.00
O899   O     0.90819   0.84040   0.68160   0.00000  Uiso   1.00
O900   O     0.98071   0.85682   0.85046   0.00000  Uiso   1.00
loop_
_geom_bond_atom_site_label_1
_geom_bond_atom_site_label_2
_geom_bond_distance
_geom_bond_site_symmetry_2
_ccdc_geom_bond_type
C1     O40     1.295   .     A
C1     O43     1.293   .     A
C1     C3      1.436   .     S
C2     C4      1.474   .     S
C2     C17     1.416   .     A
C2     C10     1.400   .     A
C3     C155    1.344   .     S
C3     C166    1.493   .     S
C4     O45     1.303   .     A
C4     O44     1.304   .     A
C5     C6      1.432   .     S
C5     C303    1.344   1_545 S
C5     H326    1.088   1_545 S
C6     O46     1.296   .     A
C6     O47     1.291   .     A
C7     O48     1.299   .     A
C7     O49     1.305   .     A
C7     C9      1.463   .     S
C8     C23     1.395   .     A
C8     C19     1.404   .     A
C8     H32     1.084   .     S
C9     C22     1.396   .     A
C9     C23     1.399   .     A
C10    H34     1.083   .     S
C10    C11     1.388   .     A
C11    C463    1.399   .     S
C11    H135    1.084   1_455 S
C12    C17     1.420   .     A
C12    C463    1.432   .     S
C12    C468    1.426   .     S
C13    C15     1.484   .     S
C13    C462    1.432   1_554 S
C13    C461    1.399   1_554 S
C14    H27     1.082   .     S
C14    N138    1.412   1_455 S
C14    O150    1.219   1_455 S
C15    H28     1.086   .     S
C15    O41     1.221   .     D
C16    O42     1.222   .     D
C16    H29     1.085   .     S
C16    C303    1.493   1_545 S
C17    C21     1.411   .     A
C18    C22     1.402   .     A
C18    C19     1.419   .     A
C18    C462    1.426   1_554 S
C19    C470    1.393   1_554 S
C20    C21     1.389   .     A
C20    H31     1.084   .     S
C20    C469    1.393   .     S
C21    H36     1.081   .     S
C22    H33     1.081   .     S
C23    H37     1.083   .     S
Cu24   Cu25    2.702   .     S
Cu24   O46     1.953   .     S
Cu24   O44     1.925   .     S
Cu24   O40     1.956   .     S
Cu24   O48     1.909   .     S
Cu24   N39     2.030   .     S
Cu25   O47     1.956   .     S
Cu25   O43     1.953   .     S
Cu25   N38     2.030   .     S
Cu25   O49     1.925   .     S
Cu25   O45     1.909   .     S
H26    C155    1.088   .     S
H30    N89     1.029   .     S
H35    C61     1.084   .     S
N38    C64     1.412   .     S
N38    N89     1.286   .     S
N39    N138    1.286   1_455 S
N39    H130    1.029   1_455 S
O50    C64     1.219   .     S
C51    O90     1.295   .     A
C51    O93     1.293   .     A
C51    C53     1.436   .     S
C52    C54     1.474   .     S
C52    C67     1.416   .     A
C52    C60     1.400   .     A
C53    C205    1.344   .     S
C53    C216    1.493   .     S
C54    O95     1.303   .     A
C54    O94     1.304   .     A
C55    C56     1.432   .     S
C55    C353    1.344   1_545 S
C55    H376    1.088   1_545 S
C56    O96     1.296   .     A
C56    O97     1.291   .     A
C57    O98     1.299   .     A
C57    O99     1.305   .     A
C57    C59     1.463   .     S
C58    C73     1.395   .     A
C58    C69     1.404   .     A
C58    H82     1.084   .     S
C59    C72     1.396   .     A
C59    C73     1.399   .     A
C60    H84     1.083   .     S
C60    C61     1.388   .     A
C61    C513    1.399   .     S
C62    C67     1.420   .     A
C62    C513    1.432   .     S
C62    C518    1.426   .     S
C63    C65     1.484   .     S
C63    C512    1.432   1_554 S
C63    C511    1.399   1_554 S
C64    H77     1.082   .     S
C65    H78     1.086   .     S
C65    O91     1.221   .     D
C66    O92     1.222   .     D
C66    H79     1.085   .     S
C66    C353    1.493   1_545 S
C67    C71     1.411   .     A
C68    C72     1.402   .     A
C68    C69     1.419   .     A
C68    C512    1.426   1_554 S
C69    C520    1.393   1_554 S
C70    C71     1.389   .     A
C70    H81     1.084   .     S
C70    C519    1.393   .     S
C71    H86     1.081   .     S
C72    H83     1.081   .     S
C73    H87     1.083   .     S
Cu74   Cu75    2.702   .     S
Cu74   O96     1.953   .     S
Cu74   O94     1.925   .     S
Cu74   O90     1.956   .     S
Cu74   O98     1.909   .     S
Cu74   N89     2.030   .     S
Cu75   O97     1.956   .     S
Cu75   O93     1.953   .     S
Cu75   N88     2.030   .     S
Cu75   O99     1.925   .     S
Cu75   O95     1.909   .     S
H76    C205    1.088   .     S
H80    N139    1.029   .     S
H85    C111    1.084   .     S
N88    C114    1.412   .     S
N88    N139    1.286   .     S
O100   C114    1.219   .     S
C101   O140    1.295   .     A
C101   O143    1.293   .     A
C101   C103    1.436   .     S
C102   C104    1.474   .     S
C102   C117    1.416   .     A
C102   C110    1.400   .     A
C103   C255    1.344   .     S
C103   C266    1.493   .     S
C104   O145    1.303   .     A
C104   O144    1.304   .     A
C105   C106    1.432   .     S
C105   C403    1.344   1_545 S
C105   H426    1.088   1_545 S
C106   O146    1.296   .     A
C106   O147    1.291   .     A
C107   O148    1.299   .     A
C107   O149    1.305   .     A
C107   C109    1.463   .     S
C108   C123    1.395   .     A
C108   C119    1.404   .     A
C108   H132    1.084   .     S
C109   C122    1.396   .     A
C109   C123    1.399   .     A
C110   H134    1.083   .     S
C110   C111    1.388   .     A
C111   C563    1.399   .     S
C112   C117    1.420   .     A
C112   C563    1.432   .     S
C112   C568    1.426   .     S
C113   C115    1.484   .     S
C113   C562    1.432   1_554 S
C113   C561    1.399   1_554 S
C114   H127    1.082   .     S
C115   H128    1.086   .     S
C115   O141    1.221   .     D
C116   O142    1.222   .     D
C116   H129    1.085   .     S
C116   C403    1.493   1_545 S
C117   C121    1.411   .     A
C118   C122    1.402   .     A
C118   C119    1.419   .     A
C118   C562    1.426   1_554 S
C119   C570    1.393   1_554 S
C120   C121    1.389   .     A
C120   H131    1.084   .     S
C120   C569    1.393   .     S
C121   H136    1.081   .     S
C122   H133    1.081   .     S
C123   H137    1.083   .     S
Cu124  Cu125   2.702   .     S
Cu124  O146    1.953   .     S
Cu124  O144    1.925   .     S
Cu124  O140    1.956   .     S
Cu124  O148    1.909   .     S
Cu124  N139    2.030   .     S
Cu125  O147    1.956   .     S
Cu125  O143    1.953   .     S
Cu125  N138    2.030   .     S
Cu125  O149    1.925   .     S
Cu125  O145    1.909   .     S
H126   C255    1.088   .     S
H130   N39     1.029   1_655 S
H135   C11     1.084   1_655 S
N138   C14     1.412   1_655 S
N138   N39     1.286   1_655 S
O150   C14     1.219   1_655 S
C151   O190    1.295   .     A
C151   O193    1.293   .     A
C151   C153    1.436   .     S
C152   C154    1.474   .     S
C152   C167    1.416   .     A
C152   C160    1.400   .     A
C153   C305    1.344   .     S
C153   C316    1.493   .     S
C154   O195    1.303   .     A
C154   O194    1.304   .     A
C155   C156    1.432   .     S
C156   O196    1.296   .     A
C156   O197    1.291   .     A
C157   O198    1.299   .     A
C157   O199    1.305   .     A
C157   C159    1.463   .     S
C158   C173    1.395   .     A
C158   C169    1.404   .     A
C158   H182    1.084   .     S
C159   C172    1.396   .     A
C159   C173    1.399   .     A
C160   H184    1.083   .     S
C160   C161    1.388   .     A
C161   C613    1.399   .     S
C161   H285    1.084   1_455 S
C162   C167    1.420   .     A
C162   C613    1.432   .     S
C162   C618    1.426   .     S
C163   C165    1.484   .     S
C163   C612    1.432   1_554 S
C163   C611    1.399   1_554 S
C164   H177    1.082   .     S
C164   N288    1.412   1_455 S
C164   O300    1.219   1_455 S
C165   H178    1.086   .     S
C165   O191    1.221   .     D
C166   O192    1.222   .     D
C166   H179    1.085   .     S
C167   C171    1.411   .     A
C168   C172    1.402   .     A
C168   C169    1.419   .     A
C168   C612    1.426   1_554 S
C169   C620    1.393   1_554 S
C170   C171    1.389   .     A
C170   H181    1.084   .     S
C170   C619    1.393   .     S
C171   H186    1.081   .     S
C172   H183    1.081   .     S
C173   H187    1.083   .     S
Cu174  Cu175   2.702   .     S
Cu174  O196    1.953   .     S
Cu174  O194    1.925   .     S
Cu174  O190    1.956   .     S
Cu174  O198    1.909   .     S
Cu174  N189    2.030   .     S
Cu175  O197    1.956   .     S
Cu175  O193    1.953   .     S
Cu175  N188    2.030   .     S
Cu175  O199    1.925   .     S
Cu175  O195    1.909   .     S
H176   C305    1.088   .     S
H180   N239    1.029   .     S
H185   C211    1.084   .     S
N188   C214    1.412   .     S
N188   N239    1.286   .     S
N189   N288    1.286   1_455 S
N189   H280    1.029   1_455 S
O200   C214    1.219   .     S
C201   O240    1.295   .     A
C201   O243    1.293   .     A
C201   C203    1.436   .     S
C202   C204    1.474   .     S
C202   C217    1.416   .     A
C202   C210    1.400   .     A
C203   C355    1.344   .     S
C203   C366    1.493   .     S
C204   O245    1.303   .     A
C204   O244    1.304   .     A
C205   C206    1.432   .     S
C206   O246    1.296   .     A
C206   O247    1.291   .     A
C207   O248    1.299   .     A
C207   O249    1.305   .     A
C207   C209    1.463   .     S
C208   C223    1.395   .     A
C208   C219    1.404   .     A
C208   H232    1.084   .     S
C209   C222    1.396   .     A
C209   C223    1.399   .     A
C210   H234    1.083   .     S
C210   C211    1.388   .     A
C211   C663    1.399   .     S
C212   C217    1.420   .     A
C212   C663    1.432   .     S
C212   C668    1.426   .     S
C213   C215    1.484   .     S
C213   C662    1.432   1_554 S
C213   C661    1.399   1_554 S
C214   H227    1.082   .     S
C215   H228    1.086   .     S
C215   O241    1.221   .     D
C216   O242    1.222   .     D
C216   H229    1.085   .     S
C217   C221    1.411   .     A
C218   C222    1.402   .     A
C218   C219    1.419   .     A
C218   C662    1.426   1_554 S
C219   C670    1.393   1_554 S
C220   C221    1.389   .     A
C220   H231    1.084   .     S
C220   C669    1.393   .     S
C221   H236    1.081   .     S
C222   H233    1.081   .     S
C223   H237    1.083   .     S
Cu224  Cu225   2.702   .     S
Cu224  O246    1.953   .     S
Cu224  O244    1.925   .     S
Cu224  O240    1.956   .     S
Cu224  O248    1.909   .     S
Cu224  N239    2.030   .     S
Cu225  O247    1.956   .     S
Cu225  O243    1.953   .     S
Cu225  N238    2.030   .     S
Cu225  O249    1.925   .     S
Cu225  O245    1.909   .     S
H226   C355    1.088   .     S
H230   N289    1.029   .     S
H235   C261    1.084   .     S
N238   C264    1.412   .     S
N238   N289    1.286   .     S
O250   C264    1.219   .     S
C251   O290    1.295   .     A
C251   O293    1.293   .     A
C251   C253    1.436   .     S
C252   C254    1.474   .     S
C252   C267    1.416   .     A
C252   C260    1.400   .     A
C253   C405    1.344   .     S
C253   C416    1.493   .     S
C254   O295    1.303   .     A
C254   O294    1.304   .     A
C255   C256    1.432   .     S
C256   O296    1.296   .     A
C256   O297    1.291   .     A
C257   O298    1.299   .     A
C257   O299    1.305   .     A
C257   C259    1.463   .     S
C258   C273    1.395   .     A
C258   C269    1.404   .     A
C258   H282    1.084   .     S
C259   C272    1.396   .     A
C259   C273    1.399   .     A
C260   H284    1.083   .     S
C260   C261    1.388   .     A
C261   C713    1.399   .     S
C262   C267    1.420   .     A
C262   C713    1.432   .     S
C262   C718    1.426   .     S
C263   C265    1.484   .     S
C263   C712    1.432   1_554 S
C263   C711    1.399   1_554 S
C264   H277    1.082   .     S
C265   H278    1.086   .     S
C265   O291    1.221   .     D
C266   O292    1.222   .     D
C266   H279    1.085   .     S
C267   C271    1.411   .     A
C268   C272    1.402   .     A
C268   C269    1.419   .     A
C268   C712    1.426   1_554 S
C269   C720    1.393   1_554 S
C270   C271    1.389   .     A
C270   H281    1.084   .     S
C270   C719    1.393   .     S
C271   H286    1.081   .     S
C272   H283    1.081   .     S
C273   H287    1.083   .     S
Cu274  Cu275   2.702   .     S
Cu274  O296    1.953   .     S
Cu274  O294    1.925   .     S
Cu274  O290    1.956   .     S
Cu274  O298    1.909   .     S
Cu274  N289    2.030   .     S
Cu275  O297    1.956   .     S
Cu275  O293    1.953   .     S
Cu275  N288    2.030   .     S
Cu275  O299    1.925   .     S
Cu275  O295    1.909   .     S
H276   C405    1.088   .     S
H280   N189    1.029   1_655 S
H285   C161    1.084   1_655 S
N288   C164    1.412   1_655 S
N288   N189    1.286   1_655 S
O300   C164    1.219   1_655 S
C301   O340    1.295   .     A
C301   O343    1.293   .     A
C301   C303    1.436   .     S
C302   C304    1.474   .     S
C302   C317    1.416   .     A
C302   C310    1.400   .     A
C303   C5      1.344   1_565 S
C303   C16     1.493   1_565 S
C304   O345    1.303   .     A
C304   O344    1.304   .     A
C305   C306    1.432   .     S
C306   O346    1.296   .     A
C306   O347    1.291   .     A
C307   O348    1.299   .     A
C307   O349    1.305   .     A
C307   C309    1.463   .     S
C308   C323    1.395   .     A
C308   C319    1.404   .     A
C308   H332    1.084   .     S
C309   C322    1.396   .     A
C309   C323    1.399   .     A
C310   H334    1.083   .     S
C310   C311    1.388   .     A
C311   C763    1.399   .     S
C311   H435    1.084   1_455 S
C312   C317    1.420   .     A
C312   C763    1.432   .     S
C312   C768    1.426   .     S
C313   C315    1.484   .     S
C313   C762    1.432   1_554 S
C313   C761    1.399   1_554 S
C314   H327    1.082   .     S
C314   N438    1.412   1_455 S
C314   O450    1.219   1_455 S
C315   H328    1.086   .     S
C315   O341    1.221   .     D
C316   O342    1.222   .     D
C316   H329    1.085   .     S
C317   C321    1.411   .     A
C318   C322    1.402   .     A
C318   C319    1.419   .     A
C318   C762    1.426   1_554 S
C319   C770    1.393   1_554 S
C320   C321    1.389   .     A
C320   H331    1.084   .     S
C320   C769    1.393   .     S
C321   H336    1.081   .     S
C322   H333    1.081   .     S
C323   H337    1.083   .     S
Cu324  Cu325   2.702   .     S
Cu324  O346    1.953   .     S
Cu324  O344    1.925   .     S
Cu324  O340    1.956   .     S
Cu324  O348    1.909   .     S
Cu324  N339    2.030   .     S
Cu325  O347    1.956   .     S
Cu325  O343    1.953   .     S
Cu325  N338    2.030   .     S
Cu325  O349    1.925   .     S
Cu325  O345    1.909   .     S
H326   C5      1.088   1_565 S
H330   N389    1.029   .     S
H335   C361    1.084   .     S
N338   C364    1.412   .     S
N338   N389    1.286   .     S
N339   N438    1.286   1_455 S
N339   H430    1.029   1_455 S
O350   C364    1.219   .     S
C351   O390    1.295   .     A
C351   O393    1.293   .     A
C351   C353    1.436   .     S
C352   C354    1.474   .     S
C352   C367    1.416   .     A
C352   C360    1.400   .     A
C353   C55     1.344   1_565 S
C353   C66     1.493   1_565 S
C354   O395    1.303   .     A
C354   O394    1.304   .     A
C355   C356    1.432   .     S
C356   O396    1.296   .     A
C356   O397    1.291   .     A
C357   O398    1.299   .     A
C357   O399    1.305   .     A
C357   C359    1.463   .     S
C358   C373    1.395   .     A
C358   C369    1.404   .     A
C358   H382    1.084   .     S
C359   C372    1.396   .     A
C359   C373    1.399   .     A
C360   H384    1.083   .     S
C360   C361    1.388   .     A
C361   C813    1.399   .     S
C362   C367    1.420   .     A
C362   C813    1.432   .     S
C362   C818    1.426   .     S
C363   C365    1.484   .     S
C363   C812    1.432   1_554 S
C363   C811    1.399   1_554 S
C364   H377    1.082   .     S
C365   H378    1.086   .     S
C365   O391    1.221   .     D
C366   O392    1.222   .     D
C366   H379    1.085   .     S
C367   C371    1.411   .     A
C368   C372    1.402   .     A
C368   C369    1.419   .     A
C368   C812    1.426   1_554 S
C369   C820    1.393   1_554 S
C370   C371    1.389   .     A
C370   H381    1.084   .     S
C370   C819    1.393   .     S
C371   H386    1.081   .     S
C372   H383    1.081   .     S
C373   H387    1.083   .     S
Cu374  Cu375   2.702   .     S
Cu374  O396    1.953   .     S
Cu374  O394    1.925   .     S
Cu374  O390    1.956   .     S
Cu374  O398    1.909   .     S
Cu374  N389    2.030   .     S
Cu375  O397    1.956   .     S
Cu375  O393    1.953   .     S
Cu375  N388    2.030   .     S
Cu375  O399    1.925   .     S
Cu375  O395    1.909   .     S
H376   C55     1.088   1_565 S
H380   N439    1.029   .     S
H385   C411    1.084   .     S
N388   C414    1.412   .     S
N388   N439    1.286   .     S
O400   C414    1.219   .     S
C401   O440    1.295   .     A
C401   O443    1.293   .     A
C401   C403    1.436   .     S
C402   C404    1.474   .     S
C402   C417    1.416   .     A
C402   C410    1.400   .     A
C403   C105    1.344   1_565 S
C403   C116    1.493   1_565 S
C404   O445    1.303   .     A
C404   O444    1.304   .     A
C405   C406    1.432   .     S
C406   O446    1.296   .     A
C406   O447    1.291   .     A
C407   O448    1.299   .     A
C407   O449    1.305   .     A
C407   C409    1.463   .     S
C408   C423    1.395   .     A
C408   C419    1.404   .     A
C408   H432    1.084   .     S
C409   C422    1.396   .     A
C409   C423    1.399   .     A
C410   H434    1.083   .     S
C410   C411    1.388   .     A
C411   C863    1.399   .     S
C412   C417    1.420   .     A
C412   C863    1.432   .     S
C412   C868    1.426   .     S
C413   C415    1.484   .     S
C413   C862    1.432   1_554 S
C413   C861    1.399   1_554 S
C414   H427    1.082   .     S
C415   H428    1.086   .     S
C415   O441    1.221   .     D
C416   O442    1.222   .     D
C416   H429    1.085   .     S
C417   C421    1.411   .     A
C418   C422    1.402   .     A
C418   C419    1.419   .     A
C418   C862    1.426   1_554 S
C419   C870    1.393   1_554 S
C420   C421    1.389   .     A
C420   H431    1.084   .     S
C420   C869    1.393   .     S
C421   H436    1.081   .     S
C422   H433    1.081   .     S
C423   H437    1.083   .     S
Cu424  Cu425   2.702   .     S
Cu424  O446    1.953   .     S
Cu424  O444    1.925   .     S
Cu424  O440    1.956   .     S
Cu424  O448    1.909   .     S
Cu424  N439    2.030   .     S
Cu425  O447    1.956   .     S
Cu425  O443    1.953   .     S
Cu425  N438    2.030   .     S
Cu425  O449    1.925   .     S
Cu425  O445    1.909   .     S
H426   C105    1.088   1_565 S
H430   N339    1.029   1_655 S
H435   C311    1.084   1_655 S
N438   C314    1.412   1_655 S
N438   N339    1.286   1_655 S
O450   C314    1.219   1_655 S
C451   O490    1.295   .     A
C451   O493    1.293   .     A
C451   C453    1.436   .     S
C452   C454    1.474   .     S
C452   C467    1.416   .     A
C452   C460    1.400   .     A
C453   C605    1.344   .     S
C453   C616    1.493   .     S
C454   O495    1.303   .     A
C454   O494    1.304   .     A
C455   C456    1.432   .     S
C455   C753    1.344   1_545 S
C455   H776    1.088   1_545 S
C456   O496    1.296   .     A
C456   O497    1.291   .     A
C457   O498    1.299   .     A
C457   O499    1.305   .     A
C457   C459    1.463   .     S
C458   C473    1.395   .     A
C458   C469    1.404   .     A
C458   H482    1.084   .     S
C459   C472    1.396   .     A
C459   C473    1.399   .     A
C460   H484    1.083   .     S
C460   C461    1.388   .     A
C461   C13     1.399   1_556 S
C461   H585    1.084   1_455 S
C462   C467    1.420   .     A
C462   C13     1.432   1_556 S
C462   C18     1.426   1_556 S
C463   C465    1.484   .     S
C464   H477    1.082   .     S
C464   N588    1.412   1_455 S
C464   O600    1.219   1_455 S
C465   H478    1.086   .     S
C465   O491    1.221   .     D
C466   O492    1.222   .     D
C466   H479    1.085   .     S
C466   C753    1.493   1_545 S
C467   C471    1.411   .     A
C468   C472    1.402   .     A
C468   C469    1.419   .     A
C470   C471    1.389   .     A
C470   H481    1.084   .     S
C470   C19     1.393   1_556 S
C471   H486    1.081   .     S
C472   H483    1.081   .     S
C473   H487    1.083   .     S
Cu474  Cu475   2.702   .     S
Cu474  O496    1.953   .     S
Cu474  O494    1.925   .     S
Cu474  O490    1.956   .     S
Cu474  O498    1.909   .     S
Cu474  N489    2.030   .     S
Cu475  O497    1.956   .     S
Cu475  O493    1.953   .     S
Cu475  N488    2.030   .     S
Cu475  O499    1.925   .     S
Cu475  O495    1.909   .     S
H476   C605    1.088   .     S
H480   N539    1.029   .     S
H485   C511    1.084   .     S
N488   C514    1.412   .     S
N488   N539    1.286   .     S
N489   N588    1.286   1_455 S
N489   H580    1.029   1_455 S
O500   C514    1.219   .     S
C501   O540    1.295   .     A
C501   O543    1.293   .     A
C501   C503    1.436   .     S
C502   C504    1.474   .     S
C502   C517    1.416   .     A
C502   C510    1.400   .     A
C503   C655    1.344   .     S
C503   C666    1.493   .     S
C504   O545    1.303   .     A
C504   O544    1.304   .     A
C505   C506    1.432   .     S
C505   C803    1.344   1_545 S
C505   H826    1.088   1_545 S
C506   O546    1.296   .     A
C506   O547    1.291   .     A
C507   O548    1.299   .     A
C507   O549    1.305   .     A
C507   C509    1.463   .     S
C508   C523    1.395   .     A
C508   C519    1.404   .     A
C508   H532    1.084   .     S
C509   C522    1.396   .     A
C509   C523    1.399   .     A
C510   H534    1.083   .     S
C510   C511    1.388   .     A
C511   C63     1.399   1_556 S
C512   C517    1.420   .     A
C512   C63     1.432   1_556 S
C512   C68     1.426   1_556 S
C513   C515    1.484   .     S
C514   H527    1.082   .     S
C515   H528    1.086   .     S
C515   O541    1.221   .     D
C516   O542    1.222   .     D
C516   H529    1.085   .     S
C516   C803    1.493   1_545 S
C517   C521    1.411   .     A
C518   C522    1.402   .     A
C518   C519    1.419   .     A
C520   C521    1.389   .     A
C520   H531    1.084   .     S
C520   C69     1.393   1_556 S
C521   H536    1.081   .     S
C522   H533    1.081   .     S
C523   H537    1.083   .     S
Cu524  Cu525   2.702   .     S
Cu524  O546    1.953   .     S
Cu524  O544    1.925   .     S
Cu524  O540    1.956   .     S
Cu524  O548    1.909   .     S
Cu524  N539    2.030   .     S
Cu525  O547    1.956   .     S
Cu525  O543    1.953   .     S
Cu525  N538    2.030   .     S
Cu525  O549    1.925   .     S
Cu525  O545    1.909   .     S
H526   C655    1.088   .     S
H530   N589    1.029   .     S
H535   C561    1.084   .     S
N538   C564    1.412   .     S
N538   N589    1.286   .     S
O550   C564    1.219   .     S
C551   O590    1.295   .     A
C551   O593    1.293   .     A
C551   C553    1.436   .     S
C552   C554    1.474   .     S
C552   C567    1.416   .     A
C552   C560    1.400   .     A
C553   C705    1.344   .     S
C553   C716    1.493   .     S
C554   O595    1.303   .     A
C554   O594    1.304   .     A
C555   C556    1.432   .     S
C555   C853    1.344   1_545 S
C555   H876    1.088   1_545 S
C556   O596    1.296   .     A
C556   O597    1.291   .     A
C557   O598    1.299   .     A
C557   O599    1.305   .     A
C557   C559    1.463   .     S
C558   C573    1.395   .     A
C558   C569    1.404   .     A
C558   H582    1.084   .     S
C559   C572    1.396   .     A
C559   C573    1.399   .     A
C560   H584    1.083   .     S
C560   C561    1.388   .     A
C561   C113    1.399   1_556 S
C562   C567    1.420   .     A
C562   C113    1.432   1_556 S
C562   C118    1.426   1_556 S
C563   C565    1.484   .     S
C564   H577    1.082   .     S
C565   H578    1.086   .     S
C565   O591    1.221   .     D
C566   O592    1.222   .     D
C566   H579    1.085   .     S
C566   C853    1.493   1_545 S
C567   C571    1.411   .     A
C568   C572    1.402   .     A
C568   C569    1.419   .     A
C570   C571    1.389   .     A
C570   H581    1.084   .     S
C570   C119    1.393   1_556 S
C571   H586    1.081   .     S
C572   H583    1.081   .     S
C573   H587    1.083   .     S
Cu574  Cu575   2.702   .     S
Cu574  O596    1.953   .     S
Cu574  O594    1.925   .     S
Cu574  O590    1.956   .     S
Cu574  O598    1.909   .     S
Cu574  N589    2.030   .     S
Cu575  O597    1.956   .     S
Cu575  O593    1.953   .     S
Cu575  N588    2.030   .     S
Cu575  O599    1.925   .     S
Cu575  O595    1.909   .     S
H576   C705    1.088   .     S
H580   N489    1.029   1_655 S
H585   C461    1.084   1_655 S
N588   C464    1.412   1_655 S
N588   N489    1.286   1_655 S
O600   C464    1.219   1_655 S
C601   O640    1.295   .     A
C601   O643    1.293   .     A
C601   C603    1.436   .     S
C602   C604    1.474   .     S
C602   C617    1.416   .     A
C602   C610    1.400   .     A
C603   C755    1.344   .     S
C603   C766    1.493   .     S
C604   O645    1.303   .     A
C604   O644    1.304   .     A
C605   C606    1.432   .     S
C606   O646    1.296   .     A
C606   O647    1.291   .     A
C607   O648    1.299   .     A
C607   O649    1.305   .     A
C607   C609    1.463   .     S
C608   C623    1.395   .     A
C608   C619    1.404   .     A
C608   H632    1.084   .     S
C609   C622    1.396   .     A
C609   C623    1.399   .     A
C610   H634    1.083   .     S
C610   C611    1.388   .     A
C611   C163    1.399   1_556 S
C611   H735    1.084   1_455 S
C612   C617    1.420   .     A
C612   C163    1.432   1_556 S
C612   C168    1.426   1_556 S
C613   C615    1.484   .     S
C614   H627    1.082   .     S
C614   N738    1.412   1_455 S
C614   O750    1.219   1_455 S
C615   H628    1.086   .     S
C615   O641    1.221   .     D
C616   O642    1.222   .     D
C616   H629    1.085   .     S
C617   C621    1.411   .     A
C618   C622    1.402   .     A
C618   C619    1.419   .     A
C620   C621    1.389   .     A
C620   H631    1.084   .     S
C620   C169    1.393   1_556 S
C621   H636    1.081   .     S
C622   H633    1.081   .     S
C623   H637    1.083   .     S
Cu624  Cu625   2.702   .     S
Cu624  O646    1.953   .     S
Cu624  O644    1.925   .     S
Cu624  O640    1.956   .     S
Cu624  O648    1.909   .     S
Cu624  N639    2.030   .     S
Cu625  O647    1.956   .     S
Cu625  O643    1.953   .     S
Cu625  N638    2.030   .     S
Cu625  O649    1.925   .     S
Cu625  O645    1.909   .     S
H626   C755    1.088   .     S
H630   N689    1.029   .     S
H635   C661    1.084   .     S
N638   C664    1.412   .     S
N638   N689    1.286   .     S
N639   N738    1.286   1_455 S
N639   H730    1.029   1_455 S
O650   C664    1.219   .     S
C651   O690    1.295   .     A
C651   O693    1.293   .     A
C651   C653    1.436   .     S
C652   C654    1.474   .     S
C652   C667    1.416   .     A
C652   C660    1.400   .     A
C653   C805    1.344   .     S
C653   C816    1.493   .     S
C654   O695    1.303   .     A
C654   O694    1.304   .     A
C655   C656    1.432   .     S
C656   O696    1.296   .     A
C656   O697    1.291   .     A
C657   O698    1.299   .     A
C657   O699    1.305   .     A
C657   C659    1.463   .     S
C658   C673    1.395   .     A
C658   C669    1.404   .     A
C658   H682    1.084   .     S
C659   C672    1.396   .     A
C659   C673    1.399   .     A
C660   H684    1.083   .     S
C660   C661    1.388   .     A
C661   C213    1.399   1_556 S
C662   C667    1.420   .     A
C662   C213    1.432   1_556 S
C662   C218    1.426   1_556 S
C663   C665    1.484   .     S
C664   H677    1.082   .     S
C665   H678    1.086   .     S
C665   O691    1.221   .     D
C666   O692    1.222   .     D
C666   H679    1.085   .     S
C667   C671    1.411   .     A
C668   C672    1.402   .     A
C668   C669    1.419   .     A
C670   C671    1.389   .     A
C670   H681    1.084   .     S
C670   C219    1.393   1_556 S
C671   H686    1.081   .     S
C672   H683    1.081   .     S
C673   H687    1.083   .     S
Cu674  Cu675   2.702   .     S
Cu674  O696    1.953   .     S
Cu674  O694    1.925   .     S
Cu674  O690    1.956   .     S
Cu674  O698    1.909   .     S
Cu674  N689    2.030   .     S
Cu675  O697    1.956   .     S
Cu675  O693    1.953   .     S
Cu675  N688    2.030   .     S
Cu675  O699    1.925   .     S
Cu675  O695    1.909   .     S
H676   C805    1.088   .     S
H680   N739    1.029   .     S
H685   C711    1.084   .     S
N688   C714    1.412   .     S
N688   N739    1.286   .     S
O700   C714    1.219   .     S
C701   O740    1.295   .     A
C701   O743    1.293   .     A
C701   C703    1.436   .     S
C702   C704    1.474   .     S
C702   C717    1.416   .     A
C702   C710    1.400   .     A
C703   C855    1.344   .     S
C703   C866    1.493   .     S
C704   O745    1.303   .     A
C704   O744    1.304   .     A
C705   C706    1.432   .     S
C706   O746    1.296   .     A
C706   O747    1.291   .     A
C707   O748    1.299   .     A
C707   O749    1.305   .     A
C707   C709    1.463   .     S
C708   C723    1.395   .     A
C708   C719    1.404   .     A
C708   H732    1.084   .     S
C709   C722    1.396   .     A
C709   C723    1.399   .     A
C710   H734    1.083   .     S
C710   C711    1.388   .     A
C711   C263    1.399   1_556 S
C712   C717    1.420   .     A
C712   C263    1.432   1_556 S
C712   C268    1.426   1_556 S
C713   C715    1.484   .     S
C714   H727    1.082   .     S
C715   H728    1.086   .     S
C715   O741    1.221   .     D
C716   O742    1.222   .     D
C716   H729    1.085   .     S
C717   C721    1.411   .     A
C718   C722    1.402   .     A
C718   C719    1.419   .     A
C720   C721    1.389   .     A
C720   H731    1.084   .     S
C720   C269    1.393   1_556 S
C721   H736    1.081   .     S
C722   H733    1.081   .     S
C723   H737    1.083   .     S
Cu724  Cu725   2.702   .     S
Cu724  O746    1.953   .     S
Cu724  O744    1.925   .     S
Cu724  O740    1.956   .     S
Cu724  O748    1.909   .     S
Cu724  N739    2.030   .     S
Cu725  O747    1.956   .     S
Cu725  O743    1.953   .     S
Cu725  N738    2.030   .     S
Cu725  O749    1.925   .     S
Cu725  O745    1.909   .     S
H726   C855    1.088   .     S
H730   N639    1.029   1_655 S
H735   C611    1.084   1_655 S
N738   C614    1.412   1_655 S
N738   N639    1.286   1_655 S
O750   C614    1.219   1_655 S
C751   O790    1.295   .     A
C751   O793    1.293   .     A
C751   C753    1.436   .     S
C752   C754    1.474   .     S
C752   C767    1.416   .     A
C752   C760    1.400   .     A
C753   C455    1.344   1_565 S
C753   C466    1.493   1_565 S
C754   O795    1.303   .     A
C754   O794    1.304   .     A
C755   C756    1.432   .     S
C756   O796    1.296   .     A
C756   O797    1.291   .     A
C757   O798    1.299   .     A
C757   O799    1.305   .     A
C757   C759    1.463   .     S
C758   C773    1.395   .     A
C758   C769    1.404   .     A
C758   H782    1.084   .     S
C759   C772    1.396   .     A
C759   C773    1.399   .     A
C760   H784    1.083   .     S
C760   C761    1.388   .     A
C761   C313    1.399   1_556 S
C761   H885    1.084   1_455 S
C762   C767    1.420   .     A
C762   C313    1.432   1_556 S
C762   C318    1.426   1_556 S
C763   C765    1.484   .     S
C764   H777    1.082   .     S
C764   N888    1.412   1_455 S
C764   O900    1.219   1_455 S
C765   H778    1.086   .     S
C765   O791    1.221   .     D
C766   O792    1.222   .     D
C766   H779    1.085   .     S
C767   C771    1.411   .     A
C768   C772    1.402   .     A
C768   C769    1.419   .     A
C770   C771    1.389   .     A
C770   H781    1.084   .     S
C770   C319    1.393   1_556 S
C771   H786    1.081   .     S
C772   H783    1.081   .     S
C773   H787    1.083   .     S
Cu774  Cu775   2.702   .     S
Cu774  O796    1.953   .     S
Cu774  O794    1.925   .     S
Cu774  O790    1.956   .     S
Cu774  O798    1.909   .     S
Cu774  N789    2.030   .     S
Cu775  O797    1.956   .     S
Cu775  O793    1.953   .     S
Cu775  N788    2.030   .     S
Cu775  O799    1.925   .     S
Cu775  O795    1.909   .     S
H776   C455    1.088   1_565 S
H780   N839    1.029   .     S
H785   C811    1.084   .     S
N788   C814    1.412   .     S
N788   N839    1.286   .     S
N789   N888    1.286   1_455 S
N789   H880    1.029   1_455 S
O800   C814    1.219   .     S
C801   O840    1.295   .     A
C801   O843    1.293   .     A
C801   C803    1.436   .     S
C802   C804    1.474   .     S
C802   C817    1.416   .     A
C802   C810    1.400   .     A
C803   C505    1.344   1_565 S
C803   C516    1.493   1_565 S
C804   O845    1.303   .     A
C804   O844    1.304   .     A
C805   C806    1.432   .     S
C806   O846    1.296   .     A
C806   O847    1.291   .     A
C807   O848    1.299   .     A
C807   O849    1.305   .     A
C807   C809    1.463   .     S
C808   C823    1.395   .     A
C808   C819    1.404   .     A
C808   H832    1.084   .     S
C809   C822    1.396   .     A
C809   C823    1.399   .     A
C810   H834    1.083   .     S
C810   C811    1.388   .     A
C811   C363    1.399   1_556 S
C812   C817    1.420   .     A
C812   C363    1.432   1_556 S
C812   C368    1.426   1_556 S
C813   C815    1.484   .     S
C814   H827    1.082   .     S
C815   H828    1.086   .     S
C815   O841    1.221   .     D
C816   O842    1.222   .     D
C816   H829    1.085   .     S
C817   C821    1.411   .     A
C818   C822    1.402   .     A
C818   C819    1.419   .     A
C820   C821    1.389   .     A
C820   H831    1.084   .     S
C820   C369    1.393   1_556 S
C821   H836    1.081   .     S
C822   H833    1.081   .     S
C823   H837    1.083   .     S
Cu824  Cu825   2.702   .     S
Cu824  O846    1.953   .     S
Cu824  O844    1.925   .     S
Cu824  O840    1.956   .     S
Cu824  O848    1.909   .     S
Cu824  N839    2.030   .     S
Cu825  O847    1.956   .     S
Cu825  O843    1.953   .     S
Cu825  N838    2.030   .     S
Cu825  O849    1.925   .     S
Cu825  O845    1.909   .     S
H826   C505    1.088   1_565 S
H830   N889    1.029   .     S
H835   C861    1.084   .     S
N838   C864    1.412   .     S
N838   N889    1.286   .     S
O850   C864    1.219   .     S
C851   O890    1.295   .     A
C851   O893    1.293   .     A
C851   C853    1.436   .     S
C852   C854    1.474   .     S
C852   C867    1.416   .     A
C852   C860    1.400   .     A
C853   C555    1.344   1_565 S
C853   C566    1.493   1_565 S
C854   O895    1.303   .     A
C854   O894    1.304   .     A
C855   C856    1.432   .     S
C856   O896    1.296   .     A
C856   O897    1.291   .     A
C857   O898    1.299   .     A
C857   O899    1.305   .     A
C857   C859    1.463   .     S
C858   C873    1.395   .     A
C858   C869    1.404   .     A
C858   H882    1.084   .     S
C859   C872    1.396   .     A
C859   C873    1.399   .     A
C860   H884    1.083   .     S
C860   C861    1.388   .     A
C861   C413    1.399   1_556 S
C862   C867    1.420   .     A
C862   C413    1.432   1_556 S
C862   C418    1.426   1_556 S
C863   C865    1.484   .     S
C864   H877    1.082   .     S
C865   H878    1.086   .     S
C865   O891    1.221   .     D
C866   O892    1.222   .     D
C866   H879    1.085   .     S
C867   C871    1.411   .     A
C868   C872    1.402   .     A
C868   C869    1.419   .     A
C870   C871    1.389   .     A
C870   H881    1.084   .     S
C870   C419    1.393   1_556 S
C871   H886    1.081   .     S
C872   H883    1.081   .     S
C873   H887    1.083   .     S
Cu874  Cu875   2.702   .     S
Cu874  O896    1.953   .     S
Cu874  O894    1.925   .     S
Cu874  O890    1.956   .     S
Cu874  O898    1.909   .     S
Cu874  N889    2.030   .     S
Cu875  O897    1.956   .     S
Cu875  O893    1.953   .     S
Cu875  N888    2.030   .     S
Cu875  O899    1.925   .     S
Cu875  O895    1.909   .     S
H876   C555    1.088   1_565 S
H880   N789    1.029   1_655 S
H885   C761    1.084   1_655 S
N888   C764    1.412   1_655 S
N888   N789    1.286   1_655 S
O900   C764    1.219   1_655 S
