data_str_m2_o1_o18_pcu_sym.119
_audit_creation_date              2020-01-03
_audit_creation_method            'Materials Studio'
_symmetry_space_group_name_H-M    'P1'
_symmetry_Int_Tables_number       1
_symmetry_cell_setting            triclinic
loop_
_symmetry_equiv_pos_as_xyz
  x,y,z
_cell_length_a                    28.8402
_cell_length_b                    32.2465
_cell_length_c                    31.2687
_cell_angle_alpha                 88.0737
_cell_angle_beta                  72.2299
_cell_angle_gamma                 92.6928
loop_
_atom_site_label
_atom_site_type_symbol
_atom_site_fract_x
_atom_site_fract_y
_atom_site_fract_z
_atom_site_U_iso_or_equiv
_atom_site_adp_type
_atom_site_occupancy
C1     C     0.33255   0.08744   0.25002   0.00000  Uiso   1.00
C2     C     0.00102   0.24585   0.24943   0.00000  Uiso   1.00
C3     C     0.20080   0.16253   0.05295   0.00000  Uiso   1.00
C4     C     0.17814   0.24128   0.47780   0.00000  Uiso   1.00
C5     C     0.24724   0.15233   0.02746   0.00000  Uiso   1.00
C6     C     0.13412   0.25539   0.00436   0.00000  Uiso   1.00
C7     C     0.30114   0.01833   0.28553   0.00000  Uiso   1.00
C8     C     0.03316   0.31470   0.21372   0.00000  Uiso   1.00
C9     C     0.30253   0.30881   0.28564   0.00000  Uiso   1.00
C10    C     0.03165   0.02432   0.21358   0.00000  Uiso   1.00
C11    C     0.00206   0.29043   0.24991   0.00000  Uiso   1.00
C12    C     0.33182   0.04274   0.24923   0.00000  Uiso   1.00
C13    C     0.18121   0.13432   0.27112   0.00000  Uiso   1.00
C14    C     0.15247   0.19826   0.22770   0.00000  Uiso   1.00
C15    C     0.13212   0.13554   0.27142   0.00000  Uiso   1.00
C16    C     0.20111   0.19788   0.22875   0.00000  Uiso   1.00
C17    C     0.30491   0.16760   0.33632   0.00000  Uiso   1.00
C18    C     0.02822   0.16874   0.16416   0.00000  Uiso   1.00
C19    C     0.28819   0.16758   0.38635   0.00000  Uiso   1.00
C20    C     0.04700   0.18270   0.11678   0.00000  Uiso   1.00
C21    C     0.30679   0.14656   0.45457   0.00000  Uiso   1.00
C22    C     0.05847   0.24277   0.06527   0.00000  Uiso   1.00
C23    C     0.32003   0.15135   0.40809   0.00000  Uiso   1.00
C24    C     0.03026   0.21949   0.10337   0.00000  Uiso   1.00
C25    C     0.24246   0.18234   0.41301   0.00000  Uiso   1.00
C26    C     0.09111   0.16770   0.09046   0.00000  Uiso   1.00
C27    C     0.23376   0.18365   0.46041   0.00000  Uiso   1.00
C28    C     0.12311   0.19420   0.05566   0.00000  Uiso   1.00
C29    C     0.26300   0.16102   0.48085   0.00000  Uiso   1.00
C30    C     0.10510   0.23093   0.04173   0.00000  Uiso   1.00
C31    C     0.19409   0.20317   0.48934   0.00000  Uiso   1.00
C32    C     0.17181   0.18529   0.03289   0.00000  Uiso   1.00
Cu33   Cu    0.04689   0.16667   0.25000   0.00000  Uiso   1.00
Cu34   Cu    0.28645   0.16666   0.25000   0.00000  Uiso   1.00
H35    H     0.26948   0.13553   0.04368   0.00000  Uiso   1.00
H36    H     0.12147   0.28409   0.49417   0.00000  Uiso   1.00
H37    H     0.32997   0.23150   0.12391   0.00000  Uiso   1.00
H38    H     0.02118   0.13974   0.38895   0.00000  Uiso   1.00
H39    H     0.33061   0.13094   0.46997   0.00000  Uiso   1.00
H40    H     0.04479   0.27112   0.05545   0.00000  Uiso   1.00
H41    H     0.18887   0.15452   0.08856   0.00000  Uiso   1.00
H42    H     0.19863   0.25915   0.44742   0.00000  Uiso   1.00
H43    H     0.27721   0.03212   0.31428   0.00000  Uiso   1.00
H44    H     0.05774   0.30052   0.18541   0.00000  Uiso   1.00
H45    H     0.27848   0.28999   0.31372   0.00000  Uiso   1.00
H46    H     0.05603   0.04316   0.18573   0.00000  Uiso   1.00
H47    H     0.10539   0.11092   0.28804   0.00000  Uiso   1.00
H48    H     0.22763   0.22270   0.21227   0.00000  Uiso   1.00
N49    N     0.11736   0.16668   0.24999   0.00000  Uiso   1.00
N50    N     0.21597   0.16666   0.25001   0.00000  Uiso   1.00
O51    O     0.03958   0.10655   0.25000   0.00000  Uiso   1.00
O52    O     0.29375   0.22678   0.25000   0.00000  Uiso   1.00
O53    O     0.29372   0.10654   0.25000   0.00000  Uiso   1.00
O54    O     0.03961   0.22679   0.24999   0.00000  Uiso   1.00
O55    O     0.01852   0.16668   0.31491   0.00000  Uiso   1.00
O56    O     0.31481   0.16666   0.18508   0.00000  Uiso   1.00
O57    O     0.27267   0.16667   0.31492   0.00000  Uiso   1.00
O58    O     0.06067   0.16667   0.18508   0.00000  Uiso   1.00
S59    S     0.09859   0.11335   0.09622   0.00000  Uiso   1.00
O60    O     0.12248   0.10518   0.13194   0.00000  Uiso   1.00
O61    O     0.04941   0.09019   0.11014   0.00000  Uiso   1.00
O62    O     0.13258   0.09515   0.04748   0.00000  Uiso   1.00
H63    H     0.11531   0.10220   0.02549   0.00000  Uiso   1.00
S64    S     0.19339   0.19215   0.38983   0.00000  Uiso   1.00
O65    O     0.20604   0.23192   0.36124   0.00000  Uiso   1.00
O66    O     0.18576   0.15780   0.36139   0.00000  Uiso   1.00
O67    O     0.13838   0.19519   0.42827   0.00000  Uiso   1.00
H68    H     0.12956   0.16680   0.44250   0.00000  Uiso   1.00
S69    S     0.19313   0.08668   0.29563   0.00000  Uiso   1.00
O70    O     0.14592   0.06545   0.32479   0.00000  Uiso   1.00
O71    O     0.21510   0.05836   0.25852   0.00000  Uiso   1.00
O72    O     0.22992   0.09274   0.32783   0.00000  Uiso   1.00
H73    H     0.21332   0.07691   0.35658   0.00000  Uiso   1.00
S74    S     0.14184   0.24351   0.19865   0.00000  Uiso   1.00
O75    O     0.10869   0.23518   0.17086   0.00000  Uiso   1.00
O76    O     0.12111   0.27503   0.23257   0.00000  Uiso   1.00
O77    O     0.19504   0.26427   0.16351   0.00000  Uiso   1.00
H78    H     0.18695   0.29099   0.15177   0.00000  Uiso   1.00
C79    C     0.66588   0.08744   0.25002   0.00000  Uiso   1.00
C80    C     0.33436   0.24585   0.24943   0.00000  Uiso   1.00
C81    C     0.53413   0.16253   0.05295   0.00000  Uiso   1.00
C82    C     0.51148   0.24128   0.47780   0.00000  Uiso   1.00
C83    C     0.58057   0.15233   0.02746   0.00000  Uiso   1.00
C84    C     0.46745   0.25539   0.00436   0.00000  Uiso   1.00
C85    C     0.63448   0.01833   0.28553   0.00000  Uiso   1.00
C86    C     0.36650   0.31470   0.21372   0.00000  Uiso   1.00
C87    C     0.63587   0.30881   0.28564   0.00000  Uiso   1.00
C88    C     0.36499   0.02432   0.21358   0.00000  Uiso   1.00
C89    C     0.33540   0.29043   0.24991   0.00000  Uiso   1.00
C90    C     0.66516   0.04274   0.24923   0.00000  Uiso   1.00
C91    C     0.51454   0.13432   0.27112   0.00000  Uiso   1.00
C92    C     0.48580   0.19826   0.22770   0.00000  Uiso   1.00
C93    C     0.46545   0.13554   0.27142   0.00000  Uiso   1.00
C94    C     0.53444   0.19788   0.22875   0.00000  Uiso   1.00
C95    C     0.63825   0.16760   0.33632   0.00000  Uiso   1.00
C96    C     0.36155   0.16874   0.16416   0.00000  Uiso   1.00
C97    C     0.62152   0.16758   0.38635   0.00000  Uiso   1.00
C98    C     0.38033   0.18270   0.11678   0.00000  Uiso   1.00
C99    C     0.64012   0.14656   0.45457   0.00000  Uiso   1.00
C100   C     0.39180   0.24277   0.06527   0.00000  Uiso   1.00
C101   C     0.65337   0.15135   0.40809   0.00000  Uiso   1.00
C102   C     0.36359   0.21949   0.10337   0.00000  Uiso   1.00
C103   C     0.57579   0.18234   0.41301   0.00000  Uiso   1.00
C104   C     0.42444   0.16770   0.09046   0.00000  Uiso   1.00
C105   C     0.56710   0.18365   0.46041   0.00000  Uiso   1.00
C106   C     0.45644   0.19420   0.05566   0.00000  Uiso   1.00
C107   C     0.59633   0.16102   0.48085   0.00000  Uiso   1.00
C108   C     0.43844   0.23093   0.04173   0.00000  Uiso   1.00
C109   C     0.52743   0.20317   0.48934   0.00000  Uiso   1.00
C110   C     0.50514   0.18529   0.03289   0.00000  Uiso   1.00
Cu111  Cu    0.38022   0.16667   0.25000   0.00000  Uiso   1.00
Cu112  Cu    0.61978   0.16666   0.25000   0.00000  Uiso   1.00
H113   H     0.60282   0.13553   0.04368   0.00000  Uiso   1.00
H114   H     0.45480   0.28409   0.49417   0.00000  Uiso   1.00
H115   H     0.66330   0.23150   0.12391   0.00000  Uiso   1.00
H116   H     0.35451   0.13974   0.38895   0.00000  Uiso   1.00
H117   H     0.66394   0.13094   0.46997   0.00000  Uiso   1.00
H118   H     0.37812   0.27112   0.05545   0.00000  Uiso   1.00
H119   H     0.52221   0.15452   0.08856   0.00000  Uiso   1.00
H120   H     0.53196   0.25915   0.44742   0.00000  Uiso   1.00
H121   H     0.61054   0.03212   0.31428   0.00000  Uiso   1.00
H122   H     0.39108   0.30052   0.18541   0.00000  Uiso   1.00
H123   H     0.61182   0.28999   0.31372   0.00000  Uiso   1.00
H124   H     0.38936   0.04316   0.18573   0.00000  Uiso   1.00
H125   H     0.43872   0.11092   0.28804   0.00000  Uiso   1.00
H126   H     0.56097   0.22270   0.21227   0.00000  Uiso   1.00
N127   N     0.45069   0.16668   0.24999   0.00000  Uiso   1.00
N128   N     0.54931   0.16666   0.25001   0.00000  Uiso   1.00
O129   O     0.37291   0.10655   0.25000   0.00000  Uiso   1.00
O130   O     0.62709   0.22678   0.25000   0.00000  Uiso   1.00
O131   O     0.62706   0.10654   0.25000   0.00000  Uiso   1.00
O132   O     0.37294   0.22679   0.24999   0.00000  Uiso   1.00
O133   O     0.35186   0.16668   0.31491   0.00000  Uiso   1.00
O134   O     0.64814   0.16666   0.18508   0.00000  Uiso   1.00
O135   O     0.60600   0.16667   0.31492   0.00000  Uiso   1.00
O136   O     0.39400   0.16667   0.18508   0.00000  Uiso   1.00
S137   S     0.43192   0.11335   0.09622   0.00000  Uiso   1.00
O138   O     0.45581   0.10518   0.13194   0.00000  Uiso   1.00
O139   O     0.38274   0.09019   0.11014   0.00000  Uiso   1.00
O140   O     0.46591   0.09515   0.04748   0.00000  Uiso   1.00
H141   H     0.44865   0.10220   0.02549   0.00000  Uiso   1.00
S142   S     0.52672   0.19215   0.38983   0.00000  Uiso   1.00
O143   O     0.53938   0.23192   0.36124   0.00000  Uiso   1.00
O144   O     0.51909   0.15780   0.36139   0.00000  Uiso   1.00
O145   O     0.47171   0.19519   0.42827   0.00000  Uiso   1.00
H146   H     0.46290   0.16680   0.44250   0.00000  Uiso   1.00
S147   S     0.52647   0.08668   0.29563   0.00000  Uiso   1.00
O148   O     0.47925   0.06545   0.32479   0.00000  Uiso   1.00
O149   O     0.54843   0.05836   0.25852   0.00000  Uiso   1.00
O150   O     0.56325   0.09274   0.32783   0.00000  Uiso   1.00
H151   H     0.54665   0.07691   0.35658   0.00000  Uiso   1.00
S152   S     0.47517   0.24351   0.19865   0.00000  Uiso   1.00
O153   O     0.44202   0.23518   0.17086   0.00000  Uiso   1.00
O154   O     0.45445   0.27503   0.23257   0.00000  Uiso   1.00
O155   O     0.52838   0.26427   0.16351   0.00000  Uiso   1.00
H156   H     0.52028   0.29099   0.15177   0.00000  Uiso   1.00
C157   C     0.99922   0.08744   0.25002   0.00000  Uiso   1.00
C158   C     0.66769   0.24585   0.24943   0.00000  Uiso   1.00
C159   C     0.86747   0.16253   0.05295   0.00000  Uiso   1.00
C160   C     0.84481   0.24128   0.47780   0.00000  Uiso   1.00
C161   C     0.91391   0.15233   0.02746   0.00000  Uiso   1.00
C162   C     0.80079   0.25539   0.00436   0.00000  Uiso   1.00
C163   C     0.96781   0.01833   0.28553   0.00000  Uiso   1.00
C164   C     0.69983   0.31470   0.21372   0.00000  Uiso   1.00
C165   C     0.96920   0.30881   0.28564   0.00000  Uiso   1.00
C166   C     0.69832   0.02432   0.21358   0.00000  Uiso   1.00
C167   C     0.66873   0.29043   0.24991   0.00000  Uiso   1.00
C168   C     0.99849   0.04274   0.24923   0.00000  Uiso   1.00
C169   C     0.84787   0.13432   0.27112   0.00000  Uiso   1.00
C170   C     0.81913   0.19826   0.22770   0.00000  Uiso   1.00
C171   C     0.79879   0.13554   0.27142   0.00000  Uiso   1.00
C172   C     0.86778   0.19788   0.22875   0.00000  Uiso   1.00
C173   C     0.97158   0.16760   0.33632   0.00000  Uiso   1.00
C174   C     0.69488   0.16874   0.16416   0.00000  Uiso   1.00
C175   C     0.95486   0.16758   0.38635   0.00000  Uiso   1.00
C176   C     0.71366   0.18270   0.11678   0.00000  Uiso   1.00
C177   C     0.97345   0.14656   0.45457   0.00000  Uiso   1.00
C178   C     0.72513   0.24277   0.06527   0.00000  Uiso   1.00
C179   C     0.98670   0.15135   0.40809   0.00000  Uiso   1.00
C180   C     0.69692   0.21949   0.10337   0.00000  Uiso   1.00
C181   C     0.90913   0.18234   0.41301   0.00000  Uiso   1.00
C182   C     0.75777   0.16770   0.09046   0.00000  Uiso   1.00
C183   C     0.90043   0.18365   0.46041   0.00000  Uiso   1.00
C184   C     0.78978   0.19420   0.05566   0.00000  Uiso   1.00
C185   C     0.92966   0.16102   0.48085   0.00000  Uiso   1.00
C186   C     0.77177   0.23093   0.04173   0.00000  Uiso   1.00
C187   C     0.86076   0.20317   0.48934   0.00000  Uiso   1.00
C188   C     0.83848   0.18529   0.03289   0.00000  Uiso   1.00
Cu189  Cu    0.71355   0.16667   0.25000   0.00000  Uiso   1.00
Cu190  Cu    0.95311   0.16666   0.25000   0.00000  Uiso   1.00
H191   H     0.93615   0.13553   0.04368   0.00000  Uiso   1.00
H192   H     0.78813   0.28409   0.49417   0.00000  Uiso   1.00
H193   H     0.99664   0.23150   0.12391   0.00000  Uiso   1.00
H194   H     0.68784   0.13974   0.38895   0.00000  Uiso   1.00
H195   H     0.99727   0.13094   0.46997   0.00000  Uiso   1.00
H196   H     0.71145   0.27112   0.05545   0.00000  Uiso   1.00
H197   H     0.85554   0.15452   0.08856   0.00000  Uiso   1.00
H198   H     0.86530   0.25915   0.44742   0.00000  Uiso   1.00
H199   H     0.94387   0.03212   0.31428   0.00000  Uiso   1.00
H200   H     0.72441   0.30052   0.18541   0.00000  Uiso   1.00
H201   H     0.94515   0.28999   0.31372   0.00000  Uiso   1.00
H202   H     0.72269   0.04316   0.18573   0.00000  Uiso   1.00
H203   H     0.77206   0.11092   0.28804   0.00000  Uiso   1.00
H204   H     0.89430   0.22270   0.21227   0.00000  Uiso   1.00
N205   N     0.78403   0.16668   0.24999   0.00000  Uiso   1.00
N206   N     0.88264   0.16666   0.25001   0.00000  Uiso   1.00
O207   O     0.70625   0.10655   0.25000   0.00000  Uiso   1.00
O208   O     0.96042   0.22678   0.25000   0.00000  Uiso   1.00
O209   O     0.96039   0.10654   0.25000   0.00000  Uiso   1.00
O210   O     0.70628   0.22679   0.24999   0.00000  Uiso   1.00
O211   O     0.68519   0.16668   0.31491   0.00000  Uiso   1.00
O212   O     0.98148   0.16666   0.18508   0.00000  Uiso   1.00
O213   O     0.93933   0.16667   0.31492   0.00000  Uiso   1.00
O214   O     0.72733   0.16667   0.18508   0.00000  Uiso   1.00
S215   S     0.76526   0.11335   0.09622   0.00000  Uiso   1.00
O216   O     0.78914   0.10518   0.13194   0.00000  Uiso   1.00
O217   O     0.71608   0.09019   0.11014   0.00000  Uiso   1.00
O218   O     0.79925   0.09515   0.04748   0.00000  Uiso   1.00
H219   H     0.78198   0.10220   0.02549   0.00000  Uiso   1.00
S220   S     0.86006   0.19215   0.38983   0.00000  Uiso   1.00
O221   O     0.87271   0.23192   0.36124   0.00000  Uiso   1.00
O222   O     0.85242   0.15780   0.36139   0.00000  Uiso   1.00
O223   O     0.80505   0.19519   0.42827   0.00000  Uiso   1.00
H224   H     0.79623   0.16680   0.44250   0.00000  Uiso   1.00
S225   S     0.85980   0.08668   0.29563   0.00000  Uiso   1.00
O226   O     0.81258   0.06545   0.32479   0.00000  Uiso   1.00
O227   O     0.88176   0.05836   0.25852   0.00000  Uiso   1.00
O228   O     0.89658   0.09274   0.32783   0.00000  Uiso   1.00
H229   H     0.87999   0.07691   0.35658   0.00000  Uiso   1.00
S230   S     0.80851   0.24351   0.19865   0.00000  Uiso   1.00
O231   O     0.77536   0.23518   0.17086   0.00000  Uiso   1.00
O232   O     0.78778   0.27503   0.23257   0.00000  Uiso   1.00
O233   O     0.86171   0.26427   0.16351   0.00000  Uiso   1.00
H234   H     0.85362   0.29099   0.15177   0.00000  Uiso   1.00
C235   C     0.33255   0.42077   0.25002   0.00000  Uiso   1.00
C236   C     0.00102   0.57918   0.24943   0.00000  Uiso   1.00
C237   C     0.20080   0.49586   0.05295   0.00000  Uiso   1.00
C238   C     0.17814   0.57461   0.47780   0.00000  Uiso   1.00
C239   C     0.24724   0.48567   0.02746   0.00000  Uiso   1.00
C240   C     0.13412   0.58872   0.00436   0.00000  Uiso   1.00
C241   C     0.30114   0.35166   0.28553   0.00000  Uiso   1.00
C242   C     0.03316   0.64803   0.21372   0.00000  Uiso   1.00
C243   C     0.30253   0.64214   0.28564   0.00000  Uiso   1.00
C244   C     0.03165   0.35766   0.21358   0.00000  Uiso   1.00
C245   C     0.00206   0.62376   0.24991   0.00000  Uiso   1.00
C246   C     0.33182   0.37607   0.24923   0.00000  Uiso   1.00
C247   C     0.18121   0.46765   0.27112   0.00000  Uiso   1.00
C248   C     0.15247   0.53160   0.22770   0.00000  Uiso   1.00
C249   C     0.13212   0.46888   0.27142   0.00000  Uiso   1.00
C250   C     0.20111   0.53121   0.22875   0.00000  Uiso   1.00
C251   C     0.30491   0.50093   0.33632   0.00000  Uiso   1.00
C252   C     0.02822   0.50208   0.16416   0.00000  Uiso   1.00
C253   C     0.28819   0.50092   0.38635   0.00000  Uiso   1.00
C254   C     0.04700   0.51603   0.11678   0.00000  Uiso   1.00
C255   C     0.30679   0.47989   0.45457   0.00000  Uiso   1.00
C256   C     0.05847   0.57611   0.06527   0.00000  Uiso   1.00
C257   C     0.32003   0.48469   0.40809   0.00000  Uiso   1.00
C258   C     0.03026   0.55282   0.10337   0.00000  Uiso   1.00
C259   C     0.24246   0.51567   0.41301   0.00000  Uiso   1.00
C260   C     0.09111   0.50103   0.09046   0.00000  Uiso   1.00
C261   C     0.23376   0.51699   0.46041   0.00000  Uiso   1.00
C262   C     0.12311   0.52753   0.05566   0.00000  Uiso   1.00
C263   C     0.26300   0.49435   0.48085   0.00000  Uiso   1.00
C264   C     0.10510   0.56426   0.04173   0.00000  Uiso   1.00
C265   C     0.19409   0.53651   0.48934   0.00000  Uiso   1.00
C266   C     0.17181   0.51862   0.03289   0.00000  Uiso   1.00
Cu267  Cu    0.04689   0.50001   0.25000   0.00000  Uiso   1.00
Cu268  Cu    0.28645   0.49999   0.25000   0.00000  Uiso   1.00
H269   H     0.26948   0.46887   0.04368   0.00000  Uiso   1.00
H270   H     0.12147   0.61743   0.49417   0.00000  Uiso   1.00
H271   H     0.32997   0.56483   0.12391   0.00000  Uiso   1.00
H272   H     0.02118   0.47307   0.38895   0.00000  Uiso   1.00
H273   H     0.33061   0.46428   0.46997   0.00000  Uiso   1.00
H274   H     0.04479   0.60445   0.05545   0.00000  Uiso   1.00
H275   H     0.18887   0.48785   0.08856   0.00000  Uiso   1.00
H276   H     0.19863   0.59248   0.44742   0.00000  Uiso   1.00
H277   H     0.27721   0.36545   0.31428   0.00000  Uiso   1.00
H278   H     0.05774   0.63385   0.18541   0.00000  Uiso   1.00
H279   H     0.27848   0.62332   0.31372   0.00000  Uiso   1.00
H280   H     0.05603   0.37650   0.18573   0.00000  Uiso   1.00
H281   H     0.10539   0.44426   0.28804   0.00000  Uiso   1.00
H282   H     0.22763   0.55603   0.21227   0.00000  Uiso   1.00
N283   N     0.11736   0.50001   0.24999   0.00000  Uiso   1.00
N284   N     0.21597   0.49999   0.25001   0.00000  Uiso   1.00
O285   O     0.03958   0.43989   0.25000   0.00000  Uiso   1.00
O286   O     0.29375   0.56011   0.25000   0.00000  Uiso   1.00
O287   O     0.29372   0.43988   0.25000   0.00000  Uiso   1.00
O288   O     0.03961   0.56012   0.24999   0.00000  Uiso   1.00
O289   O     0.01852   0.50001   0.31491   0.00000  Uiso   1.00
O290   O     0.31481   0.49999   0.18508   0.00000  Uiso   1.00
O291   O     0.27267   0.50000   0.31492   0.00000  Uiso   1.00
O292   O     0.06067   0.50000   0.18508   0.00000  Uiso   1.00
S293   S     0.09859   0.44668   0.09622   0.00000  Uiso   1.00
O294   O     0.12248   0.43852   0.13194   0.00000  Uiso   1.00
O295   O     0.04941   0.42352   0.11014   0.00000  Uiso   1.00
O296   O     0.13258   0.42848   0.04748   0.00000  Uiso   1.00
H297   H     0.11531   0.43554   0.02549   0.00000  Uiso   1.00
S298   S     0.19339   0.52549   0.38983   0.00000  Uiso   1.00
O299   O     0.20604   0.56526   0.36124   0.00000  Uiso   1.00
O300   O     0.18576   0.49114   0.36139   0.00000  Uiso   1.00
O301   O     0.13838   0.52852   0.42827   0.00000  Uiso   1.00
H302   H     0.12956   0.50014   0.44250   0.00000  Uiso   1.00
S303   S     0.19313   0.42001   0.29563   0.00000  Uiso   1.00
O304   O     0.14592   0.39879   0.32479   0.00000  Uiso   1.00
O305   O     0.21510   0.39169   0.25852   0.00000  Uiso   1.00
O306   O     0.22992   0.42608   0.32783   0.00000  Uiso   1.00
H307   H     0.21332   0.41024   0.35658   0.00000  Uiso   1.00
S308   S     0.14184   0.57684   0.19865   0.00000  Uiso   1.00
O309   O     0.10869   0.56851   0.17086   0.00000  Uiso   1.00
O310   O     0.12111   0.60837   0.23257   0.00000  Uiso   1.00
O311   O     0.19504   0.59761   0.16351   0.00000  Uiso   1.00
H312   H     0.18695   0.62432   0.15177   0.00000  Uiso   1.00
C313   C     0.66588   0.42077   0.25002   0.00000  Uiso   1.00
C314   C     0.33436   0.57918   0.24943   0.00000  Uiso   1.00
C315   C     0.53413   0.49586   0.05295   0.00000  Uiso   1.00
C316   C     0.51148   0.57461   0.47780   0.00000  Uiso   1.00
C317   C     0.58057   0.48567   0.02746   0.00000  Uiso   1.00
C318   C     0.46745   0.58872   0.00436   0.00000  Uiso   1.00
C319   C     0.63448   0.35166   0.28553   0.00000  Uiso   1.00
C320   C     0.36650   0.64803   0.21372   0.00000  Uiso   1.00
C321   C     0.63587   0.64214   0.28564   0.00000  Uiso   1.00
C322   C     0.36499   0.35766   0.21358   0.00000  Uiso   1.00
C323   C     0.33540   0.62376   0.24991   0.00000  Uiso   1.00
C324   C     0.66516   0.37607   0.24923   0.00000  Uiso   1.00
C325   C     0.51454   0.46765   0.27112   0.00000  Uiso   1.00
C326   C     0.48580   0.53160   0.22770   0.00000  Uiso   1.00
C327   C     0.46545   0.46888   0.27142   0.00000  Uiso   1.00
C328   C     0.53444   0.53121   0.22875   0.00000  Uiso   1.00
C329   C     0.63825   0.50093   0.33632   0.00000  Uiso   1.00
C330   C     0.36155   0.50208   0.16416   0.00000  Uiso   1.00
C331   C     0.62152   0.50092   0.38635   0.00000  Uiso   1.00
C332   C     0.38033   0.51603   0.11678   0.00000  Uiso   1.00
C333   C     0.64012   0.47989   0.45457   0.00000  Uiso   1.00
C334   C     0.39180   0.57611   0.06527   0.00000  Uiso   1.00
C335   C     0.65337   0.48469   0.40809   0.00000  Uiso   1.00
C336   C     0.36359   0.55282   0.10337   0.00000  Uiso   1.00
C337   C     0.57579   0.51567   0.41301   0.00000  Uiso   1.00
C338   C     0.42444   0.50103   0.09046   0.00000  Uiso   1.00
C339   C     0.56710   0.51699   0.46041   0.00000  Uiso   1.00
C340   C     0.45644   0.52753   0.05566   0.00000  Uiso   1.00
C341   C     0.59633   0.49435   0.48085   0.00000  Uiso   1.00
C342   C     0.43844   0.56426   0.04173   0.00000  Uiso   1.00
C343   C     0.52743   0.53651   0.48934   0.00000  Uiso   1.00
C344   C     0.50514   0.51862   0.03289   0.00000  Uiso   1.00
Cu345  Cu    0.38022   0.50001   0.25000   0.00000  Uiso   1.00
Cu346  Cu    0.61978   0.49999   0.25000   0.00000  Uiso   1.00
H347   H     0.60282   0.46887   0.04368   0.00000  Uiso   1.00
H348   H     0.45480   0.61743   0.49417   0.00000  Uiso   1.00
H349   H     0.66330   0.56483   0.12391   0.00000  Uiso   1.00
H350   H     0.35451   0.47307   0.38895   0.00000  Uiso   1.00
H351   H     0.66394   0.46428   0.46997   0.00000  Uiso   1.00
H352   H     0.37812   0.60445   0.05545   0.00000  Uiso   1.00
H353   H     0.52221   0.48785   0.08856   0.00000  Uiso   1.00
H354   H     0.53196   0.59248   0.44742   0.00000  Uiso   1.00
H355   H     0.61054   0.36545   0.31428   0.00000  Uiso   1.00
H356   H     0.39108   0.63385   0.18541   0.00000  Uiso   1.00
H357   H     0.61182   0.62332   0.31372   0.00000  Uiso   1.00
H358   H     0.38936   0.37650   0.18573   0.00000  Uiso   1.00
H359   H     0.43872   0.44426   0.28804   0.00000  Uiso   1.00
H360   H     0.56097   0.55603   0.21227   0.00000  Uiso   1.00
N361   N     0.45069   0.50001   0.24999   0.00000  Uiso   1.00
N362   N     0.54931   0.49999   0.25001   0.00000  Uiso   1.00
O363   O     0.37291   0.43989   0.25000   0.00000  Uiso   1.00
O364   O     0.62709   0.56011   0.25000   0.00000  Uiso   1.00
O365   O     0.62706   0.43988   0.25000   0.00000  Uiso   1.00
O366   O     0.37294   0.56012   0.24999   0.00000  Uiso   1.00
O367   O     0.35186   0.50001   0.31491   0.00000  Uiso   1.00
O368   O     0.64814   0.49999   0.18508   0.00000  Uiso   1.00
O369   O     0.60600   0.50000   0.31492   0.00000  Uiso   1.00
O370   O     0.39400   0.50000   0.18508   0.00000  Uiso   1.00
S371   S     0.43192   0.44668   0.09622   0.00000  Uiso   1.00
O372   O     0.45581   0.43852   0.13194   0.00000  Uiso   1.00
O373   O     0.38274   0.42352   0.11014   0.00000  Uiso   1.00
O374   O     0.46591   0.42848   0.04748   0.00000  Uiso   1.00
H375   H     0.44865   0.43554   0.02549   0.00000  Uiso   1.00
S376   S     0.52672   0.52549   0.38983   0.00000  Uiso   1.00
O377   O     0.53938   0.56526   0.36124   0.00000  Uiso   1.00
O378   O     0.51909   0.49114   0.36139   0.00000  Uiso   1.00
O379   O     0.47171   0.52852   0.42827   0.00000  Uiso   1.00
H380   H     0.46290   0.50014   0.44250   0.00000  Uiso   1.00
S381   S     0.52647   0.42001   0.29563   0.00000  Uiso   1.00
O382   O     0.47925   0.39879   0.32479   0.00000  Uiso   1.00
O383   O     0.54843   0.39169   0.25852   0.00000  Uiso   1.00
O384   O     0.56325   0.42608   0.32783   0.00000  Uiso   1.00
H385   H     0.54665   0.41024   0.35658   0.00000  Uiso   1.00
S386   S     0.47517   0.57684   0.19865   0.00000  Uiso   1.00
O387   O     0.44202   0.56851   0.17086   0.00000  Uiso   1.00
O388   O     0.45445   0.60837   0.23257   0.00000  Uiso   1.00
O389   O     0.52838   0.59761   0.16351   0.00000  Uiso   1.00
H390   H     0.52028   0.62432   0.15177   0.00000  Uiso   1.00
C391   C     0.99922   0.42077   0.25002   0.00000  Uiso   1.00
C392   C     0.66769   0.57918   0.24943   0.00000  Uiso   1.00
C393   C     0.86747   0.49586   0.05295   0.00000  Uiso   1.00
C394   C     0.84481   0.57461   0.47780   0.00000  Uiso   1.00
C395   C     0.91391   0.48567   0.02746   0.00000  Uiso   1.00
C396   C     0.80079   0.58872   0.00436   0.00000  Uiso   1.00
C397   C     0.96781   0.35166   0.28553   0.00000  Uiso   1.00
C398   C     0.69983   0.64803   0.21372   0.00000  Uiso   1.00
C399   C     0.96920   0.64214   0.28564   0.00000  Uiso   1.00
C400   C     0.69832   0.35766   0.21358   0.00000  Uiso   1.00
C401   C     0.66873   0.62376   0.24991   0.00000  Uiso   1.00
C402   C     0.99849   0.37607   0.24923   0.00000  Uiso   1.00
C403   C     0.84787   0.46765   0.27112   0.00000  Uiso   1.00
C404   C     0.81913   0.53160   0.22770   0.00000  Uiso   1.00
C405   C     0.79879   0.46888   0.27142   0.00000  Uiso   1.00
C406   C     0.86778   0.53121   0.22875   0.00000  Uiso   1.00
C407   C     0.97158   0.50093   0.33632   0.00000  Uiso   1.00
C408   C     0.69488   0.50208   0.16416   0.00000  Uiso   1.00
C409   C     0.95486   0.50092   0.38635   0.00000  Uiso   1.00
C410   C     0.71366   0.51603   0.11678   0.00000  Uiso   1.00
C411   C     0.97345   0.47989   0.45457   0.00000  Uiso   1.00
C412   C     0.72513   0.57611   0.06527   0.00000  Uiso   1.00
C413   C     0.98670   0.48469   0.40809   0.00000  Uiso   1.00
C414   C     0.69692   0.55282   0.10337   0.00000  Uiso   1.00
C415   C     0.90913   0.51567   0.41301   0.00000  Uiso   1.00
C416   C     0.75777   0.50103   0.09046   0.00000  Uiso   1.00
C417   C     0.90043   0.51699   0.46041   0.00000  Uiso   1.00
C418   C     0.78978   0.52753   0.05566   0.00000  Uiso   1.00
C419   C     0.92966   0.49435   0.48085   0.00000  Uiso   1.00
C420   C     0.77177   0.56426   0.04173   0.00000  Uiso   1.00
C421   C     0.86076   0.53651   0.48934   0.00000  Uiso   1.00
C422   C     0.83848   0.51862   0.03289   0.00000  Uiso   1.00
Cu423  Cu    0.71355   0.50001   0.25000   0.00000  Uiso   1.00
Cu424  Cu    0.95311   0.49999   0.25000   0.00000  Uiso   1.00
H425   H     0.93615   0.46887   0.04368   0.00000  Uiso   1.00
H426   H     0.78813   0.61743   0.49417   0.00000  Uiso   1.00
H427   H     0.99664   0.56483   0.12391   0.00000  Uiso   1.00
H428   H     0.68784   0.47307   0.38895   0.00000  Uiso   1.00
H429   H     0.99727   0.46428   0.46997   0.00000  Uiso   1.00
H430   H     0.71145   0.60445   0.05545   0.00000  Uiso   1.00
H431   H     0.85554   0.48785   0.08856   0.00000  Uiso   1.00
H432   H     0.86530   0.59248   0.44742   0.00000  Uiso   1.00
H433   H     0.94387   0.36545   0.31428   0.00000  Uiso   1.00
H434   H     0.72441   0.63385   0.18541   0.00000  Uiso   1.00
H435   H     0.94515   0.62332   0.31372   0.00000  Uiso   1.00
H436   H     0.72269   0.37650   0.18573   0.00000  Uiso   1.00
H437   H     0.77206   0.44426   0.28804   0.00000  Uiso   1.00
H438   H     0.89430   0.55603   0.21227   0.00000  Uiso   1.00
N439   N     0.78403   0.50001   0.24999   0.00000  Uiso   1.00
N440   N     0.88264   0.49999   0.25001   0.00000  Uiso   1.00
O441   O     0.70625   0.43989   0.25000   0.00000  Uiso   1.00
O442   O     0.96042   0.56011   0.25000   0.00000  Uiso   1.00
O443   O     0.96039   0.43988   0.25000   0.00000  Uiso   1.00
O444   O     0.70628   0.56012   0.24999   0.00000  Uiso   1.00
O445   O     0.68519   0.50001   0.31491   0.00000  Uiso   1.00
O446   O     0.98148   0.49999   0.18508   0.00000  Uiso   1.00
O447   O     0.93933   0.50000   0.31492   0.00000  Uiso   1.00
O448   O     0.72733   0.50000   0.18508   0.00000  Uiso   1.00
S449   S     0.76526   0.44668   0.09622   0.00000  Uiso   1.00
O450   O     0.78914   0.43852   0.13194   0.00000  Uiso   1.00
O451   O     0.71608   0.42352   0.11014   0.00000  Uiso   1.00
O452   O     0.79925   0.42848   0.04748   0.00000  Uiso   1.00
H453   H     0.78198   0.43554   0.02549   0.00000  Uiso   1.00
S454   S     0.86006   0.52549   0.38983   0.00000  Uiso   1.00
O455   O     0.87271   0.56526   0.36124   0.00000  Uiso   1.00
O456   O     0.85242   0.49114   0.36139   0.00000  Uiso   1.00
O457   O     0.80505   0.52852   0.42827   0.00000  Uiso   1.00
H458   H     0.79623   0.50014   0.44250   0.00000  Uiso   1.00
S459   S     0.85980   0.42001   0.29563   0.00000  Uiso   1.00
O460   O     0.81258   0.39879   0.32479   0.00000  Uiso   1.00
O461   O     0.88176   0.39169   0.25852   0.00000  Uiso   1.00
O462   O     0.89658   0.42608   0.32783   0.00000  Uiso   1.00
H463   H     0.87999   0.41024   0.35658   0.00000  Uiso   1.00
S464   S     0.80851   0.57684   0.19865   0.00000  Uiso   1.00
O465   O     0.77536   0.56851   0.17086   0.00000  Uiso   1.00
O466   O     0.78778   0.60837   0.23257   0.00000  Uiso   1.00
O467   O     0.86171   0.59761   0.16351   0.00000  Uiso   1.00
H468   H     0.85362   0.62432   0.15177   0.00000  Uiso   1.00
C469   C     0.33255   0.75410   0.25002   0.00000  Uiso   1.00
C470   C     0.00102   0.91252   0.24943   0.00000  Uiso   1.00
C471   C     0.20080   0.82920   0.05295   0.00000  Uiso   1.00
C472   C     0.17814   0.90794   0.47780   0.00000  Uiso   1.00
C473   C     0.24724   0.81900   0.02746   0.00000  Uiso   1.00
C474   C     0.13412   0.92206   0.00436   0.00000  Uiso   1.00
C475   C     0.30114   0.68500   0.28553   0.00000  Uiso   1.00
C476   C     0.03316   0.98136   0.21372   0.00000  Uiso   1.00
C477   C     0.30253   0.97547   0.28564   0.00000  Uiso   1.00
C478   C     0.03165   0.69099   0.21358   0.00000  Uiso   1.00
C479   C     0.00206   0.95710   0.24991   0.00000  Uiso   1.00
C480   C     0.33182   0.70940   0.24923   0.00000  Uiso   1.00
C481   C     0.18121   0.80099   0.27112   0.00000  Uiso   1.00
C482   C     0.15247   0.86493   0.22770   0.00000  Uiso   1.00
C483   C     0.13212   0.80221   0.27142   0.00000  Uiso   1.00
C484   C     0.20111   0.86455   0.22875   0.00000  Uiso   1.00
C485   C     0.30491   0.83427   0.33632   0.00000  Uiso   1.00
C486   C     0.02822   0.83541   0.16416   0.00000  Uiso   1.00
C487   C     0.28819   0.83425   0.38635   0.00000  Uiso   1.00
C488   C     0.04700   0.84937   0.11678   0.00000  Uiso   1.00
C489   C     0.30679   0.81323   0.45457   0.00000  Uiso   1.00
C490   C     0.05847   0.90944   0.06527   0.00000  Uiso   1.00
C491   C     0.32003   0.81802   0.40809   0.00000  Uiso   1.00
C492   C     0.03026   0.88615   0.10337   0.00000  Uiso   1.00
C493   C     0.24246   0.84901   0.41301   0.00000  Uiso   1.00
C494   C     0.09111   0.83437   0.09046   0.00000  Uiso   1.00
C495   C     0.23376   0.85032   0.46041   0.00000  Uiso   1.00
C496   C     0.12311   0.86087   0.05566   0.00000  Uiso   1.00
C497   C     0.26300   0.82768   0.48085   0.00000  Uiso   1.00
C498   C     0.10510   0.89760   0.04173   0.00000  Uiso   1.00
C499   C     0.19409   0.86984   0.48934   0.00000  Uiso   1.00
C500   C     0.17181   0.85195   0.03289   0.00000  Uiso   1.00
Cu501  Cu    0.04689   0.83334   0.25000   0.00000  Uiso   1.00
Cu502  Cu    0.28645   0.83333   0.25000   0.00000  Uiso   1.00
H503   H     0.26948   0.80220   0.04368   0.00000  Uiso   1.00
H504   H     0.12147   0.95076   0.49417   0.00000  Uiso   1.00
H505   H     0.32997   0.89817   0.12391   0.00000  Uiso   1.00
H506   H     0.02118   0.80640   0.38895   0.00000  Uiso   1.00
H507   H     0.33061   0.79761   0.46997   0.00000  Uiso   1.00
H508   H     0.04479   0.93779   0.05545   0.00000  Uiso   1.00
H509   H     0.18887   0.82118   0.08856   0.00000  Uiso   1.00
H510   H     0.19863   0.92582   0.44742   0.00000  Uiso   1.00
H511   H     0.27721   0.69878   0.31428   0.00000  Uiso   1.00
H512   H     0.05774   0.96718   0.18541   0.00000  Uiso   1.00
H513   H     0.27848   0.95665   0.31372   0.00000  Uiso   1.00
H514   H     0.05603   0.70983   0.18573   0.00000  Uiso   1.00
H515   H     0.10539   0.77759   0.28804   0.00000  Uiso   1.00
H516   H     0.22763   0.88937   0.21227   0.00000  Uiso   1.00
N517   N     0.11736   0.83334   0.24999   0.00000  Uiso   1.00
N518   N     0.21597   0.83332   0.25001   0.00000  Uiso   1.00
O519   O     0.03958   0.77322   0.25000   0.00000  Uiso   1.00
O520   O     0.29375   0.89345   0.25000   0.00000  Uiso   1.00
O521   O     0.29372   0.77321   0.25000   0.00000  Uiso   1.00
O522   O     0.03961   0.89346   0.24999   0.00000  Uiso   1.00
O523   O     0.01852   0.83334   0.31491   0.00000  Uiso   1.00
O524   O     0.31481   0.83332   0.18508   0.00000  Uiso   1.00
O525   O     0.27267   0.83333   0.31492   0.00000  Uiso   1.00
O526   O     0.06067   0.83333   0.18508   0.00000  Uiso   1.00
S527   S     0.09859   0.78002   0.09622   0.00000  Uiso   1.00
O528   O     0.12248   0.77185   0.13194   0.00000  Uiso   1.00
O529   O     0.04941   0.75686   0.11014   0.00000  Uiso   1.00
O530   O     0.13258   0.76182   0.04748   0.00000  Uiso   1.00
H531   H     0.11531   0.76887   0.02549   0.00000  Uiso   1.00
S532   S     0.19339   0.85882   0.38983   0.00000  Uiso   1.00
O533   O     0.20604   0.89859   0.36124   0.00000  Uiso   1.00
O534   O     0.18576   0.82447   0.36139   0.00000  Uiso   1.00
O535   O     0.13838   0.86186   0.42827   0.00000  Uiso   1.00
H536   H     0.12956   0.83347   0.44250   0.00000  Uiso   1.00
S537   S     0.19313   0.75335   0.29563   0.00000  Uiso   1.00
O538   O     0.14592   0.73212   0.32479   0.00000  Uiso   1.00
O539   O     0.21510   0.72503   0.25852   0.00000  Uiso   1.00
O540   O     0.22992   0.75941   0.32783   0.00000  Uiso   1.00
H541   H     0.21332   0.74357   0.35658   0.00000  Uiso   1.00
S542   S     0.14184   0.91017   0.19865   0.00000  Uiso   1.00
O543   O     0.10869   0.90185   0.17086   0.00000  Uiso   1.00
O544   O     0.12111   0.94170   0.23257   0.00000  Uiso   1.00
O545   O     0.19504   0.93094   0.16351   0.00000  Uiso   1.00
H546   H     0.18695   0.95766   0.15177   0.00000  Uiso   1.00
C547   C     0.66588   0.75410   0.25002   0.00000  Uiso   1.00
C548   C     0.33436   0.91252   0.24943   0.00000  Uiso   1.00
C549   C     0.53413   0.82920   0.05295   0.00000  Uiso   1.00
C550   C     0.51148   0.90794   0.47780   0.00000  Uiso   1.00
C551   C     0.58057   0.81900   0.02746   0.00000  Uiso   1.00
C552   C     0.46745   0.92206   0.00436   0.00000  Uiso   1.00
C553   C     0.63448   0.68500   0.28553   0.00000  Uiso   1.00
C554   C     0.36650   0.98136   0.21372   0.00000  Uiso   1.00
C555   C     0.63587   0.97547   0.28564   0.00000  Uiso   1.00
C556   C     0.36499   0.69099   0.21358   0.00000  Uiso   1.00
C557   C     0.33540   0.95710   0.24991   0.00000  Uiso   1.00
C558   C     0.66516   0.70940   0.24923   0.00000  Uiso   1.00
C559   C     0.51454   0.80099   0.27112   0.00000  Uiso   1.00
C560   C     0.48580   0.86493   0.22770   0.00000  Uiso   1.00
C561   C     0.46545   0.80221   0.27142   0.00000  Uiso   1.00
C562   C     0.53444   0.86455   0.22875   0.00000  Uiso   1.00
C563   C     0.63825   0.83427   0.33632   0.00000  Uiso   1.00
C564   C     0.36155   0.83541   0.16416   0.00000  Uiso   1.00
C565   C     0.62152   0.83425   0.38635   0.00000  Uiso   1.00
C566   C     0.38033   0.84937   0.11678   0.00000  Uiso   1.00
C567   C     0.64012   0.81323   0.45457   0.00000  Uiso   1.00
C568   C     0.39180   0.90944   0.06527   0.00000  Uiso   1.00
C569   C     0.65337   0.81802   0.40809   0.00000  Uiso   1.00
C570   C     0.36359   0.88615   0.10337   0.00000  Uiso   1.00
C571   C     0.57579   0.84901   0.41301   0.00000  Uiso   1.00
C572   C     0.42444   0.83437   0.09046   0.00000  Uiso   1.00
C573   C     0.56710   0.85032   0.46041   0.00000  Uiso   1.00
C574   C     0.45644   0.86087   0.05566   0.00000  Uiso   1.00
C575   C     0.59633   0.82768   0.48085   0.00000  Uiso   1.00
C576   C     0.43844   0.89760   0.04173   0.00000  Uiso   1.00
C577   C     0.52743   0.86984   0.48934   0.00000  Uiso   1.00
C578   C     0.50514   0.85195   0.03289   0.00000  Uiso   1.00
Cu579  Cu    0.38022   0.83334   0.25000   0.00000  Uiso   1.00
Cu580  Cu    0.61978   0.83333   0.25000   0.00000  Uiso   1.00
H581   H     0.60282   0.80220   0.04368   0.00000  Uiso   1.00
H582   H     0.45480   0.95076   0.49417   0.00000  Uiso   1.00
H583   H     0.66330   0.89817   0.12391   0.00000  Uiso   1.00
H584   H     0.35451   0.80640   0.38895   0.00000  Uiso   1.00
H585   H     0.66394   0.79761   0.46997   0.00000  Uiso   1.00
H586   H     0.37812   0.93779   0.05545   0.00000  Uiso   1.00
H587   H     0.52221   0.82118   0.08856   0.00000  Uiso   1.00
H588   H     0.53196   0.92582   0.44742   0.00000  Uiso   1.00
H589   H     0.61054   0.69878   0.31428   0.00000  Uiso   1.00
H590   H     0.39108   0.96718   0.18541   0.00000  Uiso   1.00
H591   H     0.61182   0.95665   0.31372   0.00000  Uiso   1.00
H592   H     0.38936   0.70983   0.18573   0.00000  Uiso   1.00
H593   H     0.43872   0.77759   0.28804   0.00000  Uiso   1.00
H594   H     0.56097   0.88937   0.21227   0.00000  Uiso   1.00
N595   N     0.45069   0.83334   0.24999   0.00000  Uiso   1.00
N596   N     0.54931   0.83332   0.25001   0.00000  Uiso   1.00
O597   O     0.37291   0.77322   0.25000   0.00000  Uiso   1.00
O598   O     0.62709   0.89345   0.25000   0.00000  Uiso   1.00
O599   O     0.62706   0.77321   0.25000   0.00000  Uiso   1.00
O600   O     0.37294   0.89346   0.24999   0.00000  Uiso   1.00
O601   O     0.35186   0.83334   0.31491   0.00000  Uiso   1.00
O602   O     0.64814   0.83332   0.18508   0.00000  Uiso   1.00
O603   O     0.60600   0.83333   0.31492   0.00000  Uiso   1.00
O604   O     0.39400   0.83333   0.18508   0.00000  Uiso   1.00
S605   S     0.43192   0.78002   0.09622   0.00000  Uiso   1.00
O606   O     0.45581   0.77185   0.13194   0.00000  Uiso   1.00
O607   O     0.38274   0.75686   0.11014   0.00000  Uiso   1.00
O608   O     0.46591   0.76182   0.04748   0.00000  Uiso   1.00
H609   H     0.44865   0.76887   0.02549   0.00000  Uiso   1.00
S610   S     0.52672   0.85882   0.38983   0.00000  Uiso   1.00
O611   O     0.53938   0.89859   0.36124   0.00000  Uiso   1.00
O612   O     0.51909   0.82447   0.36139   0.00000  Uiso   1.00
O613   O     0.47171   0.86186   0.42827   0.00000  Uiso   1.00
H614   H     0.46290   0.83347   0.44250   0.00000  Uiso   1.00
S615   S     0.52647   0.75335   0.29563   0.00000  Uiso   1.00
O616   O     0.47925   0.73212   0.32479   0.00000  Uiso   1.00
O617   O     0.54843   0.72503   0.25852   0.00000  Uiso   1.00
O618   O     0.56325   0.75941   0.32783   0.00000  Uiso   1.00
H619   H     0.54665   0.74357   0.35658   0.00000  Uiso   1.00
S620   S     0.47517   0.91017   0.19865   0.00000  Uiso   1.00
O621   O     0.44202   0.90185   0.17086   0.00000  Uiso   1.00
O622   O     0.45445   0.94170   0.23257   0.00000  Uiso   1.00
O623   O     0.52838   0.93094   0.16351   0.00000  Uiso   1.00
H624   H     0.52028   0.95766   0.15177   0.00000  Uiso   1.00
C625   C     0.99922   0.75410   0.25002   0.00000  Uiso   1.00
C626   C     0.66769   0.91252   0.24943   0.00000  Uiso   1.00
C627   C     0.86747   0.82920   0.05295   0.00000  Uiso   1.00
C628   C     0.84481   0.90794   0.47780   0.00000  Uiso   1.00
C629   C     0.91391   0.81900   0.02746   0.00000  Uiso   1.00
C630   C     0.80079   0.92206   0.00436   0.00000  Uiso   1.00
C631   C     0.96781   0.68500   0.28553   0.00000  Uiso   1.00
C632   C     0.69983   0.98136   0.21372   0.00000  Uiso   1.00
C633   C     0.96920   0.97547   0.28564   0.00000  Uiso   1.00
C634   C     0.69832   0.69099   0.21358   0.00000  Uiso   1.00
C635   C     0.66873   0.95710   0.24991   0.00000  Uiso   1.00
C636   C     0.99849   0.70940   0.24923   0.00000  Uiso   1.00
C637   C     0.84787   0.80099   0.27112   0.00000  Uiso   1.00
C638   C     0.81913   0.86493   0.22770   0.00000  Uiso   1.00
C639   C     0.79879   0.80221   0.27142   0.00000  Uiso   1.00
C640   C     0.86778   0.86455   0.22875   0.00000  Uiso   1.00
C641   C     0.97158   0.83427   0.33632   0.00000  Uiso   1.00
C642   C     0.69488   0.83541   0.16416   0.00000  Uiso   1.00
C643   C     0.95486   0.83425   0.38635   0.00000  Uiso   1.00
C644   C     0.71366   0.84937   0.11678   0.00000  Uiso   1.00
C645   C     0.97345   0.81323   0.45457   0.00000  Uiso   1.00
C646   C     0.72513   0.90944   0.06527   0.00000  Uiso   1.00
C647   C     0.98670   0.81802   0.40809   0.00000  Uiso   1.00
C648   C     0.69692   0.88615   0.10337   0.00000  Uiso   1.00
C649   C     0.90913   0.84901   0.41301   0.00000  Uiso   1.00
C650   C     0.75777   0.83437   0.09046   0.00000  Uiso   1.00
C651   C     0.90043   0.85032   0.46041   0.00000  Uiso   1.00
C652   C     0.78978   0.86087   0.05566   0.00000  Uiso   1.00
C653   C     0.92966   0.82768   0.48085   0.00000  Uiso   1.00
C654   C     0.77177   0.89760   0.04173   0.00000  Uiso   1.00
C655   C     0.86076   0.86984   0.48934   0.00000  Uiso   1.00
C656   C     0.83848   0.85195   0.03289   0.00000  Uiso   1.00
Cu657  Cu    0.71355   0.83334   0.25000   0.00000  Uiso   1.00
Cu658  Cu    0.95311   0.83333   0.25000   0.00000  Uiso   1.00
H659   H     0.93615   0.80220   0.04368   0.00000  Uiso   1.00
H660   H     0.78813   0.95076   0.49417   0.00000  Uiso   1.00
H661   H     0.99664   0.89817   0.12391   0.00000  Uiso   1.00
H662   H     0.68784   0.80640   0.38895   0.00000  Uiso   1.00
H663   H     0.99727   0.79761   0.46997   0.00000  Uiso   1.00
H664   H     0.71145   0.93779   0.05545   0.00000  Uiso   1.00
H665   H     0.85554   0.82118   0.08856   0.00000  Uiso   1.00
H666   H     0.86530   0.92582   0.44742   0.00000  Uiso   1.00
H667   H     0.94387   0.69878   0.31428   0.00000  Uiso   1.00
H668   H     0.72441   0.96718   0.18541   0.00000  Uiso   1.00
H669   H     0.94515   0.95665   0.31372   0.00000  Uiso   1.00
H670   H     0.72269   0.70983   0.18573   0.00000  Uiso   1.00
H671   H     0.77206   0.77759   0.28804   0.00000  Uiso   1.00
H672   H     0.89430   0.88937   0.21227   0.00000  Uiso   1.00
N673   N     0.78403   0.83334   0.24999   0.00000  Uiso   1.00
N674   N     0.88264   0.83332   0.25001   0.00000  Uiso   1.00
O675   O     0.70625   0.77322   0.25000   0.00000  Uiso   1.00
O676   O     0.96042   0.89345   0.25000   0.00000  Uiso   1.00
O677   O     0.96039   0.77321   0.25000   0.00000  Uiso   1.00
O678   O     0.70628   0.89346   0.24999   0.00000  Uiso   1.00
O679   O     0.68519   0.83334   0.31491   0.00000  Uiso   1.00
O680   O     0.98148   0.83332   0.18508   0.00000  Uiso   1.00
O681   O     0.93933   0.83333   0.31492   0.00000  Uiso   1.00
O682   O     0.72733   0.83333   0.18508   0.00000  Uiso   1.00
S683   S     0.76526   0.78002   0.09622   0.00000  Uiso   1.00
O684   O     0.78914   0.77185   0.13194   0.00000  Uiso   1.00
O685   O     0.71608   0.75686   0.11014   0.00000  Uiso   1.00
O686   O     0.79925   0.76182   0.04748   0.00000  Uiso   1.00
H687   H     0.78198   0.76887   0.02549   0.00000  Uiso   1.00
S688   S     0.86006   0.85882   0.38983   0.00000  Uiso   1.00
O689   O     0.87271   0.89859   0.36124   0.00000  Uiso   1.00
O690   O     0.85242   0.82447   0.36139   0.00000  Uiso   1.00
O691   O     0.80505   0.86186   0.42827   0.00000  Uiso   1.00
H692   H     0.79623   0.83347   0.44250   0.00000  Uiso   1.00
S693   S     0.85980   0.75335   0.29563   0.00000  Uiso   1.00
O694   O     0.81258   0.73212   0.32479   0.00000  Uiso   1.00
O695   O     0.88176   0.72503   0.25852   0.00000  Uiso   1.00
O696   O     0.89658   0.75941   0.32783   0.00000  Uiso   1.00
H697   H     0.87999   0.74357   0.35658   0.00000  Uiso   1.00
S698   S     0.80851   0.91017   0.19865   0.00000  Uiso   1.00
O699   O     0.77536   0.90185   0.17086   0.00000  Uiso   1.00
O700   O     0.78778   0.94170   0.23257   0.00000  Uiso   1.00
O701   O     0.86171   0.93094   0.16351   0.00000  Uiso   1.00
H702   H     0.85362   0.95766   0.15177   0.00000  Uiso   1.00
C703   C     0.33255   0.08744   0.75002   0.00000  Uiso   1.00
C704   C     0.00102   0.24585   0.74943   0.00000  Uiso   1.00
C705   C     0.20080   0.16253   0.55295   0.00000  Uiso   1.00
C706   C     0.17814   0.24128   0.97780   0.00000  Uiso   1.00
C707   C     0.24724   0.15233   0.52746   0.00000  Uiso   1.00
C708   C     0.13412   0.25539   0.50436   0.00000  Uiso   1.00
C709   C     0.30114   0.01833   0.78553   0.00000  Uiso   1.00
C710   C     0.03316   0.31470   0.71372   0.00000  Uiso   1.00
C711   C     0.30253   0.30881   0.78564   0.00000  Uiso   1.00
C712   C     0.03165   0.02432   0.71358   0.00000  Uiso   1.00
C713   C     0.00206   0.29043   0.74991   0.00000  Uiso   1.00
C714   C     0.33182   0.04274   0.74923   0.00000  Uiso   1.00
C715   C     0.18121   0.13432   0.77112   0.00000  Uiso   1.00
C716   C     0.15247   0.19826   0.72770   0.00000  Uiso   1.00
C717   C     0.13212   0.13554   0.77142   0.00000  Uiso   1.00
C718   C     0.20111   0.19788   0.72875   0.00000  Uiso   1.00
C719   C     0.30491   0.16760   0.83632   0.00000  Uiso   1.00
C720   C     0.02822   0.16874   0.66416   0.00000  Uiso   1.00
C721   C     0.28819   0.16758   0.88635   0.00000  Uiso   1.00
C722   C     0.04700   0.18270   0.61678   0.00000  Uiso   1.00
C723   C     0.30679   0.14656   0.95457   0.00000  Uiso   1.00
C724   C     0.05847   0.24277   0.56527   0.00000  Uiso   1.00
C725   C     0.32003   0.15135   0.90809   0.00000  Uiso   1.00
C726   C     0.03026   0.21949   0.60337   0.00000  Uiso   1.00
C727   C     0.24246   0.18234   0.91301   0.00000  Uiso   1.00
C728   C     0.09111   0.16770   0.59046   0.00000  Uiso   1.00
C729   C     0.23376   0.18365   0.96041   0.00000  Uiso   1.00
C730   C     0.12311   0.19420   0.55566   0.00000  Uiso   1.00
C731   C     0.26300   0.16102   0.98085   0.00000  Uiso   1.00
C732   C     0.10510   0.23093   0.54173   0.00000  Uiso   1.00
C733   C     0.19409   0.20317   0.98934   0.00000  Uiso   1.00
C734   C     0.17181   0.18529   0.53289   0.00000  Uiso   1.00
Cu735  Cu    0.04689   0.16667   0.75000   0.00000  Uiso   1.00
Cu736  Cu    0.28645   0.16666   0.75000   0.00000  Uiso   1.00
H737   H     0.26948   0.13553   0.54368   0.00000  Uiso   1.00
H738   H     0.12147   0.28409   0.99417   0.00000  Uiso   1.00
H739   H     0.32997   0.23150   0.62391   0.00000  Uiso   1.00
H740   H     0.02118   0.13974   0.88895   0.00000  Uiso   1.00
H741   H     0.33061   0.13094   0.96997   0.00000  Uiso   1.00
H742   H     0.04479   0.27112   0.55545   0.00000  Uiso   1.00
H743   H     0.18887   0.15452   0.58856   0.00000  Uiso   1.00
H744   H     0.19863   0.25915   0.94742   0.00000  Uiso   1.00
H745   H     0.27721   0.03212   0.81428   0.00000  Uiso   1.00
H746   H     0.05774   0.30052   0.68541   0.00000  Uiso   1.00
H747   H     0.27848   0.28999   0.81372   0.00000  Uiso   1.00
H748   H     0.05603   0.04316   0.68573   0.00000  Uiso   1.00
H749   H     0.10539   0.11092   0.78804   0.00000  Uiso   1.00
H750   H     0.22763   0.22270   0.71227   0.00000  Uiso   1.00
N751   N     0.11736   0.16668   0.74999   0.00000  Uiso   1.00
N752   N     0.21597   0.16666   0.75001   0.00000  Uiso   1.00
O753   O     0.03958   0.10655   0.75000   0.00000  Uiso   1.00
O754   O     0.29375   0.22678   0.75000   0.00000  Uiso   1.00
O755   O     0.29372   0.10654   0.75000   0.00000  Uiso   1.00
O756   O     0.03961   0.22679   0.74999   0.00000  Uiso   1.00
O757   O     0.01852   0.16668   0.81491   0.00000  Uiso   1.00
O758   O     0.31481   0.16666   0.68508   0.00000  Uiso   1.00
O759   O     0.27267   0.16667   0.81492   0.00000  Uiso   1.00
O760   O     0.06067   0.16667   0.68508   0.00000  Uiso   1.00
S761   S     0.09859   0.11335   0.59622   0.00000  Uiso   1.00
O762   O     0.12248   0.10518   0.63194   0.00000  Uiso   1.00
O763   O     0.04941   0.09019   0.61014   0.00000  Uiso   1.00
O764   O     0.13258   0.09515   0.54748   0.00000  Uiso   1.00
H765   H     0.11531   0.10220   0.52549   0.00000  Uiso   1.00
S766   S     0.19339   0.19215   0.88983   0.00000  Uiso   1.00
O767   O     0.20604   0.23192   0.86124   0.00000  Uiso   1.00
O768   O     0.18576   0.15780   0.86139   0.00000  Uiso   1.00
O769   O     0.13838   0.19519   0.92827   0.00000  Uiso   1.00
H770   H     0.12956   0.16680   0.94250   0.00000  Uiso   1.00
S771   S     0.19313   0.08668   0.79563   0.00000  Uiso   1.00
O772   O     0.14592   0.06545   0.82479   0.00000  Uiso   1.00
O773   O     0.21510   0.05836   0.75852   0.00000  Uiso   1.00
O774   O     0.22992   0.09274   0.82783   0.00000  Uiso   1.00
H775   H     0.21332   0.07691   0.85658   0.00000  Uiso   1.00
S776   S     0.14184   0.24351   0.69865   0.00000  Uiso   1.00
O777   O     0.10869   0.23518   0.67086   0.00000  Uiso   1.00
O778   O     0.12111   0.27503   0.73257   0.00000  Uiso   1.00
O779   O     0.19504   0.26427   0.66351   0.00000  Uiso   1.00
H780   H     0.18695   0.29099   0.65177   0.00000  Uiso   1.00
C781   C     0.66588   0.08744   0.75002   0.00000  Uiso   1.00
C782   C     0.33436   0.24585   0.74943   0.00000  Uiso   1.00
C783   C     0.53413   0.16253   0.55295   0.00000  Uiso   1.00
C784   C     0.51148   0.24128   0.97780   0.00000  Uiso   1.00
C785   C     0.58057   0.15233   0.52746   0.00000  Uiso   1.00
C786   C     0.46745   0.25539   0.50436   0.00000  Uiso   1.00
C787   C     0.63448   0.01833   0.78553   0.00000  Uiso   1.00
C788   C     0.36650   0.31470   0.71372   0.00000  Uiso   1.00
C789   C     0.63587   0.30881   0.78564   0.00000  Uiso   1.00
C790   C     0.36499   0.02432   0.71358   0.00000  Uiso   1.00
C791   C     0.33540   0.29043   0.74991   0.00000  Uiso   1.00
C792   C     0.66516   0.04274   0.74923   0.00000  Uiso   1.00
C793   C     0.51454   0.13432   0.77112   0.00000  Uiso   1.00
C794   C     0.48580   0.19826   0.72770   0.00000  Uiso   1.00
C795   C     0.46545   0.13554   0.77142   0.00000  Uiso   1.00
C796   C     0.53444   0.19788   0.72875   0.00000  Uiso   1.00
C797   C     0.63825   0.16760   0.83632   0.00000  Uiso   1.00
C798   C     0.36155   0.16874   0.66416   0.00000  Uiso   1.00
C799   C     0.62152   0.16758   0.88635   0.00000  Uiso   1.00
C800   C     0.38033   0.18270   0.61678   0.00000  Uiso   1.00
C801   C     0.64012   0.14656   0.95457   0.00000  Uiso   1.00
C802   C     0.39180   0.24277   0.56527   0.00000  Uiso   1.00
C803   C     0.65337   0.15135   0.90809   0.00000  Uiso   1.00
C804   C     0.36359   0.21949   0.60337   0.00000  Uiso   1.00
C805   C     0.57579   0.18234   0.91301   0.00000  Uiso   1.00
C806   C     0.42444   0.16770   0.59046   0.00000  Uiso   1.00
C807   C     0.56710   0.18365   0.96041   0.00000  Uiso   1.00
C808   C     0.45644   0.19420   0.55566   0.00000  Uiso   1.00
C809   C     0.59633   0.16102   0.98085   0.00000  Uiso   1.00
C810   C     0.43844   0.23093   0.54173   0.00000  Uiso   1.00
C811   C     0.52743   0.20317   0.98934   0.00000  Uiso   1.00
C812   C     0.50514   0.18529   0.53289   0.00000  Uiso   1.00
Cu813  Cu    0.38022   0.16667   0.75000   0.00000  Uiso   1.00
Cu814  Cu    0.61978   0.16666   0.75000   0.00000  Uiso   1.00
H815   H     0.60282   0.13553   0.54368   0.00000  Uiso   1.00
H816   H     0.45480   0.28409   0.99417   0.00000  Uiso   1.00
H817   H     0.66330   0.23150   0.62391   0.00000  Uiso   1.00
H818   H     0.35451   0.13974   0.88895   0.00000  Uiso   1.00
H819   H     0.66394   0.13094   0.96997   0.00000  Uiso   1.00
H820   H     0.37812   0.27112   0.55545   0.00000  Uiso   1.00
H821   H     0.52221   0.15452   0.58856   0.00000  Uiso   1.00
H822   H     0.53196   0.25915   0.94742   0.00000  Uiso   1.00
H823   H     0.61054   0.03212   0.81428   0.00000  Uiso   1.00
H824   H     0.39108   0.30052   0.68541   0.00000  Uiso   1.00
H825   H     0.61182   0.28999   0.81372   0.00000  Uiso   1.00
H826   H     0.38936   0.04316   0.68573   0.00000  Uiso   1.00
H827   H     0.43872   0.11092   0.78804   0.00000  Uiso   1.00
H828   H     0.56097   0.22270   0.71227   0.00000  Uiso   1.00
N829   N     0.45069   0.16668   0.74999   0.00000  Uiso   1.00
N830   N     0.54931   0.16666   0.75001   0.00000  Uiso   1.00
O831   O     0.37291   0.10655   0.75000   0.00000  Uiso   1.00
O832   O     0.62709   0.22678   0.75000   0.00000  Uiso   1.00
O833   O     0.62706   0.10654   0.75000   0.00000  Uiso   1.00
O834   O     0.37294   0.22679   0.74999   0.00000  Uiso   1.00
O835   O     0.35186   0.16668   0.81491   0.00000  Uiso   1.00
O836   O     0.64814   0.16666   0.68508   0.00000  Uiso   1.00
O837   O     0.60600   0.16667   0.81492   0.00000  Uiso   1.00
O838   O     0.39400   0.16667   0.68508   0.00000  Uiso   1.00
S839   S     0.43192   0.11335   0.59622   0.00000  Uiso   1.00
O840   O     0.45581   0.10518   0.63194   0.00000  Uiso   1.00
O841   O     0.38274   0.09019   0.61014   0.00000  Uiso   1.00
O842   O     0.46591   0.09515   0.54748   0.00000  Uiso   1.00
H843   H     0.44865   0.10220   0.52549   0.00000  Uiso   1.00
S844   S     0.52672   0.19215   0.88983   0.00000  Uiso   1.00
O845   O     0.53938   0.23192   0.86124   0.00000  Uiso   1.00
O846   O     0.51909   0.15780   0.86139   0.00000  Uiso   1.00
O847   O     0.47171   0.19519   0.92827   0.00000  Uiso   1.00
H848   H     0.46290   0.16680   0.94250   0.00000  Uiso   1.00
S849   S     0.52647   0.08668   0.79563   0.00000  Uiso   1.00
O850   O     0.47925   0.06545   0.82479   0.00000  Uiso   1.00
O851   O     0.54843   0.05836   0.75852   0.00000  Uiso   1.00
O852   O     0.56325   0.09274   0.82783   0.00000  Uiso   1.00
H853   H     0.54665   0.07691   0.85658   0.00000  Uiso   1.00
S854   S     0.47517   0.24351   0.69865   0.00000  Uiso   1.00
O855   O     0.44202   0.23518   0.67086   0.00000  Uiso   1.00
O856   O     0.45445   0.27503   0.73257   0.00000  Uiso   1.00
O857   O     0.52838   0.26427   0.66351   0.00000  Uiso   1.00
H858   H     0.52028   0.29099   0.65177   0.00000  Uiso   1.00
C859   C     0.99922   0.08744   0.75002   0.00000  Uiso   1.00
C860   C     0.66769   0.24585   0.74943   0.00000  Uiso   1.00
C861   C     0.86747   0.16253   0.55295   0.00000  Uiso   1.00
C862   C     0.84481   0.24128   0.97780   0.00000  Uiso   1.00
C863   C     0.91391   0.15233   0.52746   0.00000  Uiso   1.00
C864   C     0.80079   0.25539   0.50436   0.00000  Uiso   1.00
C865   C     0.96781   0.01833   0.78553   0.00000  Uiso   1.00
C866   C     0.69983   0.31470   0.71372   0.00000  Uiso   1.00
C867   C     0.96920   0.30881   0.78564   0.00000  Uiso   1.00
C868   C     0.69832   0.02432   0.71358   0.00000  Uiso   1.00
C869   C     0.66873   0.29043   0.74991   0.00000  Uiso   1.00
C870   C     0.99849   0.04274   0.74923   0.00000  Uiso   1.00
C871   C     0.84787   0.13432   0.77112   0.00000  Uiso   1.00
C872   C     0.81913   0.19826   0.72770   0.00000  Uiso   1.00
C873   C     0.79879   0.13554   0.77142   0.00000  Uiso   1.00
C874   C     0.86778   0.19788   0.72875   0.00000  Uiso   1.00
C875   C     0.97158   0.16760   0.83632   0.00000  Uiso   1.00
C876   C     0.69488   0.16874   0.66416   0.00000  Uiso   1.00
C877   C     0.95486   0.16758   0.88635   0.00000  Uiso   1.00
C878   C     0.71366   0.18270   0.61678   0.00000  Uiso   1.00
C879   C     0.97345   0.14656   0.95457   0.00000  Uiso   1.00
C880   C     0.72513   0.24277   0.56527   0.00000  Uiso   1.00
C881   C     0.98670   0.15135   0.90809   0.00000  Uiso   1.00
C882   C     0.69692   0.21949   0.60337   0.00000  Uiso   1.00
C883   C     0.90913   0.18234   0.91301   0.00000  Uiso   1.00
C884   C     0.75777   0.16770   0.59046   0.00000  Uiso   1.00
C885   C     0.90043   0.18365   0.96041   0.00000  Uiso   1.00
C886   C     0.78978   0.19420   0.55566   0.00000  Uiso   1.00
C887   C     0.92966   0.16102   0.98085   0.00000  Uiso   1.00
C888   C     0.77177   0.23093   0.54173   0.00000  Uiso   1.00
C889   C     0.86076   0.20317   0.98934   0.00000  Uiso   1.00
C890   C     0.83848   0.18529   0.53289   0.00000  Uiso   1.00
Cu891  Cu    0.71355   0.16667   0.75000   0.00000  Uiso   1.00
Cu892  Cu    0.95311   0.16666   0.75000   0.00000  Uiso   1.00
H893   H     0.93615   0.13553   0.54368   0.00000  Uiso   1.00
H894   H     0.78813   0.28409   0.99417   0.00000  Uiso   1.00
H895   H     0.99664   0.23150   0.62391   0.00000  Uiso   1.00
H896   H     0.68784   0.13974   0.88895   0.00000  Uiso   1.00
H897   H     0.99727   0.13094   0.96997   0.00000  Uiso   1.00
H898   H     0.71145   0.27112   0.55545   0.00000  Uiso   1.00
H899   H     0.85554   0.15452   0.58856   0.00000  Uiso   1.00
H900   H     0.86530   0.25915   0.94742   0.00000  Uiso   1.00
H901   H     0.94387   0.03212   0.81428   0.00000  Uiso   1.00
H902   H     0.72441   0.30052   0.68541   0.00000  Uiso   1.00
H903   H     0.94515   0.28999   0.81372   0.00000  Uiso   1.00
H904   H     0.72269   0.04316   0.68573   0.00000  Uiso   1.00
H905   H     0.77206   0.11092   0.78804   0.00000  Uiso   1.00
H906   H     0.89430   0.22270   0.71227   0.00000  Uiso   1.00
N907   N     0.78403   0.16668   0.74999   0.00000  Uiso   1.00
N908   N     0.88264   0.16666   0.75001   0.00000  Uiso   1.00
O909   O     0.70625   0.10655   0.75000   0.00000  Uiso   1.00
O910   O     0.96042   0.22678   0.75000   0.00000  Uiso   1.00
O911   O     0.96039   0.10654   0.75000   0.00000  Uiso   1.00
O912   O     0.70628   0.22679   0.74999   0.00000  Uiso   1.00
O913   O     0.68519   0.16668   0.81491   0.00000  Uiso   1.00
O914   O     0.98148   0.16666   0.68508   0.00000  Uiso   1.00
O915   O     0.93933   0.16667   0.81492   0.00000  Uiso   1.00
O916   O     0.72733   0.16667   0.68508   0.00000  Uiso   1.00
S917   S     0.76526   0.11335   0.59622   0.00000  Uiso   1.00
O918   O     0.78914   0.10518   0.63194   0.00000  Uiso   1.00
O919   O     0.71608   0.09019   0.61014   0.00000  Uiso   1.00
O920   O     0.79925   0.09515   0.54748   0.00000  Uiso   1.00
H921   H     0.78198   0.10220   0.52549   0.00000  Uiso   1.00
S922   S     0.86006   0.19215   0.88983   0.00000  Uiso   1.00
O923   O     0.87271   0.23192   0.86124   0.00000  Uiso   1.00
O924   O     0.85242   0.15780   0.86139   0.00000  Uiso   1.00
O925   O     0.80505   0.19519   0.92827   0.00000  Uiso   1.00
H926   H     0.79623   0.16680   0.94250   0.00000  Uiso   1.00
S927   S     0.85980   0.08668   0.79563   0.00000  Uiso   1.00
O928   O     0.81258   0.06545   0.82479   0.00000  Uiso   1.00
O929   O     0.88176   0.05836   0.75852   0.00000  Uiso   1.00
O930   O     0.89658   0.09274   0.82783   0.00000  Uiso   1.00
H931   H     0.87999   0.07691   0.85658   0.00000  Uiso   1.00
S932   S     0.80851   0.24351   0.69865   0.00000  Uiso   1.00
O933   O     0.77536   0.23518   0.67086   0.00000  Uiso   1.00
O934   O     0.78778   0.27503   0.73257   0.00000  Uiso   1.00
O935   O     0.86171   0.26427   0.66351   0.00000  Uiso   1.00
H936   H     0.85362   0.29099   0.65177   0.00000  Uiso   1.00
C937   C     0.33255   0.42077   0.75002   0.00000  Uiso   1.00
C938   C     0.00102   0.57918   0.74943   0.00000  Uiso   1.00
C939   C     0.20080   0.49586   0.55295   0.00000  Uiso   1.00
C940   C     0.17814   0.57461   0.97780   0.00000  Uiso   1.00
C941   C     0.24724   0.48567   0.52746   0.00000  Uiso   1.00
C942   C     0.13412   0.58872   0.50436   0.00000  Uiso   1.00
C943   C     0.30114   0.35166   0.78553   0.00000  Uiso   1.00
C944   C     0.03316   0.64803   0.71372   0.00000  Uiso   1.00
C945   C     0.30253   0.64214   0.78564   0.00000  Uiso   1.00
C946   C     0.03165   0.35766   0.71358   0.00000  Uiso   1.00
C947   C     0.00206   0.62376   0.74991   0.00000  Uiso   1.00
C948   C     0.33182   0.37607   0.74923   0.00000  Uiso   1.00
C949   C     0.18121   0.46765   0.77112   0.00000  Uiso   1.00
C950   C     0.15247   0.53160   0.72770   0.00000  Uiso   1.00
C951   C     0.13212   0.46888   0.77142   0.00000  Uiso   1.00
C952   C     0.20111   0.53121   0.72875   0.00000  Uiso   1.00
C953   C     0.30491   0.50093   0.83632   0.00000  Uiso   1.00
C954   C     0.02822   0.50208   0.66416   0.00000  Uiso   1.00
C955   C     0.28819   0.50092   0.88635   0.00000  Uiso   1.00
C956   C     0.04700   0.51603   0.61678   0.00000  Uiso   1.00
C957   C     0.30679   0.47989   0.95457   0.00000  Uiso   1.00
C958   C     0.05847   0.57611   0.56527   0.00000  Uiso   1.00
C959   C     0.32003   0.48469   0.90809   0.00000  Uiso   1.00
C960   C     0.03026   0.55282   0.60337   0.00000  Uiso   1.00
C961   C     0.24246   0.51567   0.91301   0.00000  Uiso   1.00
C962   C     0.09111   0.50103   0.59046   0.00000  Uiso   1.00
C963   C     0.23376   0.51699   0.96041   0.00000  Uiso   1.00
C964   C     0.12311   0.52753   0.55566   0.00000  Uiso   1.00
C965   C     0.26300   0.49435   0.98085   0.00000  Uiso   1.00
C966   C     0.10510   0.56426   0.54173   0.00000  Uiso   1.00
C967   C     0.19409   0.53651   0.98934   0.00000  Uiso   1.00
C968   C     0.17181   0.51862   0.53289   0.00000  Uiso   1.00
Cu969  Cu    0.04689   0.50001   0.75000   0.00000  Uiso   1.00
Cu970  Cu    0.28645   0.49999   0.75000   0.00000  Uiso   1.00
H971   H     0.26948   0.46887   0.54368   0.00000  Uiso   1.00
H972   H     0.12147   0.61743   0.99417   0.00000  Uiso   1.00
H973   H     0.32997   0.56483   0.62391   0.00000  Uiso   1.00
H974   H     0.02118   0.47307   0.88895   0.00000  Uiso   1.00
H975   H     0.33061   0.46428   0.96997   0.00000  Uiso   1.00
H976   H     0.04479   0.60445   0.55545   0.00000  Uiso   1.00
H977   H     0.18887   0.48785   0.58856   0.00000  Uiso   1.00
H978   H     0.19863   0.59248   0.94742   0.00000  Uiso   1.00
H979   H     0.27721   0.36545   0.81428   0.00000  Uiso   1.00
H980   H     0.05774   0.63385   0.68541   0.00000  Uiso   1.00
H981   H     0.27848   0.62332   0.81372   0.00000  Uiso   1.00
H982   H     0.05603   0.37650   0.68573   0.00000  Uiso   1.00
H983   H     0.10539   0.44426   0.78804   0.00000  Uiso   1.00
H984   H     0.22763   0.55603   0.71227   0.00000  Uiso   1.00
N985   N     0.11736   0.50001   0.74999   0.00000  Uiso   1.00
N986   N     0.21597   0.49999   0.75001   0.00000  Uiso   1.00
O987   O     0.03958   0.43989   0.75000   0.00000  Uiso   1.00
O988   O     0.29375   0.56011   0.75000   0.00000  Uiso   1.00
O989   O     0.29372   0.43988   0.75000   0.00000  Uiso   1.00
O990   O     0.03961   0.56012   0.74999   0.00000  Uiso   1.00
O991   O     0.01852   0.50001   0.81491   0.00000  Uiso   1.00
O992   O     0.31481   0.49999   0.68508   0.00000  Uiso   1.00
O993   O     0.27267   0.50000   0.81492   0.00000  Uiso   1.00
O994   O     0.06067   0.50000   0.68508   0.00000  Uiso   1.00
S995   S     0.09859   0.44668   0.59622   0.00000  Uiso   1.00
O996   O     0.12248   0.43852   0.63194   0.00000  Uiso   1.00
O997   O     0.04941   0.42352   0.61014   0.00000  Uiso   1.00
O998   O     0.13258   0.42848   0.54748   0.00000  Uiso   1.00
H999   H     0.11531   0.43554   0.52549   0.00000  Uiso   1.00
S1000  S     0.19339   0.52549   0.88983   0.00000  Uiso   1.00
O1001  O     0.20604   0.56526   0.86124   0.00000  Uiso   1.00
O1002  O     0.18576   0.49114   0.86139   0.00000  Uiso   1.00
O1003  O     0.13838   0.52852   0.92827   0.00000  Uiso   1.00
H1004  H     0.12956   0.50014   0.94250   0.00000  Uiso   1.00
S1005  S     0.19313   0.42001   0.79563   0.00000  Uiso   1.00
O1006  O     0.14592   0.39879   0.82479   0.00000  Uiso   1.00
O1007  O     0.21510   0.39169   0.75852   0.00000  Uiso   1.00
O1008  O     0.22992   0.42608   0.82783   0.00000  Uiso   1.00
H1009  H     0.21332   0.41024   0.85658   0.00000  Uiso   1.00
S1010  S     0.14184   0.57684   0.69865   0.00000  Uiso   1.00
O1011  O     0.10869   0.56851   0.67086   0.00000  Uiso   1.00
O1012  O     0.12111   0.60837   0.73257   0.00000  Uiso   1.00
O1013  O     0.19504   0.59761   0.66351   0.00000  Uiso   1.00
H1014  H     0.18695   0.62432   0.65177   0.00000  Uiso   1.00
C1015  C     0.66588   0.42077   0.75002   0.00000  Uiso   1.00
C1016  C     0.33436   0.57918   0.74943   0.00000  Uiso   1.00
C1017  C     0.53413   0.49586   0.55295   0.00000  Uiso   1.00
C1018  C     0.51148   0.57461   0.97780   0.00000  Uiso   1.00
C1019  C     0.58057   0.48567   0.52746   0.00000  Uiso   1.00
C1020  C     0.46745   0.58872   0.50436   0.00000  Uiso   1.00
C1021  C     0.63448   0.35166   0.78553   0.00000  Uiso   1.00
C1022  C     0.36650   0.64803   0.71372   0.00000  Uiso   1.00
C1023  C     0.63587   0.64214   0.78564   0.00000  Uiso   1.00
C1024  C     0.36499   0.35766   0.71358   0.00000  Uiso   1.00
C1025  C     0.33540   0.62376   0.74991   0.00000  Uiso   1.00
C1026  C     0.66516   0.37607   0.74923   0.00000  Uiso   1.00
C1027  C     0.51454   0.46765   0.77112   0.00000  Uiso   1.00
C1028  C     0.48580   0.53160   0.72770   0.00000  Uiso   1.00
C1029  C     0.46545   0.46888   0.77142   0.00000  Uiso   1.00
C1030  C     0.53444   0.53121   0.72875   0.00000  Uiso   1.00
C1031  C     0.63825   0.50093   0.83632   0.00000  Uiso   1.00
C1032  C     0.36155   0.50208   0.66416   0.00000  Uiso   1.00
C1033  C     0.62152   0.50092   0.88635   0.00000  Uiso   1.00
C1034  C     0.38033   0.51603   0.61678   0.00000  Uiso   1.00
C1035  C     0.64012   0.47989   0.95457   0.00000  Uiso   1.00
C1036  C     0.39180   0.57611   0.56527   0.00000  Uiso   1.00
C1037  C     0.65337   0.48469   0.90809   0.00000  Uiso   1.00
C1038  C     0.36359   0.55282   0.60337   0.00000  Uiso   1.00
C1039  C     0.57579   0.51567   0.91301   0.00000  Uiso   1.00
C1040  C     0.42444   0.50103   0.59046   0.00000  Uiso   1.00
C1041  C     0.56710   0.51699   0.96041   0.00000  Uiso   1.00
C1042  C     0.45644   0.52753   0.55566   0.00000  Uiso   1.00
C1043  C     0.59633   0.49435   0.98085   0.00000  Uiso   1.00
C1044  C     0.43844   0.56426   0.54173   0.00000  Uiso   1.00
C1045  C     0.52743   0.53651   0.98934   0.00000  Uiso   1.00
C1046  C     0.50514   0.51862   0.53289   0.00000  Uiso   1.00
Cu1047 Cu    0.38022   0.50001   0.75000   0.00000  Uiso   1.00
Cu1048 Cu    0.61978   0.49999   0.75000   0.00000  Uiso   1.00
H1049  H     0.60282   0.46887   0.54368   0.00000  Uiso   1.00
H1050  H     0.45480   0.61743   0.99417   0.00000  Uiso   1.00
H1051  H     0.66330   0.56483   0.62391   0.00000  Uiso   1.00
H1052  H     0.35451   0.47307   0.88895   0.00000  Uiso   1.00
H1053  H     0.66394   0.46428   0.96997   0.00000  Uiso   1.00
H1054  H     0.37812   0.60445   0.55545   0.00000  Uiso   1.00
H1055  H     0.52221   0.48785   0.58856   0.00000  Uiso   1.00
H1056  H     0.53196   0.59248   0.94742   0.00000  Uiso   1.00
H1057  H     0.61054   0.36545   0.81428   0.00000  Uiso   1.00
H1058  H     0.39108   0.63385   0.68541   0.00000  Uiso   1.00
H1059  H     0.61182   0.62332   0.81372   0.00000  Uiso   1.00
H1060  H     0.38936   0.37650   0.68573   0.00000  Uiso   1.00
H1061  H     0.43872   0.44426   0.78804   0.00000  Uiso   1.00
H1062  H     0.56097   0.55603   0.71227   0.00000  Uiso   1.00
N1063  N     0.45069   0.50001   0.74999   0.00000  Uiso   1.00
N1064  N     0.54931   0.49999   0.75001   0.00000  Uiso   1.00
O1065  O     0.37291   0.43989   0.75000   0.00000  Uiso   1.00
O1066  O     0.62709   0.56011   0.75000   0.00000  Uiso   1.00
O1067  O     0.62706   0.43988   0.75000   0.00000  Uiso   1.00
O1068  O     0.37294   0.56012   0.74999   0.00000  Uiso   1.00
O1069  O     0.35186   0.50001   0.81491   0.00000  Uiso   1.00
O1070  O     0.64814   0.49999   0.68508   0.00000  Uiso   1.00
O1071  O     0.60600   0.50000   0.81492   0.00000  Uiso   1.00
O1072  O     0.39400   0.50000   0.68508   0.00000  Uiso   1.00
S1073  S     0.43192   0.44668   0.59622   0.00000  Uiso   1.00
O1074  O     0.45581   0.43852   0.63194   0.00000  Uiso   1.00
O1075  O     0.38274   0.42352   0.61014   0.00000  Uiso   1.00
O1076  O     0.46591   0.42848   0.54748   0.00000  Uiso   1.00
H1077  H     0.44865   0.43554   0.52549   0.00000  Uiso   1.00
S1078  S     0.52672   0.52549   0.88983   0.00000  Uiso   1.00
O1079  O     0.53938   0.56526   0.86124   0.00000  Uiso   1.00
O1080  O     0.51909   0.49114   0.86139   0.00000  Uiso   1.00
O1081  O     0.47171   0.52852   0.92827   0.00000  Uiso   1.00
H1082  H     0.46290   0.50014   0.94250   0.00000  Uiso   1.00
S1083  S     0.52647   0.42001   0.79563   0.00000  Uiso   1.00
O1084  O     0.47925   0.39879   0.82479   0.00000  Uiso   1.00
O1085  O     0.54843   0.39169   0.75852   0.00000  Uiso   1.00
O1086  O     0.56325   0.42608   0.82783   0.00000  Uiso   1.00
H1087  H     0.54665   0.41024   0.85658   0.00000  Uiso   1.00
S1088  S     0.47517   0.57684   0.69865   0.00000  Uiso   1.00
O1089  O     0.44202   0.56851   0.67086   0.00000  Uiso   1.00
O1090  O     0.45445   0.60837   0.73257   0.00000  Uiso   1.00
O1091  O     0.52838   0.59761   0.66351   0.00000  Uiso   1.00
H1092  H     0.52028   0.62432   0.65177   0.00000  Uiso   1.00
C1093  C     0.99922   0.42077   0.75002   0.00000  Uiso   1.00
C1094  C     0.66769   0.57918   0.74943   0.00000  Uiso   1.00
C1095  C     0.86747   0.49586   0.55295   0.00000  Uiso   1.00
C1096  C     0.84481   0.57461   0.97780   0.00000  Uiso   1.00
C1097  C     0.91391   0.48567   0.52746   0.00000  Uiso   1.00
C1098  C     0.80079   0.58872   0.50436   0.00000  Uiso   1.00
C1099  C     0.96781   0.35166   0.78553   0.00000  Uiso   1.00
C1100  C     0.69983   0.64803   0.71372   0.00000  Uiso   1.00
C1101  C     0.96920   0.64214   0.78564   0.00000  Uiso   1.00
C1102  C     0.69832   0.35766   0.71358   0.00000  Uiso   1.00
C1103  C     0.66873   0.62376   0.74991   0.00000  Uiso   1.00
C1104  C     0.99849   0.37607   0.74923   0.00000  Uiso   1.00
C1105  C     0.84787   0.46765   0.77112   0.00000  Uiso   1.00
C1106  C     0.81913   0.53160   0.72770   0.00000  Uiso   1.00
C1107  C     0.79879   0.46888   0.77142   0.00000  Uiso   1.00
C1108  C     0.86778   0.53121   0.72875   0.00000  Uiso   1.00
C1109  C     0.97158   0.50093   0.83632   0.00000  Uiso   1.00
C1110  C     0.69488   0.50208   0.66416   0.00000  Uiso   1.00
C1111  C     0.95486   0.50092   0.88635   0.00000  Uiso   1.00
C1112  C     0.71366   0.51603   0.61678   0.00000  Uiso   1.00
C1113  C     0.97345   0.47989   0.95457   0.00000  Uiso   1.00
C1114  C     0.72513   0.57611   0.56527   0.00000  Uiso   1.00
C1115  C     0.98670   0.48469   0.90809   0.00000  Uiso   1.00
C1116  C     0.69692   0.55282   0.60337   0.00000  Uiso   1.00
C1117  C     0.90913   0.51567   0.91301   0.00000  Uiso   1.00
C1118  C     0.75777   0.50103   0.59046   0.00000  Uiso   1.00
C1119  C     0.90043   0.51699   0.96041   0.00000  Uiso   1.00
C1120  C     0.78978   0.52753   0.55566   0.00000  Uiso   1.00
C1121  C     0.92966   0.49435   0.98085   0.00000  Uiso   1.00
C1122  C     0.77177   0.56426   0.54173   0.00000  Uiso   1.00
C1123  C     0.86076   0.53651   0.98934   0.00000  Uiso   1.00
C1124  C     0.83848   0.51862   0.53289   0.00000  Uiso   1.00
Cu1125 Cu    0.71355   0.50001   0.75000   0.00000  Uiso   1.00
Cu1126 Cu    0.95311   0.49999   0.75000   0.00000  Uiso   1.00
H1127  H     0.93615   0.46887   0.54368   0.00000  Uiso   1.00
H1128  H     0.78813   0.61743   0.99417   0.00000  Uiso   1.00
H1129  H     0.99664   0.56483   0.62391   0.00000  Uiso   1.00
H1130  H     0.68784   0.47307   0.88895   0.00000  Uiso   1.00
H1131  H     0.99727   0.46428   0.96997   0.00000  Uiso   1.00
H1132  H     0.71145   0.60445   0.55545   0.00000  Uiso   1.00
H1133  H     0.85554   0.48785   0.58856   0.00000  Uiso   1.00
H1134  H     0.86530   0.59248   0.94742   0.00000  Uiso   1.00
H1135  H     0.94387   0.36545   0.81428   0.00000  Uiso   1.00
H1136  H     0.72441   0.63385   0.68541   0.00000  Uiso   1.00
H1137  H     0.94515   0.62332   0.81372   0.00000  Uiso   1.00
H1138  H     0.72269   0.37650   0.68573   0.00000  Uiso   1.00
H1139  H     0.77206   0.44426   0.78804   0.00000  Uiso   1.00
H1140  H     0.89430   0.55603   0.71227   0.00000  Uiso   1.00
N1141  N     0.78403   0.50001   0.74999   0.00000  Uiso   1.00
N1142  N     0.88264   0.49999   0.75001   0.00000  Uiso   1.00
O1143  O     0.70625   0.43989   0.75000   0.00000  Uiso   1.00
O1144  O     0.96042   0.56011   0.75000   0.00000  Uiso   1.00
O1145  O     0.96039   0.43988   0.75000   0.00000  Uiso   1.00
O1146  O     0.70628   0.56012   0.74999   0.00000  Uiso   1.00
O1147  O     0.68519   0.50001   0.81491   0.00000  Uiso   1.00
O1148  O     0.98148   0.49999   0.68508   0.00000  Uiso   1.00
O1149  O     0.93933   0.50000   0.81492   0.00000  Uiso   1.00
O1150  O     0.72733   0.50000   0.68508   0.00000  Uiso   1.00
S1151  S     0.76526   0.44668   0.59622   0.00000  Uiso   1.00
O1152  O     0.78914   0.43852   0.63194   0.00000  Uiso   1.00
O1153  O     0.71608   0.42352   0.61014   0.00000  Uiso   1.00
O1154  O     0.79925   0.42848   0.54748   0.00000  Uiso   1.00
H1155  H     0.78198   0.43554   0.52549   0.00000  Uiso   1.00
S1156  S     0.86006   0.52549   0.88983   0.00000  Uiso   1.00
O1157  O     0.87271   0.56526   0.86124   0.00000  Uiso   1.00
O1158  O     0.85242   0.49114   0.86139   0.00000  Uiso   1.00
O1159  O     0.80505   0.52852   0.92827   0.00000  Uiso   1.00
H1160  H     0.79623   0.50014   0.94250   0.00000  Uiso   1.00
S1161  S     0.85980   0.42001   0.79563   0.00000  Uiso   1.00
O1162  O     0.81258   0.39879   0.82479   0.00000  Uiso   1.00
O1163  O     0.88176   0.39169   0.75852   0.00000  Uiso   1.00
O1164  O     0.89658   0.42608   0.82783   0.00000  Uiso   1.00
H1165  H     0.87999   0.41024   0.85658   0.00000  Uiso   1.00
S1166  S     0.80851   0.57684   0.69865   0.00000  Uiso   1.00
O1167  O     0.77536   0.56851   0.67086   0.00000  Uiso   1.00
O1168  O     0.78778   0.60837   0.73257   0.00000  Uiso   1.00
O1169  O     0.86171   0.59761   0.66351   0.00000  Uiso   1.00
H1170  H     0.85362   0.62432   0.65177   0.00000  Uiso   1.00
C1171  C     0.33255   0.75410   0.75002   0.00000  Uiso   1.00
C1172  C     0.00102   0.91252   0.74943   0.00000  Uiso   1.00
C1173  C     0.20080   0.82920   0.55295   0.00000  Uiso   1.00
C1174  C     0.17814   0.90794   0.97780   0.00000  Uiso   1.00
C1175  C     0.24724   0.81900   0.52746   0.00000  Uiso   1.00
C1176  C     0.13412   0.92206   0.50436   0.00000  Uiso   1.00
C1177  C     0.30114   0.68500   0.78553   0.00000  Uiso   1.00
C1178  C     0.03316   0.98136   0.71372   0.00000  Uiso   1.00
C1179  C     0.30253   0.97547   0.78564   0.00000  Uiso   1.00
C1180  C     0.03165   0.69099   0.71358   0.00000  Uiso   1.00
C1181  C     0.00206   0.95710   0.74991   0.00000  Uiso   1.00
C1182  C     0.33182   0.70940   0.74923   0.00000  Uiso   1.00
C1183  C     0.18121   0.80099   0.77112   0.00000  Uiso   1.00
C1184  C     0.15247   0.86493   0.72770   0.00000  Uiso   1.00
C1185  C     0.13212   0.80221   0.77142   0.00000  Uiso   1.00
C1186  C     0.20111   0.86455   0.72875   0.00000  Uiso   1.00
C1187  C     0.30491   0.83427   0.83632   0.00000  Uiso   1.00
C1188  C     0.02822   0.83541   0.66416   0.00000  Uiso   1.00
C1189  C     0.28819   0.83425   0.88635   0.00000  Uiso   1.00
C1190  C     0.04700   0.84937   0.61678   0.00000  Uiso   1.00
C1191  C     0.30679   0.81323   0.95457   0.00000  Uiso   1.00
C1192  C     0.05847   0.90944   0.56527   0.00000  Uiso   1.00
C1193  C     0.32003   0.81802   0.90809   0.00000  Uiso   1.00
C1194  C     0.03026   0.88615   0.60337   0.00000  Uiso   1.00
C1195  C     0.24246   0.84901   0.91301   0.00000  Uiso   1.00
C1196  C     0.09111   0.83437   0.59046   0.00000  Uiso   1.00
C1197  C     0.23376   0.85032   0.96041   0.00000  Uiso   1.00
C1198  C     0.12311   0.86087   0.55566   0.00000  Uiso   1.00
C1199  C     0.26300   0.82768   0.98085   0.00000  Uiso   1.00
C1200  C     0.10510   0.89760   0.54173   0.00000  Uiso   1.00
C1201  C     0.19409   0.86984   0.98934   0.00000  Uiso   1.00
C1202  C     0.17181   0.85195   0.53289   0.00000  Uiso   1.00
Cu1203 Cu    0.04689   0.83334   0.75000   0.00000  Uiso   1.00
Cu1204 Cu    0.28645   0.83333   0.75000   0.00000  Uiso   1.00
H1205  H     0.26948   0.80220   0.54368   0.00000  Uiso   1.00
H1206  H     0.12147   0.95076   0.99417   0.00000  Uiso   1.00
H1207  H     0.32997   0.89817   0.62391   0.00000  Uiso   1.00
H1208  H     0.02118   0.80640   0.88895   0.00000  Uiso   1.00
H1209  H     0.33061   0.79761   0.96997   0.00000  Uiso   1.00
H1210  H     0.04479   0.93779   0.55545   0.00000  Uiso   1.00
H1211  H     0.18887   0.82118   0.58856   0.00000  Uiso   1.00
H1212  H     0.19863   0.92582   0.94742   0.00000  Uiso   1.00
H1213  H     0.27721   0.69878   0.81428   0.00000  Uiso   1.00
H1214  H     0.05774   0.96718   0.68541   0.00000  Uiso   1.00
H1215  H     0.27848   0.95665   0.81372   0.00000  Uiso   1.00
H1216  H     0.05603   0.70983   0.68573   0.00000  Uiso   1.00
H1217  H     0.10539   0.77759   0.78804   0.00000  Uiso   1.00
H1218  H     0.22763   0.88937   0.71227   0.00000  Uiso   1.00
N1219  N     0.11736   0.83334   0.74999   0.00000  Uiso   1.00
N1220  N     0.21597   0.83332   0.75001   0.00000  Uiso   1.00
O1221  O     0.03958   0.77322   0.75000   0.00000  Uiso   1.00
O1222  O     0.29375   0.89345   0.75000   0.00000  Uiso   1.00
O1223  O     0.29372   0.77321   0.75000   0.00000  Uiso   1.00
O1224  O     0.03961   0.89346   0.74999   0.00000  Uiso   1.00
O1225  O     0.01852   0.83334   0.81491   0.00000  Uiso   1.00
O1226  O     0.31481   0.83332   0.68508   0.00000  Uiso   1.00
O1227  O     0.27267   0.83333   0.81492   0.00000  Uiso   1.00
O1228  O     0.06067   0.83333   0.68508   0.00000  Uiso   1.00
S1229  S     0.09859   0.78002   0.59622   0.00000  Uiso   1.00
O1230  O     0.12248   0.77185   0.63194   0.00000  Uiso   1.00
O1231  O     0.04941   0.75686   0.61014   0.00000  Uiso   1.00
O1232  O     0.13258   0.76182   0.54748   0.00000  Uiso   1.00
H1233  H     0.11531   0.76887   0.52549   0.00000  Uiso   1.00
S1234  S     0.19339   0.85882   0.88983   0.00000  Uiso   1.00
O1235  O     0.20604   0.89859   0.86124   0.00000  Uiso   1.00
O1236  O     0.18576   0.82447   0.86139   0.00000  Uiso   1.00
O1237  O     0.13838   0.86186   0.92827   0.00000  Uiso   1.00
H1238  H     0.12956   0.83347   0.94250   0.00000  Uiso   1.00
S1239  S     0.19313   0.75335   0.79563   0.00000  Uiso   1.00
O1240  O     0.14592   0.73212   0.82479   0.00000  Uiso   1.00
O1241  O     0.21510   0.72503   0.75852   0.00000  Uiso   1.00
O1242  O     0.22992   0.75941   0.82783   0.00000  Uiso   1.00
H1243  H     0.21332   0.74357   0.85658   0.00000  Uiso   1.00
S1244  S     0.14184   0.91017   0.69865   0.00000  Uiso   1.00
O1245  O     0.10869   0.90185   0.67086   0.00000  Uiso   1.00
O1246  O     0.12111   0.94170   0.73257   0.00000  Uiso   1.00
O1247  O     0.19504   0.93094   0.66351   0.00000  Uiso   1.00
H1248  H     0.18695   0.95766   0.65177   0.00000  Uiso   1.00
C1249  C     0.66588   0.75410   0.75002   0.00000  Uiso   1.00
C1250  C     0.33436   0.91252   0.74943   0.00000  Uiso   1.00
C1251  C     0.53413   0.82920   0.55295   0.00000  Uiso   1.00
C1252  C     0.51148   0.90794   0.97780   0.00000  Uiso   1.00
C1253  C     0.58057   0.81900   0.52746   0.00000  Uiso   1.00
C1254  C     0.46745   0.92206   0.50436   0.00000  Uiso   1.00
C1255  C     0.63448   0.68500   0.78553   0.00000  Uiso   1.00
C1256  C     0.36650   0.98136   0.71372   0.00000  Uiso   1.00
C1257  C     0.63587   0.97547   0.78564   0.00000  Uiso   1.00
C1258  C     0.36499   0.69099   0.71358   0.00000  Uiso   1.00
C1259  C     0.33540   0.95710   0.74991   0.00000  Uiso   1.00
C1260  C     0.66516   0.70940   0.74923   0.00000  Uiso   1.00
C1261  C     0.51454   0.80099   0.77112   0.00000  Uiso   1.00
C1262  C     0.48580   0.86493   0.72770   0.00000  Uiso   1.00
C1263  C     0.46545   0.80221   0.77142   0.00000  Uiso   1.00
C1264  C     0.53444   0.86455   0.72875   0.00000  Uiso   1.00
C1265  C     0.63825   0.83427   0.83632   0.00000  Uiso   1.00
C1266  C     0.36155   0.83541   0.66416   0.00000  Uiso   1.00
C1267  C     0.62152   0.83425   0.88635   0.00000  Uiso   1.00
C1268  C     0.38033   0.84937   0.61678   0.00000  Uiso   1.00
C1269  C     0.64012   0.81323   0.95457   0.00000  Uiso   1.00
C1270  C     0.39180   0.90944   0.56527   0.00000  Uiso   1.00
C1271  C     0.65337   0.81802   0.90809   0.00000  Uiso   1.00
C1272  C     0.36359   0.88615   0.60337   0.00000  Uiso   1.00
C1273  C     0.57579   0.84901   0.91301   0.00000  Uiso   1.00
C1274  C     0.42444   0.83437   0.59046   0.00000  Uiso   1.00
C1275  C     0.56710   0.85032   0.96041   0.00000  Uiso   1.00
C1276  C     0.45644   0.86087   0.55566   0.00000  Uiso   1.00
C1277  C     0.59633   0.82768   0.98085   0.00000  Uiso   1.00
C1278  C     0.43844   0.89760   0.54173   0.00000  Uiso   1.00
C1279  C     0.52743   0.86984   0.98934   0.00000  Uiso   1.00
C1280  C     0.50514   0.85195   0.53289   0.00000  Uiso   1.00
Cu1281 Cu    0.38022   0.83334   0.75000   0.00000  Uiso   1.00
Cu1282 Cu    0.61978   0.83333   0.75000   0.00000  Uiso   1.00
H1283  H     0.60282   0.80220   0.54368   0.00000  Uiso   1.00
H1284  H     0.45480   0.95076   0.99417   0.00000  Uiso   1.00
H1285  H     0.66330   0.89817   0.62391   0.00000  Uiso   1.00
H1286  H     0.35451   0.80640   0.88895   0.00000  Uiso   1.00
H1287  H     0.66394   0.79761   0.96997   0.00000  Uiso   1.00
H1288  H     0.37812   0.93779   0.55545   0.00000  Uiso   1.00
H1289  H     0.52221   0.82118   0.58856   0.00000  Uiso   1.00
H1290  H     0.53196   0.92582   0.94742   0.00000  Uiso   1.00
H1291  H     0.61054   0.69878   0.81428   0.00000  Uiso   1.00
H1292  H     0.39108   0.96718   0.68541   0.00000  Uiso   1.00
H1293  H     0.61182   0.95665   0.81372   0.00000  Uiso   1.00
H1294  H     0.38936   0.70983   0.68573   0.00000  Uiso   1.00
H1295  H     0.43872   0.77759   0.78804   0.00000  Uiso   1.00
H1296  H     0.56097   0.88937   0.71227   0.00000  Uiso   1.00
N1297  N     0.45069   0.83334   0.74999   0.00000  Uiso   1.00
N1298  N     0.54931   0.83332   0.75001   0.00000  Uiso   1.00
O1299  O     0.37291   0.77322   0.75000   0.00000  Uiso   1.00
O1300  O     0.62709   0.89345   0.75000   0.00000  Uiso   1.00
O1301  O     0.62706   0.77321   0.75000   0.00000  Uiso   1.00
O1302  O     0.37294   0.89346   0.74999   0.00000  Uiso   1.00
O1303  O     0.35186   0.83334   0.81491   0.00000  Uiso   1.00
O1304  O     0.64814   0.83332   0.68508   0.00000  Uiso   1.00
O1305  O     0.60600   0.83333   0.81492   0.00000  Uiso   1.00
O1306  O     0.39400   0.83333   0.68508   0.00000  Uiso   1.00
S1307  S     0.43192   0.78002   0.59622   0.00000  Uiso   1.00
O1308  O     0.45581   0.77185   0.63194   0.00000  Uiso   1.00
O1309  O     0.38274   0.75686   0.61014   0.00000  Uiso   1.00
O1310  O     0.46591   0.76182   0.54748   0.00000  Uiso   1.00
H1311  H     0.44865   0.76887   0.52549   0.00000  Uiso   1.00
S1312  S     0.52672   0.85882   0.88983   0.00000  Uiso   1.00
O1313  O     0.53938   0.89859   0.86124   0.00000  Uiso   1.00
O1314  O     0.51909   0.82447   0.86139   0.00000  Uiso   1.00
O1315  O     0.47171   0.86186   0.92827   0.00000  Uiso   1.00
H1316  H     0.46290   0.83347   0.94250   0.00000  Uiso   1.00
S1317  S     0.52647   0.75335   0.79563   0.00000  Uiso   1.00
O1318  O     0.47925   0.73212   0.82479   0.00000  Uiso   1.00
O1319  O     0.54843   0.72503   0.75852   0.00000  Uiso   1.00
O1320  O     0.56325   0.75941   0.82783   0.00000  Uiso   1.00
H1321  H     0.54665   0.74357   0.85658   0.00000  Uiso   1.00
S1322  S     0.47517   0.91017   0.69865   0.00000  Uiso   1.00
O1323  O     0.44202   0.90185   0.67086   0.00000  Uiso   1.00
O1324  O     0.45445   0.94170   0.73257   0.00000  Uiso   1.00
O1325  O     0.52838   0.93094   0.66351   0.00000  Uiso   1.00
H1326  H     0.52028   0.95766   0.65177   0.00000  Uiso   1.00
C1327  C     0.99922   0.75410   0.75002   0.00000  Uiso   1.00
C1328  C     0.66769   0.91252   0.74943   0.00000  Uiso   1.00
C1329  C     0.86747   0.82920   0.55295   0.00000  Uiso   1.00
C1330  C     0.84481   0.90794   0.97780   0.00000  Uiso   1.00
C1331  C     0.91391   0.81900   0.52746   0.00000  Uiso   1.00
C1332  C     0.80079   0.92206   0.50436   0.00000  Uiso   1.00
C1333  C     0.96781   0.68500   0.78553   0.00000  Uiso   1.00
C1334  C     0.69983   0.98136   0.71372   0.00000  Uiso   1.00
C1335  C     0.96920   0.97547   0.78564   0.00000  Uiso   1.00
C1336  C     0.69832   0.69099   0.71358   0.00000  Uiso   1.00
C1337  C     0.66873   0.95710   0.74991   0.00000  Uiso   1.00
C1338  C     0.99849   0.70940   0.74923   0.00000  Uiso   1.00
C1339  C     0.84787   0.80099   0.77112   0.00000  Uiso   1.00
C1340  C     0.81913   0.86493   0.72770   0.00000  Uiso   1.00
C1341  C     0.79879   0.80221   0.77142   0.00000  Uiso   1.00
C1342  C     0.86778   0.86455   0.72875   0.00000  Uiso   1.00
C1343  C     0.97158   0.83427   0.83632   0.00000  Uiso   1.00
C1344  C     0.69488   0.83541   0.66416   0.00000  Uiso   1.00
C1345  C     0.95486   0.83425   0.88635   0.00000  Uiso   1.00
C1346  C     0.71366   0.84937   0.61678   0.00000  Uiso   1.00
C1347  C     0.97345   0.81323   0.95457   0.00000  Uiso   1.00
C1348  C     0.72513   0.90944   0.56527   0.00000  Uiso   1.00
C1349  C     0.98670   0.81802   0.90809   0.00000  Uiso   1.00
C1350  C     0.69692   0.88615   0.60337   0.00000  Uiso   1.00
C1351  C     0.90913   0.84901   0.91301   0.00000  Uiso   1.00
C1352  C     0.75777   0.83437   0.59046   0.00000  Uiso   1.00
C1353  C     0.90043   0.85032   0.96041   0.00000  Uiso   1.00
C1354  C     0.78978   0.86087   0.55566   0.00000  Uiso   1.00
C1355  C     0.92966   0.82768   0.98085   0.00000  Uiso   1.00
C1356  C     0.77177   0.89760   0.54173   0.00000  Uiso   1.00
C1357  C     0.86076   0.86984   0.98934   0.00000  Uiso   1.00
C1358  C     0.83848   0.85195   0.53289   0.00000  Uiso   1.00
Cu1359 Cu    0.71355   0.83334   0.75000   0.00000  Uiso   1.00
Cu1360 Cu    0.95311   0.83333   0.75000   0.00000  Uiso   1.00
H1361  H     0.93615   0.80220   0.54368   0.00000  Uiso   1.00
H1362  H     0.78813   0.95076   0.99417   0.00000  Uiso   1.00
H1363  H     0.99664   0.89817   0.62391   0.00000  Uiso   1.00
H1364  H     0.68784   0.80640   0.88895   0.00000  Uiso   1.00
H1365  H     0.99727   0.79761   0.96997   0.00000  Uiso   1.00
H1366  H     0.71145   0.93779   0.55545   0.00000  Uiso   1.00
H1367  H     0.85554   0.82118   0.58856   0.00000  Uiso   1.00
H1368  H     0.86530   0.92582   0.94742   0.00000  Uiso   1.00
H1369  H     0.94387   0.69878   0.81428   0.00000  Uiso   1.00
H1370  H     0.72441   0.96718   0.68541   0.00000  Uiso   1.00
H1371  H     0.94515   0.95665   0.81372   0.00000  Uiso   1.00
H1372  H     0.72269   0.70983   0.68573   0.00000  Uiso   1.00
H1373  H     0.77206   0.77759   0.78804   0.00000  Uiso   1.00
H1374  H     0.89430   0.88937   0.71227   0.00000  Uiso   1.00
N1375  N     0.78403   0.83334   0.74999   0.00000  Uiso   1.00
N1376  N     0.88264   0.83332   0.75001   0.00000  Uiso   1.00
O1377  O     0.70625   0.77322   0.75000   0.00000  Uiso   1.00
O1378  O     0.96042   0.89345   0.75000   0.00000  Uiso   1.00
O1379  O     0.96039   0.77321   0.75000   0.00000  Uiso   1.00
O1380  O     0.70628   0.89346   0.74999   0.00000  Uiso   1.00
O1381  O     0.68519   0.83334   0.81491   0.00000  Uiso   1.00
O1382  O     0.98148   0.83332   0.68508   0.00000  Uiso   1.00
O1383  O     0.93933   0.83333   0.81492   0.00000  Uiso   1.00
O1384  O     0.72733   0.83333   0.68508   0.00000  Uiso   1.00
S1385  S     0.76526   0.78002   0.59622   0.00000  Uiso   1.00
O1386  O     0.78914   0.77185   0.63194   0.00000  Uiso   1.00
O1387  O     0.71608   0.75686   0.61014   0.00000  Uiso   1.00
O1388  O     0.79925   0.76182   0.54748   0.00000  Uiso   1.00
H1389  H     0.78198   0.76887   0.52549   0.00000  Uiso   1.00
S1390  S     0.86006   0.85882   0.88983   0.00000  Uiso   1.00
O1391  O     0.87271   0.89859   0.86124   0.00000  Uiso   1.00
O1392  O     0.85242   0.82447   0.86139   0.00000  Uiso   1.00
O1393  O     0.80505   0.86186   0.92827   0.00000  Uiso   1.00
H1394  H     0.79623   0.83347   0.94250   0.00000  Uiso   1.00
S1395  S     0.85980   0.75335   0.79563   0.00000  Uiso   1.00
O1396  O     0.81258   0.73212   0.82479   0.00000  Uiso   1.00
O1397  O     0.88176   0.72503   0.75852   0.00000  Uiso   1.00
O1398  O     0.89658   0.75941   0.82783   0.00000  Uiso   1.00
H1399  H     0.87999   0.74357   0.85658   0.00000  Uiso   1.00
S1400  S     0.80851   0.91017   0.69865   0.00000  Uiso   1.00
O1401  O     0.77536   0.90185   0.67086   0.00000  Uiso   1.00
O1402  O     0.78778   0.94170   0.73257   0.00000  Uiso   1.00
O1403  O     0.86171   0.93094   0.66351   0.00000  Uiso   1.00
H1404  H     0.85362   0.95766   0.65177   0.00000  Uiso   1.00
loop_
_geom_bond_atom_site_label_1
_geom_bond_atom_site_label_2
_geom_bond_distance
_geom_bond_site_symmetry_2
_ccdc_geom_bond_type
C1     O53     1.303   .     A
C1     C12     1.442   .     S
C1     O129    1.291   .     S
C2     C11     1.437   .     S
C2     O54     1.301   .     A
C2     O208    1.292   1_455 S
C3     C32     1.406   .     A
C3     H41     1.079   .     S
C3     C5      1.394   .     A
C4     H42     1.083   .     S
C4     C31     1.406   .     A
C4     C708    1.395   .     S
C5     H35     1.084   .     S
C5     C731    1.402   1_554 S
C6     C30     1.402   .     A
C6     C706    1.395   1_554 S
C6     H738    1.084   1_554 S
C7     H43     1.077   .     S
C7     C12     1.397   .     A
C7     C477    1.384   1_545 S
C8     H44     1.082   .     S
C8     C11     1.397   .     A
C8     C244    1.388   .     S
C9     H45     1.083   .     S
C9     C241    1.384   .     S
C9     C89     1.396   .     S
C10    H46     1.083   .     S
C10    C476    1.388   1_545 S
C10    C168    1.399   1_455 S
C11    C165    1.396   1_455 S
C12    C88     1.399   .     S
C13    S69     1.788   .     S
C13    C15     1.415   .     A
C13    N50     1.407   .     A
C14    S74     1.781   .     S
C14    N49     1.405   .     A
C14    C16     1.414   .     A
C15    H47     1.079   .     S
C15    N49     1.344   .     A
C16    H48     1.080   .     S
C16    N50     1.345   .     A
C17    C19     1.490   .     S
C17    O57     1.301   .     A
C17    O133    1.317   .     S
C18    O58     1.298   .     A
C18    C20     1.461   .     S
C18    O212    1.304   1_455 S
C19    C23     1.408   .     A
C19    C25     1.441   .     A
C20    C24     1.400   .     A
C20    C26     1.405   .     A
C21    C23     1.386   .     A
C21    C29     1.391   .     A
C21    H39     1.084   .     S
C22    H40     1.084   .     S
C22    C24     1.391   .     A
C22    C30     1.400   .     A
C23    H116    1.084   .     S
C24    H193    1.084   1_455 S
C25    S64     1.811   .     S
C25    C27     1.428   .     A
C26    S59     1.786   .     S
C26    C28     1.420   .     A
C27    C29     1.417   .     A
C27    C31     1.413   .     A
C28    C32     1.415   .     A
C28    C30     1.422   .     A
C29    C707    1.402   .     S
C31    C734    1.406   .     S
C32    C733    1.406   1_554 S
Cu33   O55     1.943   .     S
Cu33   O58     1.946   .     S
Cu33   N49     2.032   .     S
Cu33   O51     1.940   .     S
Cu33   O54     1.960   .     S
Cu33   Cu190   2.704   1_455 S
Cu34   O56     1.943   .     S
Cu34   O57     1.946   .     S
Cu34   N50     2.032   .     S
Cu34   O52     1.940   .     S
Cu34   O53     1.960   .     S
Cu34   Cu111   2.704   .     S
H36    C708    1.084   .     S
H37    C102    1.084   .     S
H38    C179    1.084   1_455 S
O51    C157    1.291   1_455 S
O52    C80     1.292   .     S
O55    C173    1.317   1_455 S
O56    C96     1.304   .     S
S59    O60     1.503   .     D
S59    O61     1.504   .     D
S59    O62     1.682   .     S
O62    H63     0.991   .     S
S64    O67     1.682   .     S
S64    O66     1.493   .     D
S64    O65     1.502   .     D
O67    H68     0.991   .     S
S69    O71     1.503   .     D
S69    O72     1.680   .     S
S69    O70     1.506   .     D
O72    H73     0.991   .     S
S74    O77     1.684   .     S
S74    O75     1.497   .     D
S74    O76     1.503   .     D
O77    H78     0.991   .     S
C79    O131    1.303   .     A
C79    C90     1.442   .     S
C79    O207    1.291   .     S
C80    C89     1.437   .     S
C80    O132    1.301   .     A
C81    C110    1.406   .     A
C81    H119    1.079   .     S
C81    C83     1.394   .     A
C82    H120    1.083   .     S
C82    C109    1.406   .     A
C82    C786    1.395   .     S
C83    H113    1.084   .     S
C83    C809    1.402   1_554 S
C84    C108    1.402   .     A
C84    C784    1.395   1_554 S
C84    H816    1.084   1_554 S
C85    H121    1.077   .     S
C85    C90     1.397   .     A
C85    C555    1.384   1_545 S
C86    H122    1.082   .     S
C86    C89     1.397   .     A
C86    C322    1.388   .     S
C87    H123    1.083   .     S
C87    C319    1.384   .     S
C87    C167    1.396   .     S
C88    H124    1.083   .     S
C88    C554    1.388   1_545 S
C90    C166    1.399   .     S
C91    S147    1.788   .     S
C91    C93     1.415   .     A
C91    N128    1.407   .     A
C92    S152    1.781   .     S
C92    N127    1.405   .     A
C92    C94     1.414   .     A
C93    H125    1.079   .     S
C93    N127    1.344   .     A
C94    H126    1.080   .     S
C94    N128    1.345   .     A
C95    C97     1.490   .     S
C95    O135    1.301   .     A
C95    O211    1.317   .     S
C96    O136    1.298   .     A
C96    C98     1.461   .     S
C97    C101    1.408   .     A
C97    C103    1.441   .     A
C98    C102    1.400   .     A
C98    C104    1.405   .     A
C99    C101    1.386   .     A
C99    C107    1.391   .     A
C99    H117    1.084   .     S
C100   H118    1.084   .     S
C100   C102    1.391   .     A
C100   C108    1.400   .     A
C101   H194    1.084   .     S
C103   S142    1.811   .     S
C103   C105    1.428   .     A
C104   S137    1.786   .     S
C104   C106    1.420   .     A
C105   C107    1.417   .     A
C105   C109    1.413   .     A
C106   C110    1.415   .     A
C106   C108    1.422   .     A
C107   C785    1.402   .     S
C109   C812    1.406   .     S
C110   C811    1.406   1_554 S
Cu111  O133    1.943   .     S
Cu111  O136    1.946   .     S
Cu111  N127    2.032   .     S
Cu111  O129    1.940   .     S
Cu111  O132    1.960   .     S
Cu112  O134    1.943   .     S
Cu112  O135    1.946   .     S
Cu112  N128    2.032   .     S
Cu112  O130    1.940   .     S
Cu112  O131    1.960   .     S
Cu112  Cu189   2.704   .     S
H114   C786    1.084   .     S
H115   C180    1.084   .     S
O130   C158    1.292   .     S
O134   C174    1.304   .     S
S137   O138    1.503   .     D
S137   O139    1.504   .     D
S137   O140    1.682   .     S
O140   H141    0.991   .     S
S142   O145    1.682   .     S
S142   O144    1.493   .     D
S142   O143    1.502   .     D
O145   H146    0.991   .     S
S147   O149    1.503   .     D
S147   O150    1.680   .     S
S147   O148    1.506   .     D
O150   H151    0.991   .     S
S152   O155    1.684   .     S
S152   O153    1.497   .     D
S152   O154    1.503   .     D
O155   H156    0.991   .     S
C157   O209    1.303   .     A
C157   C168    1.442   .     S
C157   O51     1.291   1_655 S
C158   C167    1.437   .     S
C158   O210    1.301   .     A
C159   C188    1.406   .     A
C159   H197    1.079   .     S
C159   C161    1.394   .     A
C160   H198    1.083   .     S
C160   C187    1.406   .     A
C160   C864    1.395   .     S
C161   H191    1.084   .     S
C161   C887    1.402   1_554 S
C162   C186    1.402   .     A
C162   C862    1.395   1_554 S
C162   H894    1.084   1_554 S
C163   H199    1.077   .     S
C163   C168    1.397   .     A
C163   C633    1.384   1_545 S
C164   H200    1.082   .     S
C164   C167    1.397   .     A
C164   C400    1.388   .     S
C165   H201    1.083   .     S
C165   C397    1.384   .     S
C165   C11     1.396   1_655 S
C166   H202    1.083   .     S
C166   C632    1.388   1_545 S
C168   C10     1.399   1_655 S
C169   S225    1.788   .     S
C169   C171    1.415   .     A
C169   N206    1.407   .     A
C170   S230    1.781   .     S
C170   N205    1.405   .     A
C170   C172    1.414   .     A
C171   H203    1.079   .     S
C171   N205    1.344   .     A
C172   H204    1.080   .     S
C172   N206    1.345   .     A
C173   C175    1.490   .     S
C173   O213    1.301   .     A
C173   O55     1.317   1_655 S
C174   O214    1.298   .     A
C174   C176    1.461   .     S
C175   C179    1.408   .     A
C175   C181    1.441   .     A
C176   C180    1.400   .     A
C176   C182    1.405   .     A
C177   C179    1.386   .     A
C177   C185    1.391   .     A
C177   H195    1.084   .     S
C178   H196    1.084   .     S
C178   C180    1.391   .     A
C178   C186    1.400   .     A
C179   H38     1.084   1_655 S
C181   S220    1.811   .     S
C181   C183    1.428   .     A
C182   S215    1.786   .     S
C182   C184    1.420   .     A
C183   C185    1.417   .     A
C183   C187    1.413   .     A
C184   C188    1.415   .     A
C184   C186    1.422   .     A
C185   C863    1.402   .     S
C187   C890    1.406   .     S
C188   C889    1.406   1_554 S
Cu189  O211    1.943   .     S
Cu189  O214    1.946   .     S
Cu189  N205    2.032   .     S
Cu189  O207    1.940   .     S
Cu189  O210    1.960   .     S
Cu190  O212    1.943   .     S
Cu190  O213    1.946   .     S
Cu190  N206    2.032   .     S
Cu190  O208    1.940   .     S
Cu190  O209    1.960   .     S
Cu190  Cu33    2.704   1_655 S
H192   C864    1.084   .     S
H193   C24     1.084   1_655 S
O208   C2      1.292   1_655 S
O212   C18     1.304   1_655 S
S215   O216    1.503   .     D
S215   O217    1.504   .     D
S215   O218    1.682   .     S
O218   H219    0.991   .     S
S220   O223    1.682   .     S
S220   O222    1.493   .     D
S220   O221    1.502   .     D
O223   H224    0.991   .     S
S225   O227    1.503   .     D
S225   O228    1.680   .     S
S225   O226    1.506   .     D
O228   H229    0.991   .     S
S230   O233    1.684   .     S
S230   O231    1.497   .     D
S230   O232    1.503   .     D
O233   H234    0.991   .     S
C235   O287    1.303   .     A
C235   C246    1.442   .     S
C235   O363    1.291   .     S
C236   C245    1.437   .     S
C236   O288    1.301   .     A
C236   O442    1.292   1_455 S
C237   C266    1.406   .     A
C237   H275    1.079   .     S
C237   C239    1.394   .     A
C238   H276    1.083   .     S
C238   C265    1.406   .     A
C238   C942    1.395   .     S
C239   H269    1.084   .     S
C239   C965    1.402   1_554 S
C240   C264    1.402   .     A
C240   C940    1.395   1_554 S
C240   H972    1.084   1_554 S
C241   H277    1.077   .     S
C241   C246    1.397   .     A
C242   H278    1.082   .     S
C242   C245    1.397   .     A
C242   C478    1.388   .     S
C243   H279    1.083   .     S
C243   C475    1.384   .     S
C243   C323    1.396   .     S
C244   H280    1.083   .     S
C244   C402    1.399   1_455 S
C245   C399    1.396   1_455 S
C246   C322    1.399   .     S
C247   S303    1.788   .     S
C247   C249    1.415   .     A
C247   N284    1.407   .     A
C248   S308    1.781   .     S
C248   N283    1.405   .     A
C248   C250    1.414   .     A
C249   H281    1.079   .     S
C249   N283    1.344   .     A
C250   H282    1.080   .     S
C250   N284    1.345   .     A
C251   C253    1.490   .     S
C251   O291    1.301   .     A
C251   O367    1.317   .     S
C252   O292    1.298   .     A
C252   C254    1.461   .     S
C252   O446    1.304   1_455 S
C253   C257    1.408   .     A
C253   C259    1.441   .     A
C254   C258    1.400   .     A
C254   C260    1.405   .     A
C255   C257    1.386   .     A
C255   C263    1.391   .     A
C255   H273    1.084   .     S
C256   H274    1.084   .     S
C256   C258    1.391   .     A
C256   C264    1.400   .     A
C257   H350    1.084   .     S
C258   H427    1.084   1_455 S
C259   S298    1.811   .     S
C259   C261    1.428   .     A
C260   S293    1.786   .     S
C260   C262    1.420   .     A
C261   C263    1.417   .     A
C261   C265    1.413   .     A
C262   C266    1.415   .     A
C262   C264    1.422   .     A
C263   C941    1.402   .     S
C265   C968    1.406   .     S
C266   C967    1.406   1_554 S
Cu267  O289    1.943   .     S
Cu267  O292    1.946   .     S
Cu267  N283    2.032   .     S
Cu267  O285    1.940   .     S
Cu267  O288    1.960   .     S
Cu267  Cu424   2.704   1_455 S
Cu268  O290    1.943   .     S
Cu268  O291    1.946   .     S
Cu268  N284    2.032   .     S
Cu268  O286    1.940   .     S
Cu268  O287    1.960   .     S
Cu268  Cu345   2.704   .     S
H270   C942    1.084   .     S
H271   C336    1.084   .     S
H272   C413    1.084   1_455 S
O285   C391    1.291   1_455 S
O286   C314    1.292   .     S
O289   C407    1.317   1_455 S
O290   C330    1.304   .     S
S293   O294    1.503   .     D
S293   O295    1.504   .     D
S293   O296    1.682   .     S
O296   H297    0.991   .     S
S298   O301    1.682   .     S
S298   O300    1.493   .     D
S298   O299    1.502   .     D
O301   H302    0.991   .     S
S303   O305    1.503   .     D
S303   O306    1.680   .     S
S303   O304    1.506   .     D
O306   H307    0.991   .     S
S308   O311    1.684   .     S
S308   O309    1.497   .     D
S308   O310    1.503   .     D
O311   H312    0.991   .     S
C313   O365    1.303   .     A
C313   C324    1.442   .     S
C313   O441    1.291   .     S
C314   C323    1.437   .     S
C314   O366    1.301   .     A
C315   C344    1.406   .     A
C315   H353    1.079   .     S
C315   C317    1.394   .     A
C316   H354    1.083   .     S
C316   C343    1.406   .     A
C316   C1020   1.395   .     S
C317   H347    1.084   .     S
C317   C1043   1.402   1_554 S
C318   C342    1.402   .     A
C318   C1018   1.395   1_554 S
C318   H1050   1.084   1_554 S
C319   H355    1.077   .     S
C319   C324    1.397   .     A
C320   H356    1.082   .     S
C320   C323    1.397   .     A
C320   C556    1.388   .     S
C321   H357    1.083   .     S
C321   C553    1.384   .     S
C321   C401    1.396   .     S
C322   H358    1.083   .     S
C324   C400    1.399   .     S
C325   S381    1.788   .     S
C325   C327    1.415   .     A
C325   N362    1.407   .     A
C326   S386    1.781   .     S
C326   N361    1.405   .     A
C326   C328    1.414   .     A
C327   H359    1.079   .     S
C327   N361    1.344   .     A
C328   H360    1.080   .     S
C328   N362    1.345   .     A
C329   C331    1.490   .     S
C329   O369    1.301   .     A
C329   O445    1.317   .     S
C330   O370    1.298   .     A
C330   C332    1.461   .     S
C331   C335    1.408   .     A
C331   C337    1.441   .     A
C332   C336    1.400   .     A
C332   C338    1.405   .     A
C333   C335    1.386   .     A
C333   C341    1.391   .     A
C333   H351    1.084   .     S
C334   H352    1.084   .     S
C334   C336    1.391   .     A
C334   C342    1.400   .     A
C335   H428    1.084   .     S
C337   S376    1.811   .     S
C337   C339    1.428   .     A
C338   S371    1.786   .     S
C338   C340    1.420   .     A
C339   C341    1.417   .     A
C339   C343    1.413   .     A
C340   C344    1.415   .     A
C340   C342    1.422   .     A
C341   C1019   1.402   .     S
C343   C1046   1.406   .     S
C344   C1045   1.406   1_554 S
Cu345  O367    1.943   .     S
Cu345  O370    1.946   .     S
Cu345  N361    2.032   .     S
Cu345  O363    1.940   .     S
Cu345  O366    1.960   .     S
Cu346  O368    1.943   .     S
Cu346  O369    1.946   .     S
Cu346  N362    2.032   .     S
Cu346  O364    1.940   .     S
Cu346  O365    1.960   .     S
Cu346  Cu423   2.704   .     S
H348   C1020   1.084   .     S
H349   C414    1.084   .     S
O364   C392    1.292   .     S
O368   C408    1.304   .     S
S371   O372    1.503   .     D
S371   O373    1.504   .     D
S371   O374    1.682   .     S
O374   H375    0.991   .     S
S376   O379    1.682   .     S
S376   O378    1.493   .     D
S376   O377    1.502   .     D
O379   H380    0.991   .     S
S381   O383    1.503   .     D
S381   O384    1.680   .     S
S381   O382    1.506   .     D
O384   H385    0.991   .     S
S386   O389    1.684   .     S
S386   O387    1.497   .     D
S386   O388    1.503   .     D
O389   H390    0.991   .     S
C391   O443    1.303   .     A
C391   C402    1.442   .     S
C391   O285    1.291   1_655 S
C392   C401    1.437   .     S
C392   O444    1.301   .     A
C393   C422    1.406   .     A
C393   H431    1.079   .     S
C393   C395    1.394   .     A
C394   H432    1.083   .     S
C394   C421    1.406   .     A
C394   C1098   1.395   .     S
C395   H425    1.084   .     S
C395   C1121   1.402   1_554 S
C396   C420    1.402   .     A
C396   C1096   1.395   1_554 S
C396   H1128   1.084   1_554 S
C397   H433    1.077   .     S
C397   C402    1.397   .     A
C398   H434    1.082   .     S
C398   C401    1.397   .     A
C398   C634    1.388   .     S
C399   H435    1.083   .     S
C399   C631    1.384   .     S
C399   C245    1.396   1_655 S
C400   H436    1.083   .     S
C402   C244    1.399   1_655 S
C403   S459    1.788   .     S
C403   C405    1.415   .     A
C403   N440    1.407   .     A
C404   S464    1.781   .     S
C404   N439    1.405   .     A
C404   C406    1.414   .     A
C405   H437    1.079   .     S
C405   N439    1.344   .     A
C406   H438    1.080   .     S
C406   N440    1.345   .     A
C407   C409    1.490   .     S
C407   O447    1.301   .     A
C407   O289    1.317   1_655 S
C408   O448    1.298   .     A
C408   C410    1.461   .     S
C409   C413    1.408   .     A
C409   C415    1.441   .     A
C410   C414    1.400   .     A
C410   C416    1.405   .     A
C411   C413    1.386   .     A
C411   C419    1.391   .     A
C411   H429    1.084   .     S
C412   H430    1.084   .     S
C412   C414    1.391   .     A
C412   C420    1.400   .     A
C413   H272    1.084   1_655 S
C415   S454    1.811   .     S
C415   C417    1.428   .     A
C416   S449    1.786   .     S
C416   C418    1.420   .     A
C417   C419    1.417   .     A
C417   C421    1.413   .     A
C418   C422    1.415   .     A
C418   C420    1.422   .     A
C419   C1097   1.402   .     S
C421   C1124   1.406   .     S
C422   C1123   1.406   1_554 S
Cu423  O445    1.943   .     S
Cu423  O448    1.946   .     S
Cu423  N439    2.032   .     S
Cu423  O441    1.940   .     S
Cu423  O444    1.960   .     S
Cu424  O446    1.943   .     S
Cu424  O447    1.946   .     S
Cu424  N440    2.032   .     S
Cu424  O442    1.940   .     S
Cu424  O443    1.960   .     S
Cu424  Cu267   2.704   1_655 S
H426   C1098   1.084   .     S
H427   C258    1.084   1_655 S
O442   C236    1.292   1_655 S
O446   C252    1.304   1_655 S
S449   O450    1.503   .     D
S449   O451    1.504   .     D
S449   O452    1.682   .     S
O452   H453    0.991   .     S
S454   O457    1.682   .     S
S454   O456    1.493   .     D
S454   O455    1.502   .     D
O457   H458    0.991   .     S
S459   O461    1.503   .     D
S459   O462    1.680   .     S
S459   O460    1.506   .     D
O462   H463    0.991   .     S
S464   O467    1.684   .     S
S464   O465    1.497   .     D
S464   O466    1.503   .     D
O467   H468    0.991   .     S
C469   O521    1.303   .     A
C469   C480    1.442   .     S
C469   O597    1.291   .     S
C470   C479    1.437   .     S
C470   O522    1.301   .     A
C470   O676    1.292   1_455 S
C471   C500    1.406   .     A
C471   H509    1.079   .     S
C471   C473    1.394   .     A
C472   H510    1.083   .     S
C472   C499    1.406   .     A
C472   C1176   1.395   .     S
C473   H503    1.084   .     S
C473   C1199   1.402   1_554 S
C474   C498    1.402   .     A
C474   C1174   1.395   1_554 S
C474   H1206   1.084   1_554 S
C475   H511    1.077   .     S
C475   C480    1.397   .     A
C476   H512    1.082   .     S
C476   C479    1.397   .     A
C476   C10     1.388   1_565 S
C477   H513    1.083   .     S
C477   C7      1.384   1_565 S
C477   C557    1.396   .     S
C478   H514    1.083   .     S
C478   C636    1.399   1_455 S
C479   C633    1.396   1_455 S
C480   C556    1.399   .     S
C481   S537    1.788   .     S
C481   C483    1.415   .     A
C481   N518    1.407   .     A
C482   S542    1.781   .     S
C482   N517    1.405   .     A
C482   C484    1.414   .     A
C483   H515    1.079   .     S
C483   N517    1.344   .     A
C484   H516    1.080   .     S
C484   N518    1.345   .     A
C485   C487    1.490   .     S
C485   O525    1.301   .     A
C485   O601    1.317   .     S
C486   O526    1.298   .     A
C486   C488    1.461   .     S
C486   O680    1.304   1_455 S
C487   C491    1.408   .     A
C487   C493    1.441   .     A
C488   C492    1.400   .     A
C488   C494    1.405   .     A
C489   C491    1.386   .     A
C489   C497    1.391   .     A
C489   H507    1.084   .     S
C490   H508    1.084   .     S
C490   C492    1.391   .     A
C490   C498    1.400   .     A
C491   H584    1.084   .     S
C492   H661    1.084   1_455 S
C493   S532    1.811   .     S
C493   C495    1.428   .     A
C494   S527    1.786   .     S
C494   C496    1.420   .     A
C495   C497    1.417   .     A
C495   C499    1.413   .     A
C496   C500    1.415   .     A
C496   C498    1.422   .     A
C497   C1175   1.402   .     S
C499   C1202   1.406   .     S
C500   C1201   1.406   1_554 S
Cu501  O523    1.943   .     S
Cu501  O526    1.946   .     S
Cu501  N517    2.032   .     S
Cu501  O519    1.940   .     S
Cu501  O522    1.960   .     S
Cu501  Cu658   2.704   1_455 S
Cu502  O524    1.943   .     S
Cu502  O525    1.946   .     S
Cu502  N518    2.032   .     S
Cu502  O520    1.940   .     S
Cu502  O521    1.960   .     S
Cu502  Cu579   2.704   .     S
H504   C1176   1.084   .     S
H505   C570    1.084   .     S
H506   C647    1.084   1_455 S
O519   C625    1.291   1_455 S
O520   C548    1.292   .     S
O523   C641    1.317   1_455 S
O524   C564    1.304   .     S
S527   O528    1.503   .     D
S527   O529    1.504   .     D
S527   O530    1.682   .     S
O530   H531    0.991   .     S
S532   O535    1.682   .     S
S532   O534    1.493   .     D
S532   O533    1.502   .     D
O535   H536    0.991   .     S
S537   O539    1.503   .     D
S537   O540    1.680   .     S
S537   O538    1.506   .     D
O540   H541    0.991   .     S
S542   O545    1.684   .     S
S542   O543    1.497   .     D
S542   O544    1.503   .     D
O545   H546    0.991   .     S
C547   O599    1.303   .     A
C547   C558    1.442   .     S
C547   O675    1.291   .     S
C548   C557    1.437   .     S
C548   O600    1.301   .     A
C549   C578    1.406   .     A
C549   H587    1.079   .     S
C549   C551    1.394   .     A
C550   H588    1.083   .     S
C550   C577    1.406   .     A
C550   C1254   1.395   .     S
C551   H581    1.084   .     S
C551   C1277   1.402   1_554 S
C552   C576    1.402   .     A
C552   C1252   1.395   1_554 S
C552   H1284   1.084   1_554 S
C553   H589    1.077   .     S
C553   C558    1.397   .     A
C554   H590    1.082   .     S
C554   C557    1.397   .     A
C554   C88     1.388   1_565 S
C555   H591    1.083   .     S
C555   C85     1.384   1_565 S
C555   C635    1.396   .     S
C556   H592    1.083   .     S
C558   C634    1.399   .     S
C559   S615    1.788   .     S
C559   C561    1.415   .     A
C559   N596    1.407   .     A
C560   S620    1.781   .     S
C560   N595    1.405   .     A
C560   C562    1.414   .     A
C561   H593    1.079   .     S
C561   N595    1.344   .     A
C562   H594    1.080   .     S
C562   N596    1.345   .     A
C563   C565    1.490   .     S
C563   O603    1.301   .     A
C563   O679    1.317   .     S
C564   O604    1.298   .     A
C564   C566    1.461   .     S
C565   C569    1.408   .     A
C565   C571    1.441   .     A
C566   C570    1.400   .     A
C566   C572    1.405   .     A
C567   C569    1.386   .     A
C567   C575    1.391   .     A
C567   H585    1.084   .     S
C568   H586    1.084   .     S
C568   C570    1.391   .     A
C568   C576    1.400   .     A
C569   H662    1.084   .     S
C571   S610    1.811   .     S
C571   C573    1.428   .     A
C572   S605    1.786   .     S
C572   C574    1.420   .     A
C573   C575    1.417   .     A
C573   C577    1.413   .     A
C574   C578    1.415   .     A
C574   C576    1.422   .     A
C575   C1253   1.402   .     S
C577   C1280   1.406   .     S
C578   C1279   1.406   1_554 S
Cu579  O601    1.943   .     S
Cu579  O604    1.946   .     S
Cu579  N595    2.032   .     S
Cu579  O597    1.940   .     S
Cu579  O600    1.960   .     S
Cu580  O602    1.943   .     S
Cu580  O603    1.946   .     S
Cu580  N596    2.032   .     S
Cu580  O598    1.940   .     S
Cu580  O599    1.960   .     S
Cu580  Cu657   2.704   .     S
H582   C1254   1.084   .     S
H583   C648    1.084   .     S
O598   C626    1.292   .     S
O602   C642    1.304   .     S
S605   O606    1.503   .     D
S605   O607    1.504   .     D
S605   O608    1.682   .     S
O608   H609    0.991   .     S
S610   O613    1.682   .     S
S610   O612    1.493   .     D
S610   O611    1.502   .     D
O613   H614    0.991   .     S
S615   O617    1.503   .     D
S615   O618    1.680   .     S
S615   O616    1.506   .     D
O618   H619    0.991   .     S
S620   O623    1.684   .     S
S620   O621    1.497   .     D
S620   O622    1.503   .     D
O623   H624    0.991   .     S
C625   O677    1.303   .     A
C625   C636    1.442   .     S
C625   O519    1.291   1_655 S
C626   C635    1.437   .     S
C626   O678    1.301   .     A
C627   C656    1.406   .     A
C627   H665    1.079   .     S
C627   C629    1.394   .     A
C628   H666    1.083   .     S
C628   C655    1.406   .     A
C628   C1332   1.395   .     S
C629   H659    1.084   .     S
C629   C1355   1.402   1_554 S
C630   C654    1.402   .     A
C630   C1330   1.395   1_554 S
C630   H1362   1.084   1_554 S
C631   H667    1.077   .     S
C631   C636    1.397   .     A
C632   H668    1.082   .     S
C632   C635    1.397   .     A
C632   C166    1.388   1_565 S
C633   H669    1.083   .     S
C633   C163    1.384   1_565 S
C633   C479    1.396   1_655 S
C634   H670    1.083   .     S
C636   C478    1.399   1_655 S
C637   S693    1.788   .     S
C637   C639    1.415   .     A
C637   N674    1.407   .     A
C638   S698    1.781   .     S
C638   N673    1.405   .     A
C638   C640    1.414   .     A
C639   H671    1.079   .     S
C639   N673    1.344   .     A
C640   H672    1.080   .     S
C640   N674    1.345   .     A
C641   C643    1.490   .     S
C641   O681    1.301   .     A
C641   O523    1.317   1_655 S
C642   O682    1.298   .     A
C642   C644    1.461   .     S
C643   C647    1.408   .     A
C643   C649    1.441   .     A
C644   C648    1.400   .     A
C644   C650    1.405   .     A
C645   C647    1.386   .     A
C645   C653    1.391   .     A
C645   H663    1.084   .     S
C646   H664    1.084   .     S
C646   C648    1.391   .     A
C646   C654    1.400   .     A
C647   H506    1.084   1_655 S
C649   S688    1.811   .     S
C649   C651    1.428   .     A
C650   S683    1.786   .     S
C650   C652    1.420   .     A
C651   C653    1.417   .     A
C651   C655    1.413   .     A
C652   C656    1.415   .     A
C652   C654    1.422   .     A
C653   C1331   1.402   .     S
C655   C1358   1.406   .     S
C656   C1357   1.406   1_554 S
Cu657  O679    1.943   .     S
Cu657  O682    1.946   .     S
Cu657  N673    2.032   .     S
Cu657  O675    1.940   .     S
Cu657  O678    1.960   .     S
Cu658  O680    1.943   .     S
Cu658  O681    1.946   .     S
Cu658  N674    2.032   .     S
Cu658  O676    1.940   .     S
Cu658  O677    1.960   .     S
Cu658  Cu501   2.704   1_655 S
H660   C1332   1.084   .     S
H661   C492    1.084   1_655 S
O676   C470    1.292   1_655 S
O680   C486    1.304   1_655 S
S683   O684    1.503   .     D
S683   O685    1.504   .     D
S683   O686    1.682   .     S
O686   H687    0.991   .     S
S688   O691    1.682   .     S
S688   O690    1.493   .     D
S688   O689    1.502   .     D
O691   H692    0.991   .     S
S693   O695    1.503   .     D
S693   O696    1.680   .     S
S693   O694    1.506   .     D
O696   H697    0.991   .     S
S698   O701    1.684   .     S
S698   O699    1.497   .     D
S698   O700    1.503   .     D
O701   H702    0.991   .     S
C703   O755    1.303   .     A
C703   C714    1.442   .     S
C703   O831    1.291   .     S
C704   C713    1.437   .     S
C704   O756    1.301   .     A
C704   O910    1.292   1_455 S
C705   C734    1.406   .     A
C705   H743    1.079   .     S
C705   C707    1.394   .     A
C706   H744    1.083   .     S
C706   C733    1.406   .     A
C706   C6      1.395   1_556 S
C707   H737    1.084   .     S
C708   C732    1.402   .     A
C709   H745    1.077   .     S
C709   C714    1.397   .     A
C709   C1179   1.384   1_545 S
C710   H746    1.082   .     S
C710   C713    1.397   .     A
C710   C946    1.388   .     S
C711   H747    1.083   .     S
C711   C943    1.384   .     S
C711   C791    1.396   .     S
C712   H748    1.083   .     S
C712   C1178   1.388   1_545 S
C712   C870    1.399   1_455 S
C713   C867    1.396   1_455 S
C714   C790    1.399   .     S
C715   S771    1.788   .     S
C715   C717    1.415   .     A
C715   N752    1.407   .     A
C716   S776    1.781   .     S
C716   N751    1.405   .     A
C716   C718    1.414   .     A
C717   H749    1.079   .     S
C717   N751    1.344   .     A
C718   H750    1.080   .     S
C718   N752    1.345   .     A
C719   C721    1.490   .     S
C719   O759    1.301   .     A
C719   O835    1.317   .     S
C720   O760    1.298   .     A
C720   C722    1.461   .     S
C720   O914    1.304   1_455 S
C721   C725    1.408   .     A
C721   C727    1.441   .     A
C722   C726    1.400   .     A
C722   C728    1.405   .     A
C723   C725    1.386   .     A
C723   C731    1.391   .     A
C723   H741    1.084   .     S
C724   H742    1.084   .     S
C724   C726    1.391   .     A
C724   C732    1.400   .     A
C725   H818    1.084   .     S
C726   H895    1.084   1_455 S
C727   S766    1.811   .     S
C727   C729    1.428   .     A
C728   S761    1.786   .     S
C728   C730    1.420   .     A
C729   C731    1.417   .     A
C729   C733    1.413   .     A
C730   C734    1.415   .     A
C730   C732    1.422   .     A
C731   C5      1.402   1_556 S
C733   C32     1.406   1_556 S
Cu735  O757    1.943   .     S
Cu735  O760    1.946   .     S
Cu735  N751    2.032   .     S
Cu735  O753    1.940   .     S
Cu735  O756    1.960   .     S
Cu735  Cu892   2.704   1_455 S
Cu736  O758    1.943   .     S
Cu736  O759    1.946   .     S
Cu736  N752    2.032   .     S
Cu736  O754    1.940   .     S
Cu736  O755    1.960   .     S
Cu736  Cu813   2.704   .     S
H738   C6      1.084   1_556 S
H739   C804    1.084   .     S
H740   C881    1.084   1_455 S
O753   C859    1.291   1_455 S
O754   C782    1.292   .     S
O757   C875    1.317   1_455 S
O758   C798    1.304   .     S
S761   O762    1.503   .     D
S761   O763    1.504   .     D
S761   O764    1.682   .     S
O764   H765    0.991   .     S
S766   O769    1.682   .     S
S766   O768    1.493   .     D
S766   O767    1.502   .     D
O769   H770    0.991   .     S
S771   O773    1.503   .     D
S771   O774    1.680   .     S
S771   O772    1.506   .     D
O774   H775    0.991   .     S
S776   O779    1.684   .     S
S776   O777    1.497   .     D
S776   O778    1.503   .     D
O779   H780    0.991   .     S
C781   O833    1.303   .     A
C781   C792    1.442   .     S
C781   O909    1.291   .     S
C782   C791    1.437   .     S
C782   O834    1.301   .     A
C783   C812    1.406   .     A
C783   H821    1.079   .     S
C783   C785    1.394   .     A
C784   H822    1.083   .     S
C784   C811    1.406   .     A
C784   C84     1.395   1_556 S
C785   H815    1.084   .     S
C786   C810    1.402   .     A
C787   H823    1.077   .     S
C787   C792    1.397   .     A
C787   C1257   1.384   1_545 S
C788   H824    1.082   .     S
C788   C791    1.397   .     A
C788   C1024   1.388   .     S
C789   H825    1.083   .     S
C789   C1021   1.384   .     S
C789   C869    1.396   .     S
C790   H826    1.083   .     S
C790   C1256   1.388   1_545 S
C792   C868    1.399   .     S
C793   S849    1.788   .     S
C793   C795    1.415   .     A
C793   N830    1.407   .     A
C794   S854    1.781   .     S
C794   N829    1.405   .     A
C794   C796    1.414   .     A
C795   H827    1.079   .     S
C795   N829    1.344   .     A
C796   H828    1.080   .     S
C796   N830    1.345   .     A
C797   C799    1.490   .     S
C797   O837    1.301   .     A
C797   O913    1.317   .     S
C798   O838    1.298   .     A
C798   C800    1.461   .     S
C799   C803    1.408   .     A
C799   C805    1.441   .     A
C800   C804    1.400   .     A
C800   C806    1.405   .     A
C801   C803    1.386   .     A
C801   C809    1.391   .     A
C801   H819    1.084   .     S
C802   H820    1.084   .     S
C802   C804    1.391   .     A
C802   C810    1.400   .     A
C803   H896    1.084   .     S
C805   S844    1.811   .     S
C805   C807    1.428   .     A
C806   S839    1.786   .     S
C806   C808    1.420   .     A
C807   C809    1.417   .     A
C807   C811    1.413   .     A
C808   C812    1.415   .     A
C808   C810    1.422   .     A
C809   C83     1.402   1_556 S
C811   C110    1.406   1_556 S
Cu813  O835    1.943   .     S
Cu813  O838    1.946   .     S
Cu813  N829    2.032   .     S
Cu813  O831    1.940   .     S
Cu813  O834    1.960   .     S
Cu814  O836    1.943   .     S
Cu814  O837    1.946   .     S
Cu814  N830    2.032   .     S
Cu814  O832    1.940   .     S
Cu814  O833    1.960   .     S
Cu814  Cu891   2.704   .     S
H816   C84     1.084   1_556 S
H817   C882    1.084   .     S
O832   C860    1.292   .     S
O836   C876    1.304   .     S
S839   O840    1.503   .     D
S839   O841    1.504   .     D
S839   O842    1.682   .     S
O842   H843    0.991   .     S
S844   O847    1.682   .     S
S844   O846    1.493   .     D
S844   O845    1.502   .     D
O847   H848    0.991   .     S
S849   O851    1.503   .     D
S849   O852    1.680   .     S
S849   O850    1.506   .     D
O852   H853    0.991   .     S
S854   O857    1.684   .     S
S854   O855    1.497   .     D
S854   O856    1.503   .     D
O857   H858    0.991   .     S
C859   O911    1.303   .     A
C859   C870    1.442   .     S
C859   O753    1.291   1_655 S
C860   C869    1.437   .     S
C860   O912    1.301   .     A
C861   C890    1.406   .     A
C861   H899    1.079   .     S
C861   C863    1.394   .     A
C862   H900    1.083   .     S
C862   C889    1.406   .     A
C862   C162    1.395   1_556 S
C863   H893    1.084   .     S
C864   C888    1.402   .     A
C865   H901    1.077   .     S
C865   C870    1.397   .     A
C865   C1335   1.384   1_545 S
C866   H902    1.082   .     S
C866   C869    1.397   .     A
C866   C1102   1.388   .     S
C867   H903    1.083   .     S
C867   C1099   1.384   .     S
C867   C713    1.396   1_655 S
C868   H904    1.083   .     S
C868   C1334   1.388   1_545 S
C870   C712    1.399   1_655 S
C871   S927    1.788   .     S
C871   C873    1.415   .     A
C871   N908    1.407   .     A
C872   S932    1.781   .     S
C872   N907    1.405   .     A
C872   C874    1.414   .     A
C873   H905    1.079   .     S
C873   N907    1.344   .     A
C874   H906    1.080   .     S
C874   N908    1.345   .     A
C875   C877    1.490   .     S
C875   O915    1.301   .     A
C875   O757    1.317   1_655 S
C876   O916    1.298   .     A
C876   C878    1.461   .     S
C877   C881    1.408   .     A
C877   C883    1.441   .     A
C878   C882    1.400   .     A
C878   C884    1.405   .     A
C879   C881    1.386   .     A
C879   C887    1.391   .     A
C879   H897    1.084   .     S
C880   H898    1.084   .     S
C880   C882    1.391   .     A
C880   C888    1.400   .     A
C881   H740    1.084   1_655 S
C883   S922    1.811   .     S
C883   C885    1.428   .     A
C884   S917    1.786   .     S
C884   C886    1.420   .     A
C885   C887    1.417   .     A
C885   C889    1.413   .     A
C886   C890    1.415   .     A
C886   C888    1.422   .     A
C887   C161    1.402   1_556 S
C889   C188    1.406   1_556 S
Cu891  O913    1.943   .     S
Cu891  O916    1.946   .     S
Cu891  N907    2.032   .     S
Cu891  O909    1.940   .     S
Cu891  O912    1.960   .     S
Cu892  O914    1.943   .     S
Cu892  O915    1.946   .     S
Cu892  N908    2.032   .     S
Cu892  O910    1.940   .     S
Cu892  O911    1.960   .     S
Cu892  Cu735   2.704   1_655 S
H894   C162    1.084   1_556 S
H895   C726    1.084   1_655 S
O910   C704    1.292   1_655 S
O914   C720    1.304   1_655 S
S917   O918    1.503   .     D
S917   O919    1.504   .     D
S917   O920    1.682   .     S
O920   H921    0.991   .     S
S922   O925    1.682   .     S
S922   O924    1.493   .     D
S922   O923    1.502   .     D
O925   H926    0.991   .     S
S927   O929    1.503   .     D
S927   O930    1.680   .     S
S927   O928    1.506   .     D
O930   H931    0.991   .     S
S932   O935    1.684   .     S
S932   O933    1.497   .     D
S932   O934    1.503   .     D
O935   H936    0.991   .     S
C937   O989    1.303   .     A
C937   C948    1.442   .     S
C937   O1065   1.291   .     S
C938   C947    1.437   .     S
C938   O990    1.301   .     A
C938   O1144   1.292   1_455 S
C939   C968    1.406   .     A
C939   H977    1.079   .     S
C939   C941    1.394   .     A
C940   H978    1.083   .     S
C940   C967    1.406   .     A
C940   C240    1.395   1_556 S
C941   H971    1.084   .     S
C942   C966    1.402   .     A
C943   H979    1.077   .     S
C943   C948    1.397   .     A
C944   H980    1.082   .     S
C944   C947    1.397   .     A
C944   C1180   1.388   .     S
C945   H981    1.083   .     S
C945   C1177   1.384   .     S
C945   C1025   1.396   .     S
C946   H982    1.083   .     S
C946   C1104   1.399   1_455 S
C947   C1101   1.396   1_455 S
C948   C1024   1.399   .     S
C949   S1005   1.788   .     S
C949   C951    1.415   .     A
C949   N986    1.407   .     A
C950   S1010   1.781   .     S
C950   N985    1.405   .     A
C950   C952    1.414   .     A
C951   H983    1.079   .     S
C951   N985    1.344   .     A
C952   H984    1.080   .     S
C952   N986    1.345   .     A
C953   C955    1.490   .     S
C953   O993    1.301   .     A
C953   O1069   1.317   .     S
C954   O994    1.298   .     A
C954   C956    1.461   .     S
C954   O1148   1.304   1_455 S
C955   C959    1.408   .     A
C955   C961    1.441   .     A
C956   C960    1.400   .     A
C956   C962    1.405   .     A
C957   C959    1.386   .     A
C957   C965    1.391   .     A
C957   H975    1.084   .     S
C958   H976    1.084   .     S
C958   C960    1.391   .     A
C958   C966    1.400   .     A
C959   H1052   1.084   .     S
C960   H1129   1.084   1_455 S
C961   S1000   1.811   .     S
C961   C963    1.428   .     A
C962   S995    1.786   .     S
C962   C964    1.420   .     A
C963   C965    1.417   .     A
C963   C967    1.413   .     A
C964   C968    1.415   .     A
C964   C966    1.422   .     A
C965   C239    1.402   1_556 S
C967   C266    1.406   1_556 S
Cu969  O991    1.943   .     S
Cu969  O994    1.946   .     S
Cu969  N985    2.032   .     S
Cu969  O987    1.940   .     S
Cu969  O990    1.960   .     S
Cu969  Cu1126  2.704   1_455 S
Cu970  O992    1.943   .     S
Cu970  O993    1.946   .     S
Cu970  N986    2.032   .     S
Cu970  O988    1.940   .     S
Cu970  O989    1.960   .     S
Cu970  Cu1047  2.704   .     S
H972   C240    1.084   1_556 S
H973   C1038   1.084   .     S
H974   C1115   1.084   1_455 S
O987   C1093   1.291   1_455 S
O988   C1016   1.292   .     S
O991   C1109   1.317   1_455 S
O992   C1032   1.304   .     S
S995   O996    1.503   .     D
S995   O997    1.504   .     D
S995   O998    1.682   .     S
O998   H999    0.991   .     S
S1000  O1003   1.682   .     S
S1000  O1002   1.493   .     D
S1000  O1001   1.502   .     D
O1003  H1004   0.991   .     S
S1005  O1007   1.503   .     D
S1005  O1008   1.680   .     S
S1005  O1006   1.506   .     D
O1008  H1009   0.991   .     S
S1010  O1013   1.684   .     S
S1010  O1011   1.497   .     D
S1010  O1012   1.503   .     D
O1013  H1014   0.991   .     S
C1015  O1067   1.303   .     A
C1015  C1026   1.442   .     S
C1015  O1143   1.291   .     S
C1016  C1025   1.437   .     S
C1016  O1068   1.301   .     A
C1017  C1046   1.406   .     A
C1017  H1055   1.079   .     S
C1017  C1019   1.394   .     A
C1018  H1056   1.083   .     S
C1018  C1045   1.406   .     A
C1018  C318    1.395   1_556 S
C1019  H1049   1.084   .     S
C1020  C1044   1.402   .     A
C1021  H1057   1.077   .     S
C1021  C1026   1.397   .     A
C1022  H1058   1.082   .     S
C1022  C1025   1.397   .     A
C1022  C1258   1.388   .     S
C1023  H1059   1.083   .     S
C1023  C1255   1.384   .     S
C1023  C1103   1.396   .     S
C1024  H1060   1.083   .     S
C1026  C1102   1.399   .     S
C1027  S1083   1.788   .     S
C1027  C1029   1.415   .     A
C1027  N1064   1.407   .     A
C1028  S1088   1.781   .     S
C1028  N1063   1.405   .     A
C1028  C1030   1.414   .     A
C1029  H1061   1.079   .     S
C1029  N1063   1.344   .     A
C1030  H1062   1.080   .     S
C1030  N1064   1.345   .     A
C1031  C1033   1.490   .     S
C1031  O1071   1.301   .     A
C1031  O1147   1.317   .     S
C1032  O1072   1.298   .     A
C1032  C1034   1.461   .     S
C1033  C1037   1.408   .     A
C1033  C1039   1.441   .     A
C1034  C1038   1.400   .     A
C1034  C1040   1.405   .     A
C1035  C1037   1.386   .     A
C1035  C1043   1.391   .     A
C1035  H1053   1.084   .     S
C1036  H1054   1.084   .     S
C1036  C1038   1.391   .     A
C1036  C1044   1.400   .     A
C1037  H1130   1.084   .     S
C1039  S1078   1.811   .     S
C1039  C1041   1.428   .     A
C1040  S1073   1.786   .     S
C1040  C1042   1.420   .     A
C1041  C1043   1.417   .     A
C1041  C1045   1.413   .     A
C1042  C1046   1.415   .     A
C1042  C1044   1.422   .     A
C1043  C317    1.402   1_556 S
C1045  C344    1.406   1_556 S
Cu1047 O1069   1.943   .     S
Cu1047 O1072   1.946   .     S
Cu1047 N1063   2.032   .     S
Cu1047 O1065   1.940   .     S
Cu1047 O1068   1.960   .     S
Cu1048 O1070   1.943   .     S
Cu1048 O1071   1.946   .     S
Cu1048 N1064   2.032   .     S
Cu1048 O1066   1.940   .     S
Cu1048 O1067   1.960   .     S
Cu1048 Cu1125  2.704   .     S
H1050  C318    1.084   1_556 S
H1051  C1116   1.084   .     S
O1066  C1094   1.292   .     S
O1070  C1110   1.304   .     S
S1073  O1074   1.503   .     D
S1073  O1075   1.504   .     D
S1073  O1076   1.682   .     S
O1076  H1077   0.991   .     S
S1078  O1081   1.682   .     S
S1078  O1080   1.493   .     D
S1078  O1079   1.502   .     D
O1081  H1082   0.991   .     S
S1083  O1085   1.503   .     D
S1083  O1086   1.680   .     S
S1083  O1084   1.506   .     D
O1086  H1087   0.991   .     S
S1088  O1091   1.684   .     S
S1088  O1089   1.497   .     D
S1088  O1090   1.503   .     D
O1091  H1092   0.991   .     S
C1093  O1145   1.303   .     A
C1093  C1104   1.442   .     S
C1093  O987    1.291   1_655 S
C1094  C1103   1.437   .     S
C1094  O1146   1.301   .     A
C1095  C1124   1.406   .     A
C1095  H1133   1.079   .     S
C1095  C1097   1.394   .     A
C1096  H1134   1.083   .     S
C1096  C1123   1.406   .     A
C1096  C396    1.395   1_556 S
C1097  H1127   1.084   .     S
C1098  C1122   1.402   .     A
C1099  H1135   1.077   .     S
C1099  C1104   1.397   .     A
C1100  H1136   1.082   .     S
C1100  C1103   1.397   .     A
C1100  C1336   1.388   .     S
C1101  H1137   1.083   .     S
C1101  C1333   1.384   .     S
C1101  C947    1.396   1_655 S
C1102  H1138   1.083   .     S
C1104  C946    1.399   1_655 S
C1105  S1161   1.788   .     S
C1105  C1107   1.415   .     A
C1105  N1142   1.407   .     A
C1106  S1166   1.781   .     S
C1106  N1141   1.405   .     A
C1106  C1108   1.414   .     A
C1107  H1139   1.079   .     S
C1107  N1141   1.344   .     A
C1108  H1140   1.080   .     S
C1108  N1142   1.345   .     A
C1109  C1111   1.490   .     S
C1109  O1149   1.301   .     A
C1109  O991    1.317   1_655 S
C1110  O1150   1.298   .     A
C1110  C1112   1.461   .     S
C1111  C1115   1.408   .     A
C1111  C1117   1.441   .     A
C1112  C1116   1.400   .     A
C1112  C1118   1.405   .     A
C1113  C1115   1.386   .     A
C1113  C1121   1.391   .     A
C1113  H1131   1.084   .     S
C1114  H1132   1.084   .     S
C1114  C1116   1.391   .     A
C1114  C1122   1.400   .     A
C1115  H974    1.084   1_655 S
C1117  S1156   1.811   .     S
C1117  C1119   1.428   .     A
C1118  S1151   1.786   .     S
C1118  C1120   1.420   .     A
C1119  C1121   1.417   .     A
C1119  C1123   1.413   .     A
C1120  C1124   1.415   .     A
C1120  C1122   1.422   .     A
C1121  C395    1.402   1_556 S
C1123  C422    1.406   1_556 S
Cu1125 O1147   1.943   .     S
Cu1125 O1150   1.946   .     S
Cu1125 N1141   2.032   .     S
Cu1125 O1143   1.940   .     S
Cu1125 O1146   1.960   .     S
Cu1126 O1148   1.943   .     S
Cu1126 O1149   1.946   .     S
Cu1126 N1142   2.032   .     S
Cu1126 O1144   1.940   .     S
Cu1126 O1145   1.960   .     S
Cu1126 Cu969   2.704   1_655 S
H1128  C396    1.084   1_556 S
H1129  C960    1.084   1_655 S
O1144  C938    1.292   1_655 S
O1148  C954    1.304   1_655 S
S1151  O1152   1.503   .     D
S1151  O1153   1.504   .     D
S1151  O1154   1.682   .     S
O1154  H1155   0.991   .     S
S1156  O1159   1.682   .     S
S1156  O1158   1.493   .     D
S1156  O1157   1.502   .     D
O1159  H1160   0.991   .     S
S1161  O1163   1.503   .     D
S1161  O1164   1.680   .     S
S1161  O1162   1.506   .     D
O1164  H1165   0.991   .     S
S1166  O1169   1.684   .     S
S1166  O1167   1.497   .     D
S1166  O1168   1.503   .     D
O1169  H1170   0.991   .     S
C1171  O1223   1.303   .     A
C1171  C1182   1.442   .     S
C1171  O1299   1.291   .     S
C1172  C1181   1.437   .     S
C1172  O1224   1.301   .     A
C1172  O1378   1.292   1_455 S
C1173  C1202   1.406   .     A
C1173  H1211   1.079   .     S
C1173  C1175   1.394   .     A
C1174  H1212   1.083   .     S
C1174  C1201   1.406   .     A
C1174  C474    1.395   1_556 S
C1175  H1205   1.084   .     S
C1176  C1200   1.402   .     A
C1177  H1213   1.077   .     S
C1177  C1182   1.397   .     A
C1178  H1214   1.082   .     S
C1178  C1181   1.397   .     A
C1178  C712    1.388   1_565 S
C1179  H1215   1.083   .     S
C1179  C709    1.384   1_565 S
C1179  C1259   1.396   .     S
C1180  H1216   1.083   .     S
C1180  C1338   1.399   1_455 S
C1181  C1335   1.396   1_455 S
C1182  C1258   1.399   .     S
C1183  S1239   1.788   .     S
C1183  C1185   1.415   .     A
C1183  N1220   1.407   .     A
C1184  S1244   1.781   .     S
C1184  N1219   1.405   .     A
C1184  C1186   1.414   .     A
C1185  H1217   1.079   .     S
C1185  N1219   1.344   .     A
C1186  H1218   1.080   .     S
C1186  N1220   1.345   .     A
C1187  C1189   1.490   .     S
C1187  O1227   1.301   .     A
C1187  O1303   1.317   .     S
C1188  O1228   1.298   .     A
C1188  C1190   1.461   .     S
C1188  O1382   1.304   1_455 S
C1189  C1193   1.408   .     A
C1189  C1195   1.441   .     A
C1190  C1194   1.400   .     A
C1190  C1196   1.405   .     A
C1191  C1193   1.386   .     A
C1191  C1199   1.391   .     A
C1191  H1209   1.084   .     S
C1192  H1210   1.084   .     S
C1192  C1194   1.391   .     A
C1192  C1200   1.400   .     A
C1193  H1286   1.084   .     S
C1194  H1363   1.084   1_455 S
C1195  S1234   1.811   .     S
C1195  C1197   1.428   .     A
C1196  S1229   1.786   .     S
C1196  C1198   1.420   .     A
C1197  C1199   1.417   .     A
C1197  C1201   1.413   .     A
C1198  C1202   1.415   .     A
C1198  C1200   1.422   .     A
C1199  C473    1.402   1_556 S
C1201  C500    1.406   1_556 S
Cu1203 O1225   1.943   .     S
Cu1203 O1228   1.946   .     S
Cu1203 N1219   2.032   .     S
Cu1203 O1221   1.940   .     S
Cu1203 O1224   1.960   .     S
Cu1203 Cu1360  2.704   1_455 S
Cu1204 O1226   1.943   .     S
Cu1204 O1227   1.946   .     S
Cu1204 N1220   2.032   .     S
Cu1204 O1222   1.940   .     S
Cu1204 O1223   1.960   .     S
Cu1204 Cu1281  2.704   .     S
H1206  C474    1.084   1_556 S
H1207  C1272   1.084   .     S
H1208  C1349   1.084   1_455 S
O1221  C1327   1.291   1_455 S
O1222  C1250   1.292   .     S
O1225  C1343   1.317   1_455 S
O1226  C1266   1.304   .     S
S1229  O1230   1.503   .     D
S1229  O1231   1.504   .     D
S1229  O1232   1.682   .     S
O1232  H1233   0.991   .     S
S1234  O1237   1.682   .     S
S1234  O1236   1.493   .     D
S1234  O1235   1.502   .     D
O1237  H1238   0.991   .     S
S1239  O1241   1.503   .     D
S1239  O1242   1.680   .     S
S1239  O1240   1.506   .     D
O1242  H1243   0.991   .     S
S1244  O1247   1.684   .     S
S1244  O1245   1.497   .     D
S1244  O1246   1.503   .     D
O1247  H1248   0.991   .     S
C1249  O1301   1.303   .     A
C1249  C1260   1.442   .     S
C1249  O1377   1.291   .     S
C1250  C1259   1.437   .     S
C1250  O1302   1.301   .     A
C1251  C1280   1.406   .     A
C1251  H1289   1.079   .     S
C1251  C1253   1.394   .     A
C1252  H1290   1.083   .     S
C1252  C1279   1.406   .     A
C1252  C552    1.395   1_556 S
C1253  H1283   1.084   .     S
C1254  C1278   1.402   .     A
C1255  H1291   1.077   .     S
C1255  C1260   1.397   .     A
C1256  H1292   1.082   .     S
C1256  C1259   1.397   .     A
C1256  C790    1.388   1_565 S
C1257  H1293   1.083   .     S
C1257  C787    1.384   1_565 S
C1257  C1337   1.396   .     S
C1258  H1294   1.083   .     S
C1260  C1336   1.399   .     S
C1261  S1317   1.788   .     S
C1261  C1263   1.415   .     A
C1261  N1298   1.407   .     A
C1262  S1322   1.781   .     S
C1262  N1297   1.405   .     A
C1262  C1264   1.414   .     A
C1263  H1295   1.079   .     S
C1263  N1297   1.344   .     A
C1264  H1296   1.080   .     S
C1264  N1298   1.345   .     A
C1265  C1267   1.490   .     S
C1265  O1305   1.301   .     A
C1265  O1381   1.317   .     S
C1266  O1306   1.298   .     A
C1266  C1268   1.461   .     S
C1267  C1271   1.408   .     A
C1267  C1273   1.441   .     A
C1268  C1272   1.400   .     A
C1268  C1274   1.405   .     A
C1269  C1271   1.386   .     A
C1269  C1277   1.391   .     A
C1269  H1287   1.084   .     S
C1270  H1288   1.084   .     S
C1270  C1272   1.391   .     A
C1270  C1278   1.400   .     A
C1271  H1364   1.084   .     S
C1273  S1312   1.811   .     S
C1273  C1275   1.428   .     A
C1274  S1307   1.786   .     S
C1274  C1276   1.420   .     A
C1275  C1277   1.417   .     A
C1275  C1279   1.413   .     A
C1276  C1280   1.415   .     A
C1276  C1278   1.422   .     A
C1277  C551    1.402   1_556 S
C1279  C578    1.406   1_556 S
Cu1281 O1303   1.943   .     S
Cu1281 O1306   1.946   .     S
Cu1281 N1297   2.032   .     S
Cu1281 O1299   1.940   .     S
Cu1281 O1302   1.960   .     S
Cu1282 O1304   1.943   .     S
Cu1282 O1305   1.946   .     S
Cu1282 N1298   2.032   .     S
Cu1282 O1300   1.940   .     S
Cu1282 O1301   1.960   .     S
Cu1282 Cu1359  2.704   .     S
H1284  C552    1.084   1_556 S
H1285  C1350   1.084   .     S
O1300  C1328   1.292   .     S
O1304  C1344   1.304   .     S
S1307  O1308   1.503   .     D
S1307  O1309   1.504   .     D
S1307  O1310   1.682   .     S
O1310  H1311   0.991   .     S
S1312  O1315   1.682   .     S
S1312  O1314   1.493   .     D
S1312  O1313   1.502   .     D
O1315  H1316   0.991   .     S
S1317  O1319   1.503   .     D
S1317  O1320   1.680   .     S
S1317  O1318   1.506   .     D
O1320  H1321   0.991   .     S
S1322  O1325   1.684   .     S
S1322  O1323   1.497   .     D
S1322  O1324   1.503   .     D
O1325  H1326   0.991   .     S
C1327  O1379   1.303   .     A
C1327  C1338   1.442   .     S
C1327  O1221   1.291   1_655 S
C1328  C1337   1.437   .     S
C1328  O1380   1.301   .     A
C1329  C1358   1.406   .     A
C1329  H1367   1.079   .     S
C1329  C1331   1.394   .     A
C1330  H1368   1.083   .     S
C1330  C1357   1.406   .     A
C1330  C630    1.395   1_556 S
C1331  H1361   1.084   .     S
C1332  C1356   1.402   .     A
C1333  H1369   1.077   .     S
C1333  C1338   1.397   .     A
C1334  H1370   1.082   .     S
C1334  C1337   1.397   .     A
C1334  C868    1.388   1_565 S
C1335  H1371   1.083   .     S
C1335  C865    1.384   1_565 S
C1335  C1181   1.396   1_655 S
C1336  H1372   1.083   .     S
C1338  C1180   1.399   1_655 S
C1339  S1395   1.788   .     S
C1339  C1341   1.415   .     A
C1339  N1376   1.407   .     A
C1340  S1400   1.781   .     S
C1340  N1375   1.405   .     A
C1340  C1342   1.414   .     A
C1341  H1373   1.079   .     S
C1341  N1375   1.344   .     A
C1342  H1374   1.080   .     S
C1342  N1376   1.345   .     A
C1343  C1345   1.490   .     S
C1343  O1383   1.301   .     A
C1343  O1225   1.317   1_655 S
C1344  O1384   1.298   .     A
C1344  C1346   1.461   .     S
C1345  C1349   1.408   .     A
C1345  C1351   1.441   .     A
C1346  C1350   1.400   .     A
C1346  C1352   1.405   .     A
C1347  C1349   1.386   .     A
C1347  C1355   1.391   .     A
C1347  H1365   1.084   .     S
C1348  H1366   1.084   .     S
C1348  C1350   1.391   .     A
C1348  C1356   1.400   .     A
C1349  H1208   1.084   1_655 S
C1351  S1390   1.811   .     S
C1351  C1353   1.428   .     A
C1352  S1385   1.786   .     S
C1352  C1354   1.420   .     A
C1353  C1355   1.417   .     A
C1353  C1357   1.413   .     A
C1354  C1358   1.415   .     A
C1354  C1356   1.422   .     A
C1355  C629    1.402   1_556 S
C1357  C656    1.406   1_556 S
Cu1359 O1381   1.943   .     S
Cu1359 O1384   1.946   .     S
Cu1359 N1375   2.032   .     S
Cu1359 O1377   1.940   .     S
Cu1359 O1380   1.960   .     S
Cu1360 O1382   1.943   .     S
Cu1360 O1383   1.946   .     S
Cu1360 N1376   2.032   .     S
Cu1360 O1378   1.940   .     S
Cu1360 O1379   1.960   .     S
Cu1360 Cu1203  2.704   1_655 S
H1362  C630    1.084   1_556 S
H1363  C1194   1.084   1_655 S
O1378  C1172   1.292   1_655 S
O1382  C1188   1.304   1_655 S
S1385  O1386   1.503   .     D
S1385  O1387   1.504   .     D
S1385  O1388   1.682   .     S
O1388  H1389   0.991   .     S
S1390  O1393   1.682   .     S
S1390  O1392   1.493   .     D
S1390  O1391   1.502   .     D
O1393  H1394   0.991   .     S
S1395  O1397   1.503   .     D
S1395  O1398   1.680   .     S
S1395  O1396   1.506   .     D
O1398  H1399   0.991   .     S
S1400  O1403   1.684   .     S
S1400  O1401   1.497   .     D
S1400  O1402   1.503   .     D
O1403  H1404   0.991   .     S
