data_str_m2_o2_o10_pcu_sym.159
_audit_creation_date              2020-01-03
_audit_creation_method            'Materials Studio'
_symmetry_space_group_name_H-M    'P1'
_symmetry_Int_Tables_number       1
_symmetry_cell_setting            triclinic
loop_
_symmetry_equiv_pos_as_xyz
  x,y,z
_cell_length_a                    26.1091
_cell_length_b                    30.2659
_cell_length_c                    27.7916
_cell_angle_alpha                 88.8904
_cell_angle_beta                  98.5113
_cell_angle_gamma                 90.7832
loop_
_atom_site_label
_atom_site_type_symbol
_atom_site_fract_x
_atom_site_fract_y
_atom_site_fract_z
_atom_site_U_iso_or_equiv
_atom_site_adp_type
_atom_site_occupancy
C1     C     0.16734   0.16468   0.25073   0.00000  Uiso   1.00
C2     C     0.16529   0.33484   0.24931   0.00000  Uiso   1.00
C3     C     0.20982   0.26588   0.05971   0.00000  Uiso   1.00
C4     C     0.13415   0.22123   0.44186   0.00000  Uiso   1.00
C5     C     0.20835   0.26645   0.11014   0.00000  Uiso   1.00
C6     C     0.13390   0.22255   0.39123   0.00000  Uiso   1.00
C7     C     0.12548   0.23240   0.09894   0.00000  Uiso   1.00
C8     C     0.20018   0.27722   0.39927   0.00000  Uiso   1.00
C9     C     0.12453   0.23377   0.04799   0.00000  Uiso   1.00
C10    C     0.19901   0.27866   0.44997   0.00000  Uiso   1.00
C11    C     0.16721   0.24977   0.02725   0.00000  Uiso   1.00
C12    C     0.16682   0.24980   0.47255   0.00000  Uiso   1.00
C13    C     0.06786   0.24982   0.23743   0.00000  Uiso   1.00
C14    C     0.26548   0.24983   0.26255   0.00000  Uiso   1.00
C15    C     0.01242   0.24980   0.23054   0.00000  Uiso   1.00
C16    C     0.32092   0.24931   0.26933   0.00000  Uiso   1.00
C17    C     0.15761   0.04488   0.29337   0.00000  Uiso   1.00
C18    C     0.12245   0.45094   0.21426   0.00000  Uiso   1.00
C19    C     0.16632   0.09064   0.29561   0.00000  Uiso   1.00
C20    C     0.12508   0.40471   0.21390   0.00000  Uiso   1.00
C21    C     0.16596   0.11588   0.25188   0.00000  Uiso   1.00
C22    C     0.16233   0.38273   0.24759   0.00000  Uiso   1.00
C23    C     0.16255   0.09378   0.20754   0.00000  Uiso   1.00
C24    C     0.19719   0.40672   0.28040   0.00000  Uiso   1.00
C25    C     0.15922   0.04807   0.20610   0.00000  Uiso   1.00
C26    C     0.19579   0.45245   0.27965   0.00000  Uiso   1.00
C27    C     0.15714   0.02331   0.24871   0.00000  Uiso   1.00
C28    C     0.15850   0.47489   0.24702   0.00000  Uiso   1.00
Cu29   Cu    0.16667   0.25000   0.29822   0.00000  Uiso   1.00
Cu30   Cu    0.16667   0.25001   0.20179   0.00000  Uiso   1.00
H31    H     0.32539   0.25039   0.19347   0.00000  Uiso   1.00
H32    H     0.00808   0.24845   0.30633   0.00000  Uiso   1.00
H33    H     0.16348   0.11177   0.17367   0.00000  Uiso   1.00
H34    H     0.22612   0.38998   0.30613   0.00000  Uiso   1.00
H35    H     0.15894   0.03195   0.17162   0.00000  Uiso   1.00
H36    H     0.22401   0.47047   0.30461   0.00000  Uiso   1.00
H37    H     0.24457   0.27787   0.04674   0.00000  Uiso   1.00
H38    H     0.10902   0.19743   0.45642   0.00000  Uiso   1.00
H39    H     0.24111   0.28001   0.13384   0.00000  Uiso   1.00
H40    H     0.10790   0.20092   0.36835   0.00000  Uiso   1.00
H41    H     0.08967   0.22305   0.02510   0.00000  Uiso   1.00
H42    H     0.22310   0.30274   0.47108   0.00000  Uiso   1.00
N43    N     0.16667   0.25001   0.12935   0.00000  Uiso   1.00
N44    N     0.16667   0.24999   0.37066   0.00000  Uiso   1.00
O45    O     0.16667   0.18573   0.29072   0.00000  Uiso   1.00
O46    O     0.16666   0.31428   0.20929   0.00000  Uiso   1.00
O47    O     0.16667   0.18573   0.20928   0.00000  Uiso   1.00
O48    O     0.16666   0.31427   0.29072   0.00000  Uiso   1.00
O49    O     0.09161   0.25000   0.28132   0.00000  Uiso   1.00
O50    O     0.24172   0.25001   0.21868   0.00000  Uiso   1.00
O51    O     0.09161   0.25000   0.19989   0.00000  Uiso   1.00
O52    O     0.24172   0.25000   0.30012   0.00000  Uiso   1.00
O53    O     0.15391   0.02146   0.33623   0.00000  Uiso   1.00
C54    C     0.10281   0.00493   0.33640   0.00000  Uiso   1.00
H55    H     0.10388   0.48175   0.36800   0.00000  Uiso   1.00
H56    H     0.08890   0.48509   0.30388   0.00000  Uiso   1.00
C57    C     0.06411   0.04165   0.34208   0.00000  Uiso   1.00
H58    H     0.07683   0.05929   0.37655   0.00000  Uiso   1.00
H59    H     0.06245   0.06582   0.31131   0.00000  Uiso   1.00
C60    C     0.00972   0.02266   0.34270   0.00000  Uiso   1.00
H61    H     0.32918   0.00567   0.30803   0.00000  Uiso   1.00
H62    H     0.31598   0.04982   0.34694   0.00000  Uiso   1.00
H63    H     0.00959   0.49881   0.37357   0.00000  Uiso   1.00
O64    O     0.08528   0.47232   0.18164   0.00000  Uiso   1.00
C65    C     0.04201   0.48160   0.20482   0.00000  Uiso   1.00
H66    H     0.04863   0.01359   0.22391   0.00000  Uiso   1.00
H67    H     0.03419   0.45518   0.23152   0.00000  Uiso   1.00
C68    C     0.32728   0.48540   0.16635   0.00000  Uiso   1.00
H69    H     0.00065   0.01087   0.13862   0.00000  Uiso   1.00
H70    H     0.31979   0.45328   0.14773   0.00000  Uiso   1.00
C71    C     0.27975   0.49759   0.18907   0.00000  Uiso   1.00
H72    H     0.27187   0.47188   0.21613   0.00000  Uiso   1.00
H73    H     0.24556   0.49984   0.16023   0.00000  Uiso   1.00
H74    H     0.28580   0.03000   0.20726   0.00000  Uiso   1.00
I75    I     0.18406   0.11649   0.36742   0.00000  Uiso   1.00
I76    I     0.06920   0.36957   0.16451   0.00000  Uiso   1.00
O77    O     0.08262   0.21691   0.11806   0.00000  Uiso   1.00
C78    C     0.07363   0.17169   0.10792   0.00000  Uiso   1.00
H79    H     0.11043   0.15283   0.11111   0.00000  Uiso   1.00
H80    H     0.05201   0.16811   0.07057   0.00000  Uiso   1.00
C81    C     0.04071   0.15222   0.14445   0.00000  Uiso   1.00
H82    H     0.06195   0.15558   0.18194   0.00000  Uiso   1.00
H83    H     0.00399   0.17088   0.14192   0.00000  Uiso   1.00
C84    C     0.02796   0.10356   0.13514   0.00000  Uiso   1.00
H85    H     0.00516   0.09946   0.09843   0.00000  Uiso   1.00
H86    H     0.00466   0.09070   0.16279   0.00000  Uiso   1.00
H87    H     0.06401   0.08404   0.13786   0.00000  Uiso   1.00
O88    O     0.23222   0.30575   0.37752   0.00000  Uiso   1.00
C89    C     0.28507   0.29959   0.39712   0.00000  Uiso   1.00
H90    H     0.30606   0.29055   0.36691   0.00000  Uiso   1.00
H91    H     0.29227   0.27243   0.42501   0.00000  Uiso   1.00
C92    C     0.30846   0.34290   0.41830   0.00000  Uiso   1.00
H93    H     0.30358   0.36922   0.38958   0.00000  Uiso   1.00
H94    H     0.28793   0.35312   0.44846   0.00000  Uiso   1.00
C95    C     0.03271   0.33797   0.43754   0.00000  Uiso   1.00
H96    H     0.03848   0.31241   0.46702   0.00000  Uiso   1.00
H97    H     0.04866   0.36991   0.45245   0.00000  Uiso   1.00
H98    H     0.05425   0.32846   0.40778   0.00000  Uiso   1.00
C99    C     0.50067   0.16468   0.25073   0.00000  Uiso   1.00
C100   C     0.49862   0.33484   0.24931   0.00000  Uiso   1.00
C101   C     0.54315   0.26588   0.05971   0.00000  Uiso   1.00
C102   C     0.46748   0.22123   0.44186   0.00000  Uiso   1.00
C103   C     0.54168   0.26645   0.11014   0.00000  Uiso   1.00
C104   C     0.46724   0.22255   0.39123   0.00000  Uiso   1.00
C105   C     0.45881   0.23240   0.09894   0.00000  Uiso   1.00
C106   C     0.53351   0.27722   0.39927   0.00000  Uiso   1.00
C107   C     0.45786   0.23377   0.04799   0.00000  Uiso   1.00
C108   C     0.53235   0.27866   0.44997   0.00000  Uiso   1.00
C109   C     0.50054   0.24977   0.02725   0.00000  Uiso   1.00
C110   C     0.50015   0.24980   0.47255   0.00000  Uiso   1.00
C111   C     0.40119   0.24982   0.23743   0.00000  Uiso   1.00
C112   C     0.59882   0.24983   0.26255   0.00000  Uiso   1.00
C113   C     0.34576   0.24980   0.23054   0.00000  Uiso   1.00
C114   C     0.65426   0.24931   0.26933   0.00000  Uiso   1.00
C115   C     0.49094   0.04488   0.29337   0.00000  Uiso   1.00
C116   C     0.45579   0.45094   0.21426   0.00000  Uiso   1.00
C117   C     0.49965   0.09064   0.29561   0.00000  Uiso   1.00
C118   C     0.45841   0.40471   0.21390   0.00000  Uiso   1.00
C119   C     0.49929   0.11588   0.25188   0.00000  Uiso   1.00
C120   C     0.49566   0.38273   0.24759   0.00000  Uiso   1.00
C121   C     0.49588   0.09378   0.20754   0.00000  Uiso   1.00
C122   C     0.53053   0.40672   0.28040   0.00000  Uiso   1.00
C123   C     0.49255   0.04807   0.20610   0.00000  Uiso   1.00
C124   C     0.52913   0.45245   0.27965   0.00000  Uiso   1.00
C125   C     0.49047   0.02331   0.24871   0.00000  Uiso   1.00
C126   C     0.49183   0.47489   0.24702   0.00000  Uiso   1.00
Cu127  Cu    0.50000   0.25000   0.29822   0.00000  Uiso   1.00
Cu128  Cu    0.50000   0.25001   0.20179   0.00000  Uiso   1.00
H129   H     0.65872   0.25039   0.19347   0.00000  Uiso   1.00
H130   H     0.34141   0.24845   0.30633   0.00000  Uiso   1.00
H131   H     0.49682   0.11177   0.17367   0.00000  Uiso   1.00
H132   H     0.55946   0.38998   0.30613   0.00000  Uiso   1.00
H133   H     0.49228   0.03195   0.17162   0.00000  Uiso   1.00
H134   H     0.55735   0.47047   0.30461   0.00000  Uiso   1.00
H135   H     0.57791   0.27787   0.04674   0.00000  Uiso   1.00
H136   H     0.44235   0.19743   0.45642   0.00000  Uiso   1.00
H137   H     0.57444   0.28001   0.13384   0.00000  Uiso   1.00
H138   H     0.44123   0.20092   0.36835   0.00000  Uiso   1.00
H139   H     0.42301   0.22305   0.02510   0.00000  Uiso   1.00
H140   H     0.55643   0.30274   0.47108   0.00000  Uiso   1.00
N141   N     0.50000   0.25001   0.12935   0.00000  Uiso   1.00
N142   N     0.50000   0.24999   0.37066   0.00000  Uiso   1.00
O143   O     0.50000   0.18573   0.29072   0.00000  Uiso   1.00
O144   O     0.50000   0.31428   0.20929   0.00000  Uiso   1.00
O145   O     0.50000   0.18573   0.20928   0.00000  Uiso   1.00
O146   O     0.50000   0.31427   0.29072   0.00000  Uiso   1.00
O147   O     0.42495   0.25000   0.28132   0.00000  Uiso   1.00
O148   O     0.57505   0.25001   0.21868   0.00000  Uiso   1.00
O149   O     0.42495   0.25000   0.19989   0.00000  Uiso   1.00
O150   O     0.57505   0.25000   0.30012   0.00000  Uiso   1.00
O151   O     0.48724   0.02146   0.33623   0.00000  Uiso   1.00
C152   C     0.43614   0.00493   0.33640   0.00000  Uiso   1.00
H153   H     0.43721   0.48175   0.36800   0.00000  Uiso   1.00
H154   H     0.42223   0.48509   0.30388   0.00000  Uiso   1.00
C155   C     0.39745   0.04165   0.34208   0.00000  Uiso   1.00
H156   H     0.41016   0.05929   0.37655   0.00000  Uiso   1.00
H157   H     0.39579   0.06582   0.31131   0.00000  Uiso   1.00
C158   C     0.34305   0.02266   0.34270   0.00000  Uiso   1.00
H159   H     0.66251   0.00567   0.30803   0.00000  Uiso   1.00
H160   H     0.64931   0.04982   0.34694   0.00000  Uiso   1.00
H161   H     0.34292   0.49881   0.37357   0.00000  Uiso   1.00
O162   O     0.41861   0.47232   0.18164   0.00000  Uiso   1.00
C163   C     0.37534   0.48160   0.20482   0.00000  Uiso   1.00
H164   H     0.38197   0.01359   0.22391   0.00000  Uiso   1.00
H165   H     0.36752   0.45518   0.23152   0.00000  Uiso   1.00
C166   C     0.66061   0.48540   0.16635   0.00000  Uiso   1.00
H167   H     0.33398   0.01087   0.13862   0.00000  Uiso   1.00
H168   H     0.65313   0.45328   0.14773   0.00000  Uiso   1.00
C169   C     0.61309   0.49759   0.18907   0.00000  Uiso   1.00
H170   H     0.60521   0.47188   0.21613   0.00000  Uiso   1.00
H171   H     0.57889   0.49984   0.16023   0.00000  Uiso   1.00
H172   H     0.61913   0.03000   0.20726   0.00000  Uiso   1.00
I173   I     0.51740   0.11649   0.36742   0.00000  Uiso   1.00
I174   I     0.40254   0.36957   0.16451   0.00000  Uiso   1.00
O175   O     0.41596   0.21691   0.11806   0.00000  Uiso   1.00
C176   C     0.40696   0.17169   0.10792   0.00000  Uiso   1.00
H177   H     0.44376   0.15283   0.11111   0.00000  Uiso   1.00
H178   H     0.38535   0.16811   0.07057   0.00000  Uiso   1.00
C179   C     0.37404   0.15222   0.14445   0.00000  Uiso   1.00
H180   H     0.39529   0.15558   0.18194   0.00000  Uiso   1.00
H181   H     0.33732   0.17088   0.14192   0.00000  Uiso   1.00
C182   C     0.36130   0.10356   0.13514   0.00000  Uiso   1.00
H183   H     0.33849   0.09946   0.09843   0.00000  Uiso   1.00
H184   H     0.33799   0.09070   0.16279   0.00000  Uiso   1.00
H185   H     0.39735   0.08404   0.13786   0.00000  Uiso   1.00
O186   O     0.56556   0.30575   0.37752   0.00000  Uiso   1.00
C187   C     0.61841   0.29959   0.39712   0.00000  Uiso   1.00
H188   H     0.63939   0.29055   0.36691   0.00000  Uiso   1.00
H189   H     0.62560   0.27243   0.42501   0.00000  Uiso   1.00
C190   C     0.64180   0.34290   0.41830   0.00000  Uiso   1.00
H191   H     0.63692   0.36922   0.38958   0.00000  Uiso   1.00
H192   H     0.62127   0.35312   0.44846   0.00000  Uiso   1.00
C193   C     0.36604   0.33797   0.43754   0.00000  Uiso   1.00
H194   H     0.37181   0.31241   0.46702   0.00000  Uiso   1.00
H195   H     0.38199   0.36991   0.45245   0.00000  Uiso   1.00
H196   H     0.38758   0.32846   0.40778   0.00000  Uiso   1.00
C197   C     0.83401   0.16468   0.25073   0.00000  Uiso   1.00
C198   C     0.83195   0.33484   0.24931   0.00000  Uiso   1.00
C199   C     0.87648   0.26588   0.05971   0.00000  Uiso   1.00
C200   C     0.80081   0.22123   0.44186   0.00000  Uiso   1.00
C201   C     0.87502   0.26645   0.11014   0.00000  Uiso   1.00
C202   C     0.80057   0.22255   0.39123   0.00000  Uiso   1.00
C203   C     0.79215   0.23240   0.09894   0.00000  Uiso   1.00
C204   C     0.86685   0.27722   0.39927   0.00000  Uiso   1.00
C205   C     0.79120   0.23377   0.04799   0.00000  Uiso   1.00
C206   C     0.86568   0.27866   0.44997   0.00000  Uiso   1.00
C207   C     0.83387   0.24977   0.02725   0.00000  Uiso   1.00
C208   C     0.83348   0.24980   0.47255   0.00000  Uiso   1.00
C209   C     0.73452   0.24982   0.23743   0.00000  Uiso   1.00
C210   C     0.93215   0.24983   0.26255   0.00000  Uiso   1.00
C211   C     0.67909   0.24980   0.23054   0.00000  Uiso   1.00
C212   C     0.98759   0.24931   0.26933   0.00000  Uiso   1.00
C213   C     0.82428   0.04488   0.29337   0.00000  Uiso   1.00
C214   C     0.78912   0.45094   0.21426   0.00000  Uiso   1.00
C215   C     0.83298   0.09064   0.29561   0.00000  Uiso   1.00
C216   C     0.79175   0.40471   0.21390   0.00000  Uiso   1.00
C217   C     0.83263   0.11588   0.25188   0.00000  Uiso   1.00
C218   C     0.82900   0.38273   0.24759   0.00000  Uiso   1.00
C219   C     0.82922   0.09378   0.20754   0.00000  Uiso   1.00
C220   C     0.86386   0.40672   0.28040   0.00000  Uiso   1.00
C221   C     0.82588   0.04807   0.20610   0.00000  Uiso   1.00
C222   C     0.86246   0.45245   0.27965   0.00000  Uiso   1.00
C223   C     0.82380   0.02331   0.24871   0.00000  Uiso   1.00
C224   C     0.82517   0.47489   0.24702   0.00000  Uiso   1.00
Cu225  Cu    0.83333   0.25000   0.29822   0.00000  Uiso   1.00
Cu226  Cu    0.83333   0.25001   0.20179   0.00000  Uiso   1.00
H227   H     0.99206   0.25039   0.19347   0.00000  Uiso   1.00
H228   H     0.67475   0.24845   0.30633   0.00000  Uiso   1.00
H229   H     0.83015   0.11177   0.17367   0.00000  Uiso   1.00
H230   H     0.89279   0.38998   0.30613   0.00000  Uiso   1.00
H231   H     0.82561   0.03195   0.17162   0.00000  Uiso   1.00
H232   H     0.89068   0.47047   0.30461   0.00000  Uiso   1.00
H233   H     0.91124   0.27787   0.04674   0.00000  Uiso   1.00
H234   H     0.77568   0.19743   0.45642   0.00000  Uiso   1.00
H235   H     0.90777   0.28001   0.13384   0.00000  Uiso   1.00
H236   H     0.77457   0.20092   0.36835   0.00000  Uiso   1.00
H237   H     0.75634   0.22305   0.02510   0.00000  Uiso   1.00
H238   H     0.88977   0.30274   0.47108   0.00000  Uiso   1.00
N239   N     0.83333   0.25001   0.12935   0.00000  Uiso   1.00
N240   N     0.83333   0.24999   0.37066   0.00000  Uiso   1.00
O241   O     0.83334   0.18573   0.29072   0.00000  Uiso   1.00
O242   O     0.83333   0.31428   0.20929   0.00000  Uiso   1.00
O243   O     0.83334   0.18573   0.20928   0.00000  Uiso   1.00
O244   O     0.83333   0.31427   0.29072   0.00000  Uiso   1.00
O245   O     0.75828   0.25000   0.28132   0.00000  Uiso   1.00
O246   O     0.90839   0.25001   0.21868   0.00000  Uiso   1.00
O247   O     0.75828   0.25000   0.19989   0.00000  Uiso   1.00
O248   O     0.90839   0.25000   0.30012   0.00000  Uiso   1.00
O249   O     0.82058   0.02146   0.33623   0.00000  Uiso   1.00
C250   C     0.76947   0.00493   0.33640   0.00000  Uiso   1.00
H251   H     0.77055   0.48175   0.36800   0.00000  Uiso   1.00
H252   H     0.75557   0.48509   0.30388   0.00000  Uiso   1.00
C253   C     0.73078   0.04165   0.34208   0.00000  Uiso   1.00
H254   H     0.74349   0.05929   0.37655   0.00000  Uiso   1.00
H255   H     0.72912   0.06582   0.31131   0.00000  Uiso   1.00
C256   C     0.67639   0.02266   0.34270   0.00000  Uiso   1.00
H257   H     0.99584   0.00567   0.30803   0.00000  Uiso   1.00
H258   H     0.98265   0.04982   0.34694   0.00000  Uiso   1.00
H259   H     0.67626   0.49881   0.37357   0.00000  Uiso   1.00
O260   O     0.75194   0.47232   0.18164   0.00000  Uiso   1.00
C261   C     0.70868   0.48160   0.20482   0.00000  Uiso   1.00
H262   H     0.71530   0.01359   0.22391   0.00000  Uiso   1.00
H263   H     0.70085   0.45518   0.23152   0.00000  Uiso   1.00
C264   C     0.99394   0.48540   0.16635   0.00000  Uiso   1.00
H265   H     0.66731   0.01087   0.13862   0.00000  Uiso   1.00
H266   H     0.98646   0.45328   0.14773   0.00000  Uiso   1.00
C267   C     0.94642   0.49759   0.18907   0.00000  Uiso   1.00
H268   H     0.93854   0.47188   0.21613   0.00000  Uiso   1.00
H269   H     0.91223   0.49984   0.16023   0.00000  Uiso   1.00
H270   H     0.95247   0.03000   0.20726   0.00000  Uiso   1.00
I271   I     0.85073   0.11649   0.36742   0.00000  Uiso   1.00
I272   I     0.73587   0.36957   0.16451   0.00000  Uiso   1.00
O273   O     0.74929   0.21691   0.11806   0.00000  Uiso   1.00
C274   C     0.74029   0.17169   0.10792   0.00000  Uiso   1.00
H275   H     0.77709   0.15283   0.11111   0.00000  Uiso   1.00
H276   H     0.71868   0.16811   0.07057   0.00000  Uiso   1.00
C277   C     0.70738   0.15222   0.14445   0.00000  Uiso   1.00
H278   H     0.72862   0.15558   0.18194   0.00000  Uiso   1.00
H279   H     0.67066   0.17088   0.14192   0.00000  Uiso   1.00
C280   C     0.69463   0.10356   0.13514   0.00000  Uiso   1.00
H281   H     0.67182   0.09946   0.09843   0.00000  Uiso   1.00
H282   H     0.67133   0.09070   0.16279   0.00000  Uiso   1.00
H283   H     0.73068   0.08404   0.13786   0.00000  Uiso   1.00
O284   O     0.89889   0.30575   0.37752   0.00000  Uiso   1.00
C285   C     0.95174   0.29959   0.39712   0.00000  Uiso   1.00
H286   H     0.97273   0.29055   0.36691   0.00000  Uiso   1.00
H287   H     0.95894   0.27243   0.42501   0.00000  Uiso   1.00
C288   C     0.97513   0.34290   0.41830   0.00000  Uiso   1.00
H289   H     0.97025   0.36922   0.38958   0.00000  Uiso   1.00
H290   H     0.95460   0.35312   0.44846   0.00000  Uiso   1.00
C291   C     0.69938   0.33797   0.43754   0.00000  Uiso   1.00
H292   H     0.70514   0.31241   0.46702   0.00000  Uiso   1.00
H293   H     0.71532   0.36991   0.45245   0.00000  Uiso   1.00
H294   H     0.72092   0.32846   0.40778   0.00000  Uiso   1.00
C295   C     0.16734   0.66468   0.25073   0.00000  Uiso   1.00
C296   C     0.16529   0.83484   0.24931   0.00000  Uiso   1.00
C297   C     0.20982   0.76588   0.05971   0.00000  Uiso   1.00
C298   C     0.13415   0.72123   0.44186   0.00000  Uiso   1.00
C299   C     0.20835   0.76645   0.11014   0.00000  Uiso   1.00
C300   C     0.13390   0.72255   0.39123   0.00000  Uiso   1.00
C301   C     0.12548   0.73240   0.09894   0.00000  Uiso   1.00
C302   C     0.20018   0.77722   0.39927   0.00000  Uiso   1.00
C303   C     0.12453   0.73377   0.04799   0.00000  Uiso   1.00
C304   C     0.19901   0.77866   0.44997   0.00000  Uiso   1.00
C305   C     0.16721   0.74977   0.02725   0.00000  Uiso   1.00
C306   C     0.16682   0.74980   0.47255   0.00000  Uiso   1.00
C307   C     0.06786   0.74982   0.23743   0.00000  Uiso   1.00
C308   C     0.26548   0.74983   0.26255   0.00000  Uiso   1.00
C309   C     0.01242   0.74980   0.23054   0.00000  Uiso   1.00
C310   C     0.32092   0.74931   0.26933   0.00000  Uiso   1.00
C311   C     0.15761   0.54488   0.29337   0.00000  Uiso   1.00
C312   C     0.12245   0.95094   0.21426   0.00000  Uiso   1.00
C313   C     0.16632   0.59064   0.29561   0.00000  Uiso   1.00
C314   C     0.12508   0.90471   0.21390   0.00000  Uiso   1.00
C315   C     0.16596   0.61588   0.25188   0.00000  Uiso   1.00
C316   C     0.16233   0.88273   0.24759   0.00000  Uiso   1.00
C317   C     0.16255   0.59378   0.20754   0.00000  Uiso   1.00
C318   C     0.19719   0.90672   0.28040   0.00000  Uiso   1.00
C319   C     0.15922   0.54807   0.20610   0.00000  Uiso   1.00
C320   C     0.19579   0.95245   0.27965   0.00000  Uiso   1.00
C321   C     0.15714   0.52331   0.24871   0.00000  Uiso   1.00
C322   C     0.15850   0.97489   0.24702   0.00000  Uiso   1.00
Cu323  Cu    0.16667   0.75000   0.29822   0.00000  Uiso   1.00
Cu324  Cu    0.16667   0.75001   0.20179   0.00000  Uiso   1.00
H325   H     0.32539   0.75039   0.19347   0.00000  Uiso   1.00
H326   H     0.00808   0.74845   0.30633   0.00000  Uiso   1.00
H327   H     0.16348   0.61177   0.17367   0.00000  Uiso   1.00
H328   H     0.22612   0.88998   0.30613   0.00000  Uiso   1.00
H329   H     0.15894   0.53195   0.17162   0.00000  Uiso   1.00
H330   H     0.22401   0.97047   0.30461   0.00000  Uiso   1.00
H331   H     0.24457   0.77787   0.04674   0.00000  Uiso   1.00
H332   H     0.10902   0.69743   0.45642   0.00000  Uiso   1.00
H333   H     0.24111   0.78001   0.13384   0.00000  Uiso   1.00
H334   H     0.10790   0.70092   0.36835   0.00000  Uiso   1.00
H335   H     0.08967   0.72305   0.02510   0.00000  Uiso   1.00
H336   H     0.22310   0.80274   0.47108   0.00000  Uiso   1.00
N337   N     0.16667   0.75001   0.12935   0.00000  Uiso   1.00
N338   N     0.16667   0.74999   0.37066   0.00000  Uiso   1.00
O339   O     0.16667   0.68573   0.29072   0.00000  Uiso   1.00
O340   O     0.16666   0.81428   0.20929   0.00000  Uiso   1.00
O341   O     0.16667   0.68573   0.20928   0.00000  Uiso   1.00
O342   O     0.16666   0.81427   0.29072   0.00000  Uiso   1.00
O343   O     0.09161   0.75000   0.28132   0.00000  Uiso   1.00
O344   O     0.24172   0.75001   0.21868   0.00000  Uiso   1.00
O345   O     0.09161   0.75000   0.19989   0.00000  Uiso   1.00
O346   O     0.24172   0.75000   0.30012   0.00000  Uiso   1.00
O347   O     0.15391   0.52146   0.33623   0.00000  Uiso   1.00
C348   C     0.10281   0.50493   0.33640   0.00000  Uiso   1.00
H349   H     0.10388   0.98175   0.36800   0.00000  Uiso   1.00
H350   H     0.08890   0.98509   0.30388   0.00000  Uiso   1.00
C351   C     0.06411   0.54165   0.34208   0.00000  Uiso   1.00
H352   H     0.07683   0.55929   0.37655   0.00000  Uiso   1.00
H353   H     0.06245   0.56582   0.31131   0.00000  Uiso   1.00
C354   C     0.00972   0.52266   0.34270   0.00000  Uiso   1.00
H355   H     0.32918   0.50567   0.30803   0.00000  Uiso   1.00
H356   H     0.31598   0.54982   0.34694   0.00000  Uiso   1.00
H357   H     0.00959   0.99881   0.37357   0.00000  Uiso   1.00
O358   O     0.08528   0.97232   0.18164   0.00000  Uiso   1.00
C359   C     0.04201   0.98160   0.20482   0.00000  Uiso   1.00
H360   H     0.04863   0.51359   0.22391   0.00000  Uiso   1.00
H361   H     0.03419   0.95518   0.23152   0.00000  Uiso   1.00
C362   C     0.32728   0.98540   0.16635   0.00000  Uiso   1.00
H363   H     0.00065   0.51087   0.13862   0.00000  Uiso   1.00
H364   H     0.31979   0.95328   0.14773   0.00000  Uiso   1.00
C365   C     0.27975   0.99759   0.18907   0.00000  Uiso   1.00
H366   H     0.27187   0.97188   0.21613   0.00000  Uiso   1.00
H367   H     0.24556   0.99984   0.16023   0.00000  Uiso   1.00
H368   H     0.28580   0.53000   0.20726   0.00000  Uiso   1.00
I369   I     0.18406   0.61649   0.36742   0.00000  Uiso   1.00
I370   I     0.06920   0.86957   0.16451   0.00000  Uiso   1.00
O371   O     0.08262   0.71691   0.11806   0.00000  Uiso   1.00
C372   C     0.07363   0.67169   0.10792   0.00000  Uiso   1.00
H373   H     0.11043   0.65283   0.11111   0.00000  Uiso   1.00
H374   H     0.05201   0.66811   0.07057   0.00000  Uiso   1.00
C375   C     0.04071   0.65222   0.14445   0.00000  Uiso   1.00
H376   H     0.06195   0.65558   0.18194   0.00000  Uiso   1.00
H377   H     0.00399   0.67088   0.14192   0.00000  Uiso   1.00
C378   C     0.02796   0.60356   0.13514   0.00000  Uiso   1.00
H379   H     0.00516   0.59946   0.09843   0.00000  Uiso   1.00
H380   H     0.00466   0.59070   0.16279   0.00000  Uiso   1.00
H381   H     0.06401   0.58404   0.13786   0.00000  Uiso   1.00
O382   O     0.23222   0.80575   0.37752   0.00000  Uiso   1.00
C383   C     0.28507   0.79959   0.39712   0.00000  Uiso   1.00
H384   H     0.30606   0.79055   0.36691   0.00000  Uiso   1.00
H385   H     0.29227   0.77243   0.42501   0.00000  Uiso   1.00
C386   C     0.30846   0.84290   0.41830   0.00000  Uiso   1.00
H387   H     0.30358   0.86922   0.38958   0.00000  Uiso   1.00
H388   H     0.28793   0.85312   0.44846   0.00000  Uiso   1.00
C389   C     0.03271   0.83797   0.43754   0.00000  Uiso   1.00
H390   H     0.03848   0.81241   0.46702   0.00000  Uiso   1.00
H391   H     0.04866   0.86991   0.45245   0.00000  Uiso   1.00
H392   H     0.05425   0.82846   0.40778   0.00000  Uiso   1.00
C393   C     0.50067   0.66468   0.25073   0.00000  Uiso   1.00
C394   C     0.49862   0.83484   0.24931   0.00000  Uiso   1.00
C395   C     0.54315   0.76588   0.05971   0.00000  Uiso   1.00
C396   C     0.46748   0.72123   0.44186   0.00000  Uiso   1.00
C397   C     0.54168   0.76645   0.11014   0.00000  Uiso   1.00
C398   C     0.46724   0.72255   0.39123   0.00000  Uiso   1.00
C399   C     0.45881   0.73240   0.09894   0.00000  Uiso   1.00
C400   C     0.53351   0.77722   0.39927   0.00000  Uiso   1.00
C401   C     0.45786   0.73377   0.04799   0.00000  Uiso   1.00
C402   C     0.53235   0.77866   0.44997   0.00000  Uiso   1.00
C403   C     0.50054   0.74977   0.02725   0.00000  Uiso   1.00
C404   C     0.50015   0.74980   0.47255   0.00000  Uiso   1.00
C405   C     0.40119   0.74982   0.23743   0.00000  Uiso   1.00
C406   C     0.59882   0.74983   0.26255   0.00000  Uiso   1.00
C407   C     0.34576   0.74980   0.23054   0.00000  Uiso   1.00
C408   C     0.65426   0.74931   0.26933   0.00000  Uiso   1.00
C409   C     0.49094   0.54488   0.29337   0.00000  Uiso   1.00
C410   C     0.45579   0.95094   0.21426   0.00000  Uiso   1.00
C411   C     0.49965   0.59064   0.29561   0.00000  Uiso   1.00
C412   C     0.45841   0.90471   0.21390   0.00000  Uiso   1.00
C413   C     0.49929   0.61588   0.25188   0.00000  Uiso   1.00
C414   C     0.49566   0.88273   0.24759   0.00000  Uiso   1.00
C415   C     0.49588   0.59378   0.20754   0.00000  Uiso   1.00
C416   C     0.53053   0.90672   0.28040   0.00000  Uiso   1.00
C417   C     0.49255   0.54807   0.20610   0.00000  Uiso   1.00
C418   C     0.52913   0.95245   0.27965   0.00000  Uiso   1.00
C419   C     0.49047   0.52331   0.24871   0.00000  Uiso   1.00
C420   C     0.49183   0.97489   0.24702   0.00000  Uiso   1.00
Cu421  Cu    0.50000   0.75000   0.29822   0.00000  Uiso   1.00
Cu422  Cu    0.50000   0.75001   0.20179   0.00000  Uiso   1.00
H423   H     0.65872   0.75039   0.19347   0.00000  Uiso   1.00
H424   H     0.34141   0.74845   0.30633   0.00000  Uiso   1.00
H425   H     0.49682   0.61177   0.17367   0.00000  Uiso   1.00
H426   H     0.55946   0.88998   0.30613   0.00000  Uiso   1.00
H427   H     0.49228   0.53195   0.17162   0.00000  Uiso   1.00
H428   H     0.55735   0.97047   0.30461   0.00000  Uiso   1.00
H429   H     0.57791   0.77787   0.04674   0.00000  Uiso   1.00
H430   H     0.44235   0.69743   0.45642   0.00000  Uiso   1.00
H431   H     0.57444   0.78001   0.13384   0.00000  Uiso   1.00
H432   H     0.44123   0.70092   0.36835   0.00000  Uiso   1.00
H433   H     0.42301   0.72305   0.02510   0.00000  Uiso   1.00
H434   H     0.55643   0.80274   0.47108   0.00000  Uiso   1.00
N435   N     0.50000   0.75001   0.12935   0.00000  Uiso   1.00
N436   N     0.50000   0.74999   0.37066   0.00000  Uiso   1.00
O437   O     0.50000   0.68573   0.29072   0.00000  Uiso   1.00
O438   O     0.50000   0.81428   0.20929   0.00000  Uiso   1.00
O439   O     0.50000   0.68573   0.20928   0.00000  Uiso   1.00
O440   O     0.50000   0.81427   0.29072   0.00000  Uiso   1.00
O441   O     0.42495   0.75000   0.28132   0.00000  Uiso   1.00
O442   O     0.57505   0.75001   0.21868   0.00000  Uiso   1.00
O443   O     0.42495   0.75000   0.19989   0.00000  Uiso   1.00
O444   O     0.57505   0.75000   0.30012   0.00000  Uiso   1.00
O445   O     0.48724   0.52146   0.33623   0.00000  Uiso   1.00
C446   C     0.43614   0.50493   0.33640   0.00000  Uiso   1.00
H447   H     0.43721   0.98175   0.36800   0.00000  Uiso   1.00
H448   H     0.42223   0.98509   0.30388   0.00000  Uiso   1.00
C449   C     0.39745   0.54165   0.34208   0.00000  Uiso   1.00
H450   H     0.41016   0.55929   0.37655   0.00000  Uiso   1.00
H451   H     0.39579   0.56582   0.31131   0.00000  Uiso   1.00
C452   C     0.34305   0.52266   0.34270   0.00000  Uiso   1.00
H453   H     0.66251   0.50567   0.30803   0.00000  Uiso   1.00
H454   H     0.64931   0.54982   0.34694   0.00000  Uiso   1.00
H455   H     0.34292   0.99881   0.37357   0.00000  Uiso   1.00
O456   O     0.41861   0.97232   0.18164   0.00000  Uiso   1.00
C457   C     0.37534   0.98160   0.20482   0.00000  Uiso   1.00
H458   H     0.38197   0.51359   0.22391   0.00000  Uiso   1.00
H459   H     0.36752   0.95518   0.23152   0.00000  Uiso   1.00
C460   C     0.66061   0.98540   0.16635   0.00000  Uiso   1.00
H461   H     0.33398   0.51087   0.13862   0.00000  Uiso   1.00
H462   H     0.65313   0.95328   0.14773   0.00000  Uiso   1.00
C463   C     0.61309   0.99759   0.18907   0.00000  Uiso   1.00
H464   H     0.60521   0.97188   0.21613   0.00000  Uiso   1.00
H465   H     0.57889   0.99984   0.16023   0.00000  Uiso   1.00
H466   H     0.61913   0.53000   0.20726   0.00000  Uiso   1.00
I467   I     0.51740   0.61649   0.36742   0.00000  Uiso   1.00
I468   I     0.40254   0.86957   0.16451   0.00000  Uiso   1.00
O469   O     0.41596   0.71691   0.11806   0.00000  Uiso   1.00
C470   C     0.40696   0.67169   0.10792   0.00000  Uiso   1.00
H471   H     0.44376   0.65283   0.11111   0.00000  Uiso   1.00
H472   H     0.38535   0.66811   0.07057   0.00000  Uiso   1.00
C473   C     0.37404   0.65222   0.14445   0.00000  Uiso   1.00
H474   H     0.39529   0.65558   0.18194   0.00000  Uiso   1.00
H475   H     0.33732   0.67088   0.14192   0.00000  Uiso   1.00
C476   C     0.36130   0.60356   0.13514   0.00000  Uiso   1.00
H477   H     0.33849   0.59946   0.09843   0.00000  Uiso   1.00
H478   H     0.33799   0.59070   0.16279   0.00000  Uiso   1.00
H479   H     0.39735   0.58404   0.13786   0.00000  Uiso   1.00
O480   O     0.56556   0.80575   0.37752   0.00000  Uiso   1.00
C481   C     0.61841   0.79959   0.39712   0.00000  Uiso   1.00
H482   H     0.63939   0.79055   0.36691   0.00000  Uiso   1.00
H483   H     0.62560   0.77243   0.42501   0.00000  Uiso   1.00
C484   C     0.64180   0.84290   0.41830   0.00000  Uiso   1.00
H485   H     0.63692   0.86922   0.38958   0.00000  Uiso   1.00
H486   H     0.62127   0.85312   0.44846   0.00000  Uiso   1.00
C487   C     0.36604   0.83797   0.43754   0.00000  Uiso   1.00
H488   H     0.37181   0.81241   0.46702   0.00000  Uiso   1.00
H489   H     0.38199   0.86991   0.45245   0.00000  Uiso   1.00
H490   H     0.38758   0.82846   0.40778   0.00000  Uiso   1.00
C491   C     0.83401   0.66468   0.25073   0.00000  Uiso   1.00
C492   C     0.83195   0.83484   0.24931   0.00000  Uiso   1.00
C493   C     0.87648   0.76588   0.05971   0.00000  Uiso   1.00
C494   C     0.80081   0.72123   0.44186   0.00000  Uiso   1.00
C495   C     0.87502   0.76645   0.11014   0.00000  Uiso   1.00
C496   C     0.80057   0.72255   0.39123   0.00000  Uiso   1.00
C497   C     0.79215   0.73240   0.09894   0.00000  Uiso   1.00
C498   C     0.86685   0.77722   0.39927   0.00000  Uiso   1.00
C499   C     0.79120   0.73377   0.04799   0.00000  Uiso   1.00
C500   C     0.86568   0.77866   0.44997   0.00000  Uiso   1.00
C501   C     0.83387   0.74977   0.02725   0.00000  Uiso   1.00
C502   C     0.83348   0.74980   0.47255   0.00000  Uiso   1.00
C503   C     0.73452   0.74982   0.23743   0.00000  Uiso   1.00
C504   C     0.93215   0.74983   0.26255   0.00000  Uiso   1.00
C505   C     0.67909   0.74980   0.23054   0.00000  Uiso   1.00
C506   C     0.98759   0.74931   0.26933   0.00000  Uiso   1.00
C507   C     0.82428   0.54488   0.29337   0.00000  Uiso   1.00
C508   C     0.78912   0.95094   0.21426   0.00000  Uiso   1.00
C509   C     0.83298   0.59064   0.29561   0.00000  Uiso   1.00
C510   C     0.79175   0.90471   0.21390   0.00000  Uiso   1.00
C511   C     0.83263   0.61588   0.25188   0.00000  Uiso   1.00
C512   C     0.82900   0.88273   0.24759   0.00000  Uiso   1.00
C513   C     0.82922   0.59378   0.20754   0.00000  Uiso   1.00
C514   C     0.86386   0.90672   0.28040   0.00000  Uiso   1.00
C515   C     0.82588   0.54807   0.20610   0.00000  Uiso   1.00
C516   C     0.86246   0.95245   0.27965   0.00000  Uiso   1.00
C517   C     0.82380   0.52331   0.24871   0.00000  Uiso   1.00
C518   C     0.82517   0.97489   0.24702   0.00000  Uiso   1.00
Cu519  Cu    0.83333   0.75000   0.29822   0.00000  Uiso   1.00
Cu520  Cu    0.83333   0.75001   0.20179   0.00000  Uiso   1.00
H521   H     0.99206   0.75039   0.19347   0.00000  Uiso   1.00
H522   H     0.67475   0.74845   0.30633   0.00000  Uiso   1.00
H523   H     0.83015   0.61177   0.17367   0.00000  Uiso   1.00
H524   H     0.89279   0.88998   0.30613   0.00000  Uiso   1.00
H525   H     0.82561   0.53195   0.17162   0.00000  Uiso   1.00
H526   H     0.89068   0.97047   0.30461   0.00000  Uiso   1.00
H527   H     0.91124   0.77787   0.04674   0.00000  Uiso   1.00
H528   H     0.77568   0.69743   0.45642   0.00000  Uiso   1.00
H529   H     0.90777   0.78001   0.13384   0.00000  Uiso   1.00
H530   H     0.77457   0.70092   0.36835   0.00000  Uiso   1.00
H531   H     0.75634   0.72305   0.02510   0.00000  Uiso   1.00
H532   H     0.88977   0.80274   0.47108   0.00000  Uiso   1.00
N533   N     0.83333   0.75001   0.12935   0.00000  Uiso   1.00
N534   N     0.83333   0.74999   0.37066   0.00000  Uiso   1.00
O535   O     0.83334   0.68573   0.29072   0.00000  Uiso   1.00
O536   O     0.83333   0.81428   0.20929   0.00000  Uiso   1.00
O537   O     0.83334   0.68573   0.20928   0.00000  Uiso   1.00
O538   O     0.83333   0.81427   0.29072   0.00000  Uiso   1.00
O539   O     0.75828   0.75000   0.28132   0.00000  Uiso   1.00
O540   O     0.90839   0.75001   0.21868   0.00000  Uiso   1.00
O541   O     0.75828   0.75000   0.19989   0.00000  Uiso   1.00
O542   O     0.90839   0.75000   0.30012   0.00000  Uiso   1.00
O543   O     0.82058   0.52146   0.33623   0.00000  Uiso   1.00
C544   C     0.76947   0.50493   0.33640   0.00000  Uiso   1.00
H545   H     0.77055   0.98175   0.36800   0.00000  Uiso   1.00
H546   H     0.75557   0.98509   0.30388   0.00000  Uiso   1.00
C547   C     0.73078   0.54165   0.34208   0.00000  Uiso   1.00
H548   H     0.74349   0.55929   0.37655   0.00000  Uiso   1.00
H549   H     0.72912   0.56582   0.31131   0.00000  Uiso   1.00
C550   C     0.67639   0.52266   0.34270   0.00000  Uiso   1.00
H551   H     0.99584   0.50567   0.30803   0.00000  Uiso   1.00
H552   H     0.98265   0.54982   0.34694   0.00000  Uiso   1.00
H553   H     0.67626   0.99881   0.37357   0.00000  Uiso   1.00
O554   O     0.75194   0.97232   0.18164   0.00000  Uiso   1.00
C555   C     0.70868   0.98160   0.20482   0.00000  Uiso   1.00
H556   H     0.71530   0.51359   0.22391   0.00000  Uiso   1.00
H557   H     0.70085   0.95518   0.23152   0.00000  Uiso   1.00
C558   C     0.99394   0.98540   0.16635   0.00000  Uiso   1.00
H559   H     0.66731   0.51087   0.13862   0.00000  Uiso   1.00
H560   H     0.98646   0.95328   0.14773   0.00000  Uiso   1.00
C561   C     0.94642   0.99759   0.18907   0.00000  Uiso   1.00
H562   H     0.93854   0.97188   0.21613   0.00000  Uiso   1.00
H563   H     0.91223   0.99984   0.16023   0.00000  Uiso   1.00
H564   H     0.95247   0.53000   0.20726   0.00000  Uiso   1.00
I565   I     0.85073   0.61649   0.36742   0.00000  Uiso   1.00
I566   I     0.73587   0.86957   0.16451   0.00000  Uiso   1.00
O567   O     0.74929   0.71691   0.11806   0.00000  Uiso   1.00
C568   C     0.74029   0.67169   0.10792   0.00000  Uiso   1.00
H569   H     0.77709   0.65283   0.11111   0.00000  Uiso   1.00
H570   H     0.71868   0.66811   0.07057   0.00000  Uiso   1.00
C571   C     0.70738   0.65222   0.14445   0.00000  Uiso   1.00
H572   H     0.72862   0.65558   0.18194   0.00000  Uiso   1.00
H573   H     0.67066   0.67088   0.14192   0.00000  Uiso   1.00
C574   C     0.69463   0.60356   0.13514   0.00000  Uiso   1.00
H575   H     0.67182   0.59946   0.09843   0.00000  Uiso   1.00
H576   H     0.67133   0.59070   0.16279   0.00000  Uiso   1.00
H577   H     0.73068   0.58404   0.13786   0.00000  Uiso   1.00
O578   O     0.89889   0.80575   0.37752   0.00000  Uiso   1.00
C579   C     0.95174   0.79959   0.39712   0.00000  Uiso   1.00
H580   H     0.97273   0.79055   0.36691   0.00000  Uiso   1.00
H581   H     0.95894   0.77243   0.42501   0.00000  Uiso   1.00
C582   C     0.97513   0.84290   0.41830   0.00000  Uiso   1.00
H583   H     0.97025   0.86922   0.38958   0.00000  Uiso   1.00
H584   H     0.95460   0.85312   0.44846   0.00000  Uiso   1.00
C585   C     0.69938   0.83797   0.43754   0.00000  Uiso   1.00
H586   H     0.70514   0.81241   0.46702   0.00000  Uiso   1.00
H587   H     0.71532   0.86991   0.45245   0.00000  Uiso   1.00
H588   H     0.72092   0.82846   0.40778   0.00000  Uiso   1.00
C589   C     0.16734   0.16468   0.75073   0.00000  Uiso   1.00
C590   C     0.16529   0.33484   0.74931   0.00000  Uiso   1.00
C591   C     0.20982   0.26588   0.55971   0.00000  Uiso   1.00
C592   C     0.13415   0.22123   0.94186   0.00000  Uiso   1.00
C593   C     0.20835   0.26645   0.61014   0.00000  Uiso   1.00
C594   C     0.13390   0.22255   0.89123   0.00000  Uiso   1.00
C595   C     0.12548   0.23240   0.59894   0.00000  Uiso   1.00
C596   C     0.20018   0.27722   0.89927   0.00000  Uiso   1.00
C597   C     0.12453   0.23377   0.54799   0.00000  Uiso   1.00
C598   C     0.19901   0.27866   0.94997   0.00000  Uiso   1.00
C599   C     0.16721   0.24977   0.52725   0.00000  Uiso   1.00
C600   C     0.16682   0.24980   0.97255   0.00000  Uiso   1.00
C601   C     0.06786   0.24982   0.73743   0.00000  Uiso   1.00
C602   C     0.26548   0.24983   0.76255   0.00000  Uiso   1.00
C603   C     0.01242   0.24980   0.73054   0.00000  Uiso   1.00
C604   C     0.32092   0.24931   0.76933   0.00000  Uiso   1.00
C605   C     0.15761   0.04488   0.79337   0.00000  Uiso   1.00
C606   C     0.12245   0.45094   0.71426   0.00000  Uiso   1.00
C607   C     0.16632   0.09064   0.79561   0.00000  Uiso   1.00
C608   C     0.12508   0.40471   0.71390   0.00000  Uiso   1.00
C609   C     0.16596   0.11588   0.75188   0.00000  Uiso   1.00
C610   C     0.16233   0.38273   0.74759   0.00000  Uiso   1.00
C611   C     0.16255   0.09378   0.70754   0.00000  Uiso   1.00
C612   C     0.19719   0.40672   0.78040   0.00000  Uiso   1.00
C613   C     0.15922   0.04807   0.70610   0.00000  Uiso   1.00
C614   C     0.19579   0.45245   0.77965   0.00000  Uiso   1.00
C615   C     0.15714   0.02331   0.74871   0.00000  Uiso   1.00
C616   C     0.15850   0.47489   0.74702   0.00000  Uiso   1.00
Cu617  Cu    0.16667   0.25000   0.79822   0.00000  Uiso   1.00
Cu618  Cu    0.16667   0.25001   0.70179   0.00000  Uiso   1.00
H619   H     0.32539   0.25039   0.69347   0.00000  Uiso   1.00
H620   H     0.00808   0.24845   0.80633   0.00000  Uiso   1.00
H621   H     0.16348   0.11177   0.67367   0.00000  Uiso   1.00
H622   H     0.22612   0.38998   0.80613   0.00000  Uiso   1.00
H623   H     0.15894   0.03195   0.67162   0.00000  Uiso   1.00
H624   H     0.22401   0.47047   0.80461   0.00000  Uiso   1.00
H625   H     0.24457   0.27787   0.54674   0.00000  Uiso   1.00
H626   H     0.10902   0.19743   0.95642   0.00000  Uiso   1.00
H627   H     0.24111   0.28001   0.63384   0.00000  Uiso   1.00
H628   H     0.10790   0.20092   0.86835   0.00000  Uiso   1.00
H629   H     0.08967   0.22305   0.52510   0.00000  Uiso   1.00
H630   H     0.22310   0.30274   0.97108   0.00000  Uiso   1.00
N631   N     0.16667   0.25001   0.62935   0.00000  Uiso   1.00
N632   N     0.16667   0.24999   0.87066   0.00000  Uiso   1.00
O633   O     0.16667   0.18573   0.79072   0.00000  Uiso   1.00
O634   O     0.16666   0.31428   0.70929   0.00000  Uiso   1.00
O635   O     0.16667   0.18573   0.70928   0.00000  Uiso   1.00
O636   O     0.16666   0.31427   0.79072   0.00000  Uiso   1.00
O637   O     0.09161   0.25000   0.78132   0.00000  Uiso   1.00
O638   O     0.24172   0.25001   0.71868   0.00000  Uiso   1.00
O639   O     0.09161   0.25000   0.69989   0.00000  Uiso   1.00
O640   O     0.24172   0.25000   0.80012   0.00000  Uiso   1.00
O641   O     0.15391   0.02146   0.83623   0.00000  Uiso   1.00
C642   C     0.10281   0.00493   0.83640   0.00000  Uiso   1.00
H643   H     0.10388   0.48175   0.86800   0.00000  Uiso   1.00
H644   H     0.08890   0.48509   0.80388   0.00000  Uiso   1.00
C645   C     0.06411   0.04165   0.84208   0.00000  Uiso   1.00
H646   H     0.07683   0.05929   0.87655   0.00000  Uiso   1.00
H647   H     0.06245   0.06582   0.81131   0.00000  Uiso   1.00
C648   C     0.00972   0.02266   0.84270   0.00000  Uiso   1.00
H649   H     0.32918   0.00567   0.80803   0.00000  Uiso   1.00
H650   H     0.31598   0.04982   0.84694   0.00000  Uiso   1.00
H651   H     0.00959   0.49881   0.87357   0.00000  Uiso   1.00
O652   O     0.08528   0.47232   0.68164   0.00000  Uiso   1.00
C653   C     0.04201   0.48160   0.70482   0.00000  Uiso   1.00
H654   H     0.04863   0.01359   0.72391   0.00000  Uiso   1.00
H655   H     0.03419   0.45518   0.73152   0.00000  Uiso   1.00
C656   C     0.32728   0.48540   0.66635   0.00000  Uiso   1.00
H657   H     0.00065   0.01087   0.63862   0.00000  Uiso   1.00
H658   H     0.31979   0.45328   0.64773   0.00000  Uiso   1.00
C659   C     0.27975   0.49759   0.68907   0.00000  Uiso   1.00
H660   H     0.27187   0.47188   0.71613   0.00000  Uiso   1.00
H661   H     0.24556   0.49984   0.66023   0.00000  Uiso   1.00
H662   H     0.28580   0.03000   0.70726   0.00000  Uiso   1.00
I663   I     0.18406   0.11649   0.86742   0.00000  Uiso   1.00
I664   I     0.06920   0.36957   0.66451   0.00000  Uiso   1.00
O665   O     0.08262   0.21691   0.61806   0.00000  Uiso   1.00
C666   C     0.07363   0.17169   0.60792   0.00000  Uiso   1.00
H667   H     0.11043   0.15283   0.61111   0.00000  Uiso   1.00
H668   H     0.05201   0.16811   0.57057   0.00000  Uiso   1.00
C669   C     0.04071   0.15222   0.64445   0.00000  Uiso   1.00
H670   H     0.06195   0.15558   0.68194   0.00000  Uiso   1.00
H671   H     0.00399   0.17088   0.64192   0.00000  Uiso   1.00
C672   C     0.02796   0.10356   0.63514   0.00000  Uiso   1.00
H673   H     0.00516   0.09946   0.59843   0.00000  Uiso   1.00
H674   H     0.00466   0.09070   0.66279   0.00000  Uiso   1.00
H675   H     0.06401   0.08404   0.63786   0.00000  Uiso   1.00
O676   O     0.23222   0.30575   0.87752   0.00000  Uiso   1.00
C677   C     0.28507   0.29959   0.89712   0.00000  Uiso   1.00
H678   H     0.30606   0.29055   0.86691   0.00000  Uiso   1.00
H679   H     0.29227   0.27243   0.92501   0.00000  Uiso   1.00
C680   C     0.30846   0.34290   0.91830   0.00000  Uiso   1.00
H681   H     0.30358   0.36922   0.88958   0.00000  Uiso   1.00
H682   H     0.28793   0.35312   0.94846   0.00000  Uiso   1.00
C683   C     0.03271   0.33797   0.93754   0.00000  Uiso   1.00
H684   H     0.03848   0.31241   0.96702   0.00000  Uiso   1.00
H685   H     0.04866   0.36991   0.95245   0.00000  Uiso   1.00
H686   H     0.05425   0.32846   0.90778   0.00000  Uiso   1.00
C687   C     0.50067   0.16468   0.75073   0.00000  Uiso   1.00
C688   C     0.49862   0.33484   0.74931   0.00000  Uiso   1.00
C689   C     0.54315   0.26588   0.55971   0.00000  Uiso   1.00
C690   C     0.46748   0.22123   0.94186   0.00000  Uiso   1.00
C691   C     0.54168   0.26645   0.61014   0.00000  Uiso   1.00
C692   C     0.46724   0.22255   0.89123   0.00000  Uiso   1.00
C693   C     0.45881   0.23240   0.59894   0.00000  Uiso   1.00
C694   C     0.53351   0.27722   0.89927   0.00000  Uiso   1.00
C695   C     0.45786   0.23377   0.54799   0.00000  Uiso   1.00
C696   C     0.53235   0.27866   0.94997   0.00000  Uiso   1.00
C697   C     0.50054   0.24977   0.52725   0.00000  Uiso   1.00
C698   C     0.50015   0.24980   0.97255   0.00000  Uiso   1.00
C699   C     0.40119   0.24982   0.73743   0.00000  Uiso   1.00
C700   C     0.59882   0.24983   0.76255   0.00000  Uiso   1.00
C701   C     0.34576   0.24980   0.73054   0.00000  Uiso   1.00
C702   C     0.65426   0.24931   0.76933   0.00000  Uiso   1.00
C703   C     0.49094   0.04488   0.79337   0.00000  Uiso   1.00
C704   C     0.45579   0.45094   0.71426   0.00000  Uiso   1.00
C705   C     0.49965   0.09064   0.79561   0.00000  Uiso   1.00
C706   C     0.45841   0.40471   0.71390   0.00000  Uiso   1.00
C707   C     0.49929   0.11588   0.75188   0.00000  Uiso   1.00
C708   C     0.49566   0.38273   0.74759   0.00000  Uiso   1.00
C709   C     0.49588   0.09378   0.70754   0.00000  Uiso   1.00
C710   C     0.53053   0.40672   0.78040   0.00000  Uiso   1.00
C711   C     0.49255   0.04807   0.70610   0.00000  Uiso   1.00
C712   C     0.52913   0.45245   0.77965   0.00000  Uiso   1.00
C713   C     0.49047   0.02331   0.74871   0.00000  Uiso   1.00
C714   C     0.49183   0.47489   0.74702   0.00000  Uiso   1.00
Cu715  Cu    0.50000   0.25000   0.79822   0.00000  Uiso   1.00
Cu716  Cu    0.50000   0.25001   0.70179   0.00000  Uiso   1.00
H717   H     0.65872   0.25039   0.69347   0.00000  Uiso   1.00
H718   H     0.34141   0.24845   0.80633   0.00000  Uiso   1.00
H719   H     0.49682   0.11177   0.67367   0.00000  Uiso   1.00
H720   H     0.55946   0.38998   0.80613   0.00000  Uiso   1.00
H721   H     0.49228   0.03195   0.67162   0.00000  Uiso   1.00
H722   H     0.55735   0.47047   0.80461   0.00000  Uiso   1.00
H723   H     0.57791   0.27787   0.54674   0.00000  Uiso   1.00
H724   H     0.44235   0.19743   0.95642   0.00000  Uiso   1.00
H725   H     0.57444   0.28001   0.63384   0.00000  Uiso   1.00
H726   H     0.44123   0.20092   0.86835   0.00000  Uiso   1.00
H727   H     0.42301   0.22305   0.52510   0.00000  Uiso   1.00
H728   H     0.55643   0.30274   0.97108   0.00000  Uiso   1.00
N729   N     0.50000   0.25001   0.62935   0.00000  Uiso   1.00
N730   N     0.50000   0.24999   0.87066   0.00000  Uiso   1.00
O731   O     0.50000   0.18573   0.79072   0.00000  Uiso   1.00
O732   O     0.50000   0.31428   0.70929   0.00000  Uiso   1.00
O733   O     0.50000   0.18573   0.70928   0.00000  Uiso   1.00
O734   O     0.50000   0.31427   0.79072   0.00000  Uiso   1.00
O735   O     0.42495   0.25000   0.78132   0.00000  Uiso   1.00
O736   O     0.57505   0.25001   0.71868   0.00000  Uiso   1.00
O737   O     0.42495   0.25000   0.69989   0.00000  Uiso   1.00
O738   O     0.57505   0.25000   0.80012   0.00000  Uiso   1.00
O739   O     0.48724   0.02146   0.83623   0.00000  Uiso   1.00
C740   C     0.43614   0.00493   0.83640   0.00000  Uiso   1.00
H741   H     0.43721   0.48175   0.86800   0.00000  Uiso   1.00
H742   H     0.42223   0.48509   0.80388   0.00000  Uiso   1.00
C743   C     0.39745   0.04165   0.84208   0.00000  Uiso   1.00
H744   H     0.41016   0.05929   0.87655   0.00000  Uiso   1.00
H745   H     0.39579   0.06582   0.81131   0.00000  Uiso   1.00
C746   C     0.34305   0.02266   0.84270   0.00000  Uiso   1.00
H747   H     0.66251   0.00567   0.80803   0.00000  Uiso   1.00
H748   H     0.64931   0.04982   0.84694   0.00000  Uiso   1.00
H749   H     0.34292   0.49881   0.87357   0.00000  Uiso   1.00
O750   O     0.41861   0.47232   0.68164   0.00000  Uiso   1.00
C751   C     0.37534   0.48160   0.70482   0.00000  Uiso   1.00
H752   H     0.38197   0.01359   0.72391   0.00000  Uiso   1.00
H753   H     0.36752   0.45518   0.73152   0.00000  Uiso   1.00
C754   C     0.66061   0.48540   0.66635   0.00000  Uiso   1.00
H755   H     0.33398   0.01087   0.63862   0.00000  Uiso   1.00
H756   H     0.65313   0.45328   0.64773   0.00000  Uiso   1.00
C757   C     0.61309   0.49759   0.68907   0.00000  Uiso   1.00
H758   H     0.60521   0.47188   0.71613   0.00000  Uiso   1.00
H759   H     0.57889   0.49984   0.66023   0.00000  Uiso   1.00
H760   H     0.61913   0.03000   0.70726   0.00000  Uiso   1.00
I761   I     0.51740   0.11649   0.86742   0.00000  Uiso   1.00
I762   I     0.40254   0.36957   0.66451   0.00000  Uiso   1.00
O763   O     0.41596   0.21691   0.61806   0.00000  Uiso   1.00
C764   C     0.40696   0.17169   0.60792   0.00000  Uiso   1.00
H765   H     0.44376   0.15283   0.61111   0.00000  Uiso   1.00
H766   H     0.38535   0.16811   0.57057   0.00000  Uiso   1.00
C767   C     0.37404   0.15222   0.64445   0.00000  Uiso   1.00
H768   H     0.39529   0.15558   0.68194   0.00000  Uiso   1.00
H769   H     0.33732   0.17088   0.64192   0.00000  Uiso   1.00
C770   C     0.36130   0.10356   0.63514   0.00000  Uiso   1.00
H771   H     0.33849   0.09946   0.59843   0.00000  Uiso   1.00
H772   H     0.33799   0.09070   0.66279   0.00000  Uiso   1.00
H773   H     0.39735   0.08404   0.63786   0.00000  Uiso   1.00
O774   O     0.56556   0.30575   0.87752   0.00000  Uiso   1.00
C775   C     0.61841   0.29959   0.89712   0.00000  Uiso   1.00
H776   H     0.63939   0.29055   0.86691   0.00000  Uiso   1.00
H777   H     0.62560   0.27243   0.92501   0.00000  Uiso   1.00
C778   C     0.64180   0.34290   0.91830   0.00000  Uiso   1.00
H779   H     0.63692   0.36922   0.88958   0.00000  Uiso   1.00
H780   H     0.62127   0.35312   0.94846   0.00000  Uiso   1.00
C781   C     0.36604   0.33797   0.93754   0.00000  Uiso   1.00
H782   H     0.37181   0.31241   0.96702   0.00000  Uiso   1.00
H783   H     0.38199   0.36991   0.95245   0.00000  Uiso   1.00
H784   H     0.38758   0.32846   0.90778   0.00000  Uiso   1.00
C785   C     0.83401   0.16468   0.75073   0.00000  Uiso   1.00
C786   C     0.83195   0.33484   0.74931   0.00000  Uiso   1.00
C787   C     0.87648   0.26588   0.55971   0.00000  Uiso   1.00
C788   C     0.80081   0.22123   0.94186   0.00000  Uiso   1.00
C789   C     0.87502   0.26645   0.61014   0.00000  Uiso   1.00
C790   C     0.80057   0.22255   0.89123   0.00000  Uiso   1.00
C791   C     0.79215   0.23240   0.59894   0.00000  Uiso   1.00
C792   C     0.86685   0.27722   0.89927   0.00000  Uiso   1.00
C793   C     0.79120   0.23377   0.54799   0.00000  Uiso   1.00
C794   C     0.86568   0.27866   0.94997   0.00000  Uiso   1.00
C795   C     0.83387   0.24977   0.52725   0.00000  Uiso   1.00
C796   C     0.83348   0.24980   0.97255   0.00000  Uiso   1.00
C797   C     0.73452   0.24982   0.73743   0.00000  Uiso   1.00
C798   C     0.93215   0.24983   0.76255   0.00000  Uiso   1.00
C799   C     0.67909   0.24980   0.73054   0.00000  Uiso   1.00
C800   C     0.98759   0.24931   0.76933   0.00000  Uiso   1.00
C801   C     0.82428   0.04488   0.79337   0.00000  Uiso   1.00
C802   C     0.78912   0.45094   0.71426   0.00000  Uiso   1.00
C803   C     0.83298   0.09064   0.79561   0.00000  Uiso   1.00
C804   C     0.79175   0.40471   0.71390   0.00000  Uiso   1.00
C805   C     0.83263   0.11588   0.75188   0.00000  Uiso   1.00
C806   C     0.82900   0.38273   0.74759   0.00000  Uiso   1.00
C807   C     0.82922   0.09378   0.70754   0.00000  Uiso   1.00
C808   C     0.86386   0.40672   0.78040   0.00000  Uiso   1.00
C809   C     0.82588   0.04807   0.70610   0.00000  Uiso   1.00
C810   C     0.86246   0.45245   0.77965   0.00000  Uiso   1.00
C811   C     0.82380   0.02331   0.74871   0.00000  Uiso   1.00
C812   C     0.82517   0.47489   0.74702   0.00000  Uiso   1.00
Cu813  Cu    0.83333   0.25000   0.79822   0.00000  Uiso   1.00
Cu814  Cu    0.83333   0.25001   0.70179   0.00000  Uiso   1.00
H815   H     0.99206   0.25039   0.69347   0.00000  Uiso   1.00
H816   H     0.67475   0.24845   0.80633   0.00000  Uiso   1.00
H817   H     0.83015   0.11177   0.67367   0.00000  Uiso   1.00
H818   H     0.89279   0.38998   0.80613   0.00000  Uiso   1.00
H819   H     0.82561   0.03195   0.67162   0.00000  Uiso   1.00
H820   H     0.89068   0.47047   0.80461   0.00000  Uiso   1.00
H821   H     0.91124   0.27787   0.54674   0.00000  Uiso   1.00
H822   H     0.77568   0.19743   0.95642   0.00000  Uiso   1.00
H823   H     0.90777   0.28001   0.63384   0.00000  Uiso   1.00
H824   H     0.77457   0.20092   0.86835   0.00000  Uiso   1.00
H825   H     0.75634   0.22305   0.52510   0.00000  Uiso   1.00
H826   H     0.88977   0.30274   0.97108   0.00000  Uiso   1.00
N827   N     0.83333   0.25001   0.62935   0.00000  Uiso   1.00
N828   N     0.83333   0.24999   0.87066   0.00000  Uiso   1.00
O829   O     0.83334   0.18573   0.79072   0.00000  Uiso   1.00
O830   O     0.83333   0.31428   0.70929   0.00000  Uiso   1.00
O831   O     0.83334   0.18573   0.70928   0.00000  Uiso   1.00
O832   O     0.83333   0.31427   0.79072   0.00000  Uiso   1.00
O833   O     0.75828   0.25000   0.78132   0.00000  Uiso   1.00
O834   O     0.90839   0.25001   0.71868   0.00000  Uiso   1.00
O835   O     0.75828   0.25000   0.69989   0.00000  Uiso   1.00
O836   O     0.90839   0.25000   0.80012   0.00000  Uiso   1.00
O837   O     0.82058   0.02146   0.83623   0.00000  Uiso   1.00
C838   C     0.76947   0.00493   0.83640   0.00000  Uiso   1.00
H839   H     0.77055   0.48175   0.86800   0.00000  Uiso   1.00
H840   H     0.75557   0.48509   0.80388   0.00000  Uiso   1.00
C841   C     0.73078   0.04165   0.84208   0.00000  Uiso   1.00
H842   H     0.74349   0.05929   0.87655   0.00000  Uiso   1.00
H843   H     0.72912   0.06582   0.81131   0.00000  Uiso   1.00
C844   C     0.67639   0.02266   0.84270   0.00000  Uiso   1.00
H845   H     0.99584   0.00567   0.80803   0.00000  Uiso   1.00
H846   H     0.98265   0.04982   0.84694   0.00000  Uiso   1.00
H847   H     0.67626   0.49881   0.87357   0.00000  Uiso   1.00
O848   O     0.75194   0.47232   0.68164   0.00000  Uiso   1.00
C849   C     0.70868   0.48160   0.70482   0.00000  Uiso   1.00
H850   H     0.71530   0.01359   0.72391   0.00000  Uiso   1.00
H851   H     0.70085   0.45518   0.73152   0.00000  Uiso   1.00
C852   C     0.99394   0.48540   0.66635   0.00000  Uiso   1.00
H853   H     0.66731   0.01087   0.63862   0.00000  Uiso   1.00
H854   H     0.98646   0.45328   0.64773   0.00000  Uiso   1.00
C855   C     0.94642   0.49759   0.68907   0.00000  Uiso   1.00
H856   H     0.93854   0.47188   0.71613   0.00000  Uiso   1.00
H857   H     0.91223   0.49984   0.66023   0.00000  Uiso   1.00
H858   H     0.95247   0.03000   0.70726   0.00000  Uiso   1.00
I859   I     0.85073   0.11649   0.86742   0.00000  Uiso   1.00
I860   I     0.73587   0.36957   0.66451   0.00000  Uiso   1.00
O861   O     0.74929   0.21691   0.61806   0.00000  Uiso   1.00
C862   C     0.74029   0.17169   0.60792   0.00000  Uiso   1.00
H863   H     0.77709   0.15283   0.61111   0.00000  Uiso   1.00
H864   H     0.71868   0.16811   0.57057   0.00000  Uiso   1.00
C865   C     0.70738   0.15222   0.64445   0.00000  Uiso   1.00
H866   H     0.72862   0.15558   0.68194   0.00000  Uiso   1.00
H867   H     0.67066   0.17088   0.64192   0.00000  Uiso   1.00
C868   C     0.69463   0.10356   0.63514   0.00000  Uiso   1.00
H869   H     0.67182   0.09946   0.59843   0.00000  Uiso   1.00
H870   H     0.67133   0.09070   0.66279   0.00000  Uiso   1.00
H871   H     0.73068   0.08404   0.63786   0.00000  Uiso   1.00
O872   O     0.89889   0.30575   0.87752   0.00000  Uiso   1.00
C873   C     0.95174   0.29959   0.89712   0.00000  Uiso   1.00
H874   H     0.97273   0.29055   0.86691   0.00000  Uiso   1.00
H875   H     0.95894   0.27243   0.92501   0.00000  Uiso   1.00
C876   C     0.97513   0.34290   0.91830   0.00000  Uiso   1.00
H877   H     0.97025   0.36922   0.88958   0.00000  Uiso   1.00
H878   H     0.95460   0.35312   0.94846   0.00000  Uiso   1.00
C879   C     0.69938   0.33797   0.93754   0.00000  Uiso   1.00
H880   H     0.70514   0.31241   0.96702   0.00000  Uiso   1.00
H881   H     0.71532   0.36991   0.95245   0.00000  Uiso   1.00
H882   H     0.72092   0.32846   0.90778   0.00000  Uiso   1.00
C883   C     0.16734   0.66468   0.75073   0.00000  Uiso   1.00
C884   C     0.16529   0.83484   0.74931   0.00000  Uiso   1.00
C885   C     0.20982   0.76588   0.55971   0.00000  Uiso   1.00
C886   C     0.13415   0.72123   0.94186   0.00000  Uiso   1.00
C887   C     0.20835   0.76645   0.61014   0.00000  Uiso   1.00
C888   C     0.13390   0.72255   0.89123   0.00000  Uiso   1.00
C889   C     0.12548   0.73240   0.59894   0.00000  Uiso   1.00
C890   C     0.20018   0.77722   0.89927   0.00000  Uiso   1.00
C891   C     0.12453   0.73377   0.54799   0.00000  Uiso   1.00
C892   C     0.19901   0.77866   0.94997   0.00000  Uiso   1.00
C893   C     0.16721   0.74977   0.52725   0.00000  Uiso   1.00
C894   C     0.16682   0.74980   0.97255   0.00000  Uiso   1.00
C895   C     0.06786   0.74982   0.73743   0.00000  Uiso   1.00
C896   C     0.26548   0.74983   0.76255   0.00000  Uiso   1.00
C897   C     0.01242   0.74980   0.73054   0.00000  Uiso   1.00
C898   C     0.32092   0.74931   0.76933   0.00000  Uiso   1.00
C899   C     0.15761   0.54488   0.79337   0.00000  Uiso   1.00
C900   C     0.12245   0.95094   0.71426   0.00000  Uiso   1.00
C901   C     0.16632   0.59064   0.79561   0.00000  Uiso   1.00
C902   C     0.12508   0.90471   0.71390   0.00000  Uiso   1.00
C903   C     0.16596   0.61588   0.75188   0.00000  Uiso   1.00
C904   C     0.16233   0.88273   0.74759   0.00000  Uiso   1.00
C905   C     0.16255   0.59378   0.70754   0.00000  Uiso   1.00
C906   C     0.19719   0.90672   0.78040   0.00000  Uiso   1.00
C907   C     0.15922   0.54807   0.70610   0.00000  Uiso   1.00
C908   C     0.19579   0.95245   0.77965   0.00000  Uiso   1.00
C909   C     0.15714   0.52331   0.74871   0.00000  Uiso   1.00
C910   C     0.15850   0.97489   0.74702   0.00000  Uiso   1.00
Cu911  Cu    0.16667   0.75000   0.79822   0.00000  Uiso   1.00
Cu912  Cu    0.16667   0.75001   0.70179   0.00000  Uiso   1.00
H913   H     0.32539   0.75039   0.69347   0.00000  Uiso   1.00
H914   H     0.00808   0.74845   0.80633   0.00000  Uiso   1.00
H915   H     0.16348   0.61177   0.67367   0.00000  Uiso   1.00
H916   H     0.22612   0.88998   0.80613   0.00000  Uiso   1.00
H917   H     0.15894   0.53195   0.67162   0.00000  Uiso   1.00
H918   H     0.22401   0.97047   0.80461   0.00000  Uiso   1.00
H919   H     0.24457   0.77787   0.54674   0.00000  Uiso   1.00
H920   H     0.10902   0.69743   0.95642   0.00000  Uiso   1.00
H921   H     0.24111   0.78001   0.63384   0.00000  Uiso   1.00
H922   H     0.10790   0.70092   0.86835   0.00000  Uiso   1.00
H923   H     0.08967   0.72305   0.52510   0.00000  Uiso   1.00
H924   H     0.22310   0.80274   0.97108   0.00000  Uiso   1.00
N925   N     0.16667   0.75001   0.62935   0.00000  Uiso   1.00
N926   N     0.16667   0.74999   0.87066   0.00000  Uiso   1.00
O927   O     0.16667   0.68573   0.79072   0.00000  Uiso   1.00
O928   O     0.16666   0.81428   0.70929   0.00000  Uiso   1.00
O929   O     0.16667   0.68573   0.70928   0.00000  Uiso   1.00
O930   O     0.16666   0.81427   0.79072   0.00000  Uiso   1.00
O931   O     0.09161   0.75000   0.78132   0.00000  Uiso   1.00
O932   O     0.24172   0.75001   0.71868   0.00000  Uiso   1.00
O933   O     0.09161   0.75000   0.69989   0.00000  Uiso   1.00
O934   O     0.24172   0.75000   0.80012   0.00000  Uiso   1.00
O935   O     0.15391   0.52146   0.83623   0.00000  Uiso   1.00
C936   C     0.10281   0.50493   0.83640   0.00000  Uiso   1.00
H937   H     0.10388   0.98175   0.86800   0.00000  Uiso   1.00
H938   H     0.08890   0.98509   0.80388   0.00000  Uiso   1.00
C939   C     0.06411   0.54165   0.84208   0.00000  Uiso   1.00
H940   H     0.07683   0.55929   0.87655   0.00000  Uiso   1.00
H941   H     0.06245   0.56582   0.81131   0.00000  Uiso   1.00
C942   C     0.00972   0.52266   0.84270   0.00000  Uiso   1.00
H943   H     0.32918   0.50567   0.80803   0.00000  Uiso   1.00
H944   H     0.31598   0.54982   0.84694   0.00000  Uiso   1.00
H945   H     0.00959   0.99881   0.87357   0.00000  Uiso   1.00
O946   O     0.08528   0.97232   0.68164   0.00000  Uiso   1.00
C947   C     0.04201   0.98160   0.70482   0.00000  Uiso   1.00
H948   H     0.04863   0.51359   0.72391   0.00000  Uiso   1.00
H949   H     0.03419   0.95518   0.73152   0.00000  Uiso   1.00
C950   C     0.32728   0.98540   0.66635   0.00000  Uiso   1.00
H951   H     0.00065   0.51087   0.63862   0.00000  Uiso   1.00
H952   H     0.31979   0.95328   0.64773   0.00000  Uiso   1.00
C953   C     0.27975   0.99759   0.68907   0.00000  Uiso   1.00
H954   H     0.27187   0.97188   0.71613   0.00000  Uiso   1.00
H955   H     0.24556   0.99984   0.66023   0.00000  Uiso   1.00
H956   H     0.28580   0.53000   0.70726   0.00000  Uiso   1.00
I957   I     0.18406   0.61649   0.86742   0.00000  Uiso   1.00
I958   I     0.06920   0.86957   0.66451   0.00000  Uiso   1.00
O959   O     0.08262   0.71691   0.61806   0.00000  Uiso   1.00
C960   C     0.07363   0.67169   0.60792   0.00000  Uiso   1.00
H961   H     0.11043   0.65283   0.61111   0.00000  Uiso   1.00
H962   H     0.05201   0.66811   0.57057   0.00000  Uiso   1.00
C963   C     0.04071   0.65222   0.64445   0.00000  Uiso   1.00
H964   H     0.06195   0.65558   0.68194   0.00000  Uiso   1.00
H965   H     0.00399   0.67088   0.64192   0.00000  Uiso   1.00
C966   C     0.02796   0.60356   0.63514   0.00000  Uiso   1.00
H967   H     0.00516   0.59946   0.59843   0.00000  Uiso   1.00
H968   H     0.00466   0.59070   0.66279   0.00000  Uiso   1.00
H969   H     0.06401   0.58404   0.63786   0.00000  Uiso   1.00
O970   O     0.23222   0.80575   0.87752   0.00000  Uiso   1.00
C971   C     0.28507   0.79959   0.89712   0.00000  Uiso   1.00
H972   H     0.30606   0.79055   0.86691   0.00000  Uiso   1.00
H973   H     0.29227   0.77243   0.92501   0.00000  Uiso   1.00
C974   C     0.30846   0.84290   0.91830   0.00000  Uiso   1.00
H975   H     0.30358   0.86922   0.88958   0.00000  Uiso   1.00
H976   H     0.28793   0.85312   0.94846   0.00000  Uiso   1.00
C977   C     0.03271   0.83797   0.93754   0.00000  Uiso   1.00
H978   H     0.03848   0.81241   0.96702   0.00000  Uiso   1.00
H979   H     0.04866   0.86991   0.95245   0.00000  Uiso   1.00
H980   H     0.05425   0.82846   0.90778   0.00000  Uiso   1.00
C981   C     0.50067   0.66468   0.75073   0.00000  Uiso   1.00
C982   C     0.49862   0.83484   0.74931   0.00000  Uiso   1.00
C983   C     0.54315   0.76588   0.55971   0.00000  Uiso   1.00
C984   C     0.46748   0.72123   0.94186   0.00000  Uiso   1.00
C985   C     0.54168   0.76645   0.61014   0.00000  Uiso   1.00
C986   C     0.46724   0.72255   0.89123   0.00000  Uiso   1.00
C987   C     0.45881   0.73240   0.59894   0.00000  Uiso   1.00
C988   C     0.53351   0.77722   0.89927   0.00000  Uiso   1.00
C989   C     0.45786   0.73377   0.54799   0.00000  Uiso   1.00
C990   C     0.53235   0.77866   0.94997   0.00000  Uiso   1.00
C991   C     0.50054   0.74977   0.52725   0.00000  Uiso   1.00
C992   C     0.50015   0.74980   0.97255   0.00000  Uiso   1.00
C993   C     0.40119   0.74982   0.73743   0.00000  Uiso   1.00
C994   C     0.59882   0.74983   0.76255   0.00000  Uiso   1.00
C995   C     0.34576   0.74980   0.73054   0.00000  Uiso   1.00
C996   C     0.65426   0.74931   0.76933   0.00000  Uiso   1.00
C997   C     0.49094   0.54488   0.79337   0.00000  Uiso   1.00
C998   C     0.45579   0.95094   0.71426   0.00000  Uiso   1.00
C999   C     0.49965   0.59064   0.79561   0.00000  Uiso   1.00
C1000  C     0.45841   0.90471   0.71390   0.00000  Uiso   1.00
C1001  C     0.49929   0.61588   0.75188   0.00000  Uiso   1.00
C1002  C     0.49566   0.88273   0.74759   0.00000  Uiso   1.00
C1003  C     0.49588   0.59378   0.70754   0.00000  Uiso   1.00
C1004  C     0.53053   0.90672   0.78040   0.00000  Uiso   1.00
C1005  C     0.49255   0.54807   0.70610   0.00000  Uiso   1.00
C1006  C     0.52913   0.95245   0.77965   0.00000  Uiso   1.00
C1007  C     0.49047   0.52331   0.74871   0.00000  Uiso   1.00
C1008  C     0.49183   0.97489   0.74702   0.00000  Uiso   1.00
Cu1009 Cu    0.50000   0.75000   0.79822   0.00000  Uiso   1.00
Cu1010 Cu    0.50000   0.75001   0.70179   0.00000  Uiso   1.00
H1011  H     0.65872   0.75039   0.69347   0.00000  Uiso   1.00
H1012  H     0.34141   0.74845   0.80633   0.00000  Uiso   1.00
H1013  H     0.49682   0.61177   0.67367   0.00000  Uiso   1.00
H1014  H     0.55946   0.88998   0.80613   0.00000  Uiso   1.00
H1015  H     0.49228   0.53195   0.67162   0.00000  Uiso   1.00
H1016  H     0.55735   0.97047   0.80461   0.00000  Uiso   1.00
H1017  H     0.57791   0.77787   0.54674   0.00000  Uiso   1.00
H1018  H     0.44235   0.69743   0.95642   0.00000  Uiso   1.00
H1019  H     0.57444   0.78001   0.63384   0.00000  Uiso   1.00
H1020  H     0.44123   0.70092   0.86835   0.00000  Uiso   1.00
H1021  H     0.42301   0.72305   0.52510   0.00000  Uiso   1.00
H1022  H     0.55643   0.80274   0.97108   0.00000  Uiso   1.00
N1023  N     0.50000   0.75001   0.62935   0.00000  Uiso   1.00
N1024  N     0.50000   0.74999   0.87066   0.00000  Uiso   1.00
O1025  O     0.50000   0.68573   0.79072   0.00000  Uiso   1.00
O1026  O     0.50000   0.81428   0.70929   0.00000  Uiso   1.00
O1027  O     0.50000   0.68573   0.70928   0.00000  Uiso   1.00
O1028  O     0.50000   0.81427   0.79072   0.00000  Uiso   1.00
O1029  O     0.42495   0.75000   0.78132   0.00000  Uiso   1.00
O1030  O     0.57505   0.75001   0.71868   0.00000  Uiso   1.00
O1031  O     0.42495   0.75000   0.69989   0.00000  Uiso   1.00
O1032  O     0.57505   0.75000   0.80012   0.00000  Uiso   1.00
O1033  O     0.48724   0.52146   0.83623   0.00000  Uiso   1.00
C1034  C     0.43614   0.50493   0.83640   0.00000  Uiso   1.00
H1035  H     0.43721   0.98175   0.86800   0.00000  Uiso   1.00
H1036  H     0.42223   0.98509   0.80388   0.00000  Uiso   1.00
C1037  C     0.39745   0.54165   0.84208   0.00000  Uiso   1.00
H1038  H     0.41016   0.55929   0.87655   0.00000  Uiso   1.00
H1039  H     0.39579   0.56582   0.81131   0.00000  Uiso   1.00
C1040  C     0.34305   0.52266   0.84270   0.00000  Uiso   1.00
H1041  H     0.66251   0.50567   0.80803   0.00000  Uiso   1.00
H1042  H     0.64931   0.54982   0.84694   0.00000  Uiso   1.00
H1043  H     0.34292   0.99881   0.87357   0.00000  Uiso   1.00
O1044  O     0.41861   0.97232   0.68164   0.00000  Uiso   1.00
C1045  C     0.37534   0.98160   0.70482   0.00000  Uiso   1.00
H1046  H     0.38197   0.51359   0.72391   0.00000  Uiso   1.00
H1047  H     0.36752   0.95518   0.73152   0.00000  Uiso   1.00
C1048  C     0.66061   0.98540   0.66635   0.00000  Uiso   1.00
H1049  H     0.33398   0.51087   0.63862   0.00000  Uiso   1.00
H1050  H     0.65313   0.95328   0.64773   0.00000  Uiso   1.00
C1051  C     0.61309   0.99759   0.68907   0.00000  Uiso   1.00
H1052  H     0.60521   0.97188   0.71613   0.00000  Uiso   1.00
H1053  H     0.57889   0.99984   0.66023   0.00000  Uiso   1.00
H1054  H     0.61913   0.53000   0.70726   0.00000  Uiso   1.00
I1055  I     0.51740   0.61649   0.86742   0.00000  Uiso   1.00
I1056  I     0.40254   0.86957   0.66451   0.00000  Uiso   1.00
O1057  O     0.41596   0.71691   0.61806   0.00000  Uiso   1.00
C1058  C     0.40696   0.67169   0.60792   0.00000  Uiso   1.00
H1059  H     0.44376   0.65283   0.61111   0.00000  Uiso   1.00
H1060  H     0.38535   0.66811   0.57057   0.00000  Uiso   1.00
C1061  C     0.37404   0.65222   0.64445   0.00000  Uiso   1.00
H1062  H     0.39529   0.65558   0.68194   0.00000  Uiso   1.00
H1063  H     0.33732   0.67088   0.64192   0.00000  Uiso   1.00
C1064  C     0.36130   0.60356   0.63514   0.00000  Uiso   1.00
H1065  H     0.33849   0.59946   0.59843   0.00000  Uiso   1.00
H1066  H     0.33799   0.59070   0.66279   0.00000  Uiso   1.00
H1067  H     0.39735   0.58404   0.63786   0.00000  Uiso   1.00
O1068  O     0.56556   0.80575   0.87752   0.00000  Uiso   1.00
C1069  C     0.61841   0.79959   0.89712   0.00000  Uiso   1.00
H1070  H     0.63939   0.79055   0.86691   0.00000  Uiso   1.00
H1071  H     0.62560   0.77243   0.92501   0.00000  Uiso   1.00
C1072  C     0.64180   0.84290   0.91830   0.00000  Uiso   1.00
H1073  H     0.63692   0.86922   0.88958   0.00000  Uiso   1.00
H1074  H     0.62127   0.85312   0.94846   0.00000  Uiso   1.00
C1075  C     0.36604   0.83797   0.93754   0.00000  Uiso   1.00
H1076  H     0.37181   0.81241   0.96702   0.00000  Uiso   1.00
H1077  H     0.38199   0.86991   0.95245   0.00000  Uiso   1.00
H1078  H     0.38758   0.82846   0.90778   0.00000  Uiso   1.00
C1079  C     0.83401   0.66468   0.75073   0.00000  Uiso   1.00
C1080  C     0.83195   0.83484   0.74931   0.00000  Uiso   1.00
C1081  C     0.87648   0.76588   0.55971   0.00000  Uiso   1.00
C1082  C     0.80081   0.72123   0.94186   0.00000  Uiso   1.00
C1083  C     0.87502   0.76645   0.61014   0.00000  Uiso   1.00
C1084  C     0.80057   0.72255   0.89123   0.00000  Uiso   1.00
C1085  C     0.79215   0.73240   0.59894   0.00000  Uiso   1.00
C1086  C     0.86685   0.77722   0.89927   0.00000  Uiso   1.00
C1087  C     0.79120   0.73377   0.54799   0.00000  Uiso   1.00
C1088  C     0.86568   0.77866   0.94997   0.00000  Uiso   1.00
C1089  C     0.83387   0.74977   0.52725   0.00000  Uiso   1.00
C1090  C     0.83348   0.74980   0.97255   0.00000  Uiso   1.00
C1091  C     0.73452   0.74982   0.73743   0.00000  Uiso   1.00
C1092  C     0.93215   0.74983   0.76255   0.00000  Uiso   1.00
C1093  C     0.67909   0.74980   0.73054   0.00000  Uiso   1.00
C1094  C     0.98759   0.74931   0.76933   0.00000  Uiso   1.00
C1095  C     0.82428   0.54488   0.79337   0.00000  Uiso   1.00
C1096  C     0.78912   0.95094   0.71426   0.00000  Uiso   1.00
C1097  C     0.83298   0.59064   0.79561   0.00000  Uiso   1.00
C1098  C     0.79175   0.90471   0.71390   0.00000  Uiso   1.00
C1099  C     0.83263   0.61588   0.75188   0.00000  Uiso   1.00
C1100  C     0.82900   0.88273   0.74759   0.00000  Uiso   1.00
C1101  C     0.82922   0.59378   0.70754   0.00000  Uiso   1.00
C1102  C     0.86386   0.90672   0.78040   0.00000  Uiso   1.00
C1103  C     0.82588   0.54807   0.70610   0.00000  Uiso   1.00
C1104  C     0.86246   0.95245   0.77965   0.00000  Uiso   1.00
C1105  C     0.82380   0.52331   0.74871   0.00000  Uiso   1.00
C1106  C     0.82517   0.97489   0.74702   0.00000  Uiso   1.00
Cu1107 Cu    0.83333   0.75000   0.79822   0.00000  Uiso   1.00
Cu1108 Cu    0.83333   0.75001   0.70179   0.00000  Uiso   1.00
H1109  H     0.99206   0.75039   0.69347   0.00000  Uiso   1.00
H1110  H     0.67475   0.74845   0.80633   0.00000  Uiso   1.00
H1111  H     0.83015   0.61177   0.67367   0.00000  Uiso   1.00
H1112  H     0.89279   0.88998   0.80613   0.00000  Uiso   1.00
H1113  H     0.82561   0.53195   0.67162   0.00000  Uiso   1.00
H1114  H     0.89068   0.97047   0.80461   0.00000  Uiso   1.00
H1115  H     0.91124   0.77787   0.54674   0.00000  Uiso   1.00
H1116  H     0.77568   0.69743   0.95642   0.00000  Uiso   1.00
H1117  H     0.90777   0.78001   0.63384   0.00000  Uiso   1.00
H1118  H     0.77457   0.70092   0.86835   0.00000  Uiso   1.00
H1119  H     0.75634   0.72305   0.52510   0.00000  Uiso   1.00
H1120  H     0.88977   0.80274   0.97108   0.00000  Uiso   1.00
N1121  N     0.83333   0.75001   0.62935   0.00000  Uiso   1.00
N1122  N     0.83333   0.74999   0.87066   0.00000  Uiso   1.00
O1123  O     0.83334   0.68573   0.79072   0.00000  Uiso   1.00
O1124  O     0.83333   0.81428   0.70929   0.00000  Uiso   1.00
O1125  O     0.83334   0.68573   0.70928   0.00000  Uiso   1.00
O1126  O     0.83333   0.81427   0.79072   0.00000  Uiso   1.00
O1127  O     0.75828   0.75000   0.78132   0.00000  Uiso   1.00
O1128  O     0.90839   0.75001   0.71868   0.00000  Uiso   1.00
O1129  O     0.75828   0.75000   0.69989   0.00000  Uiso   1.00
O1130  O     0.90839   0.75000   0.80012   0.00000  Uiso   1.00
O1131  O     0.82058   0.52146   0.83623   0.00000  Uiso   1.00
C1132  C     0.76947   0.50493   0.83640   0.00000  Uiso   1.00
H1133  H     0.77055   0.98175   0.86800   0.00000  Uiso   1.00
H1134  H     0.75557   0.98509   0.80388   0.00000  Uiso   1.00
C1135  C     0.73078   0.54165   0.84208   0.00000  Uiso   1.00
H1136  H     0.74349   0.55929   0.87655   0.00000  Uiso   1.00
H1137  H     0.72912   0.56582   0.81131   0.00000  Uiso   1.00
C1138  C     0.67639   0.52266   0.84270   0.00000  Uiso   1.00
H1139  H     0.99584   0.50567   0.80803   0.00000  Uiso   1.00
H1140  H     0.98265   0.54982   0.84694   0.00000  Uiso   1.00
H1141  H     0.67626   0.99881   0.87357   0.00000  Uiso   1.00
O1142  O     0.75194   0.97232   0.68164   0.00000  Uiso   1.00
C1143  C     0.70868   0.98160   0.70482   0.00000  Uiso   1.00
H1144  H     0.71530   0.51359   0.72391   0.00000  Uiso   1.00
H1145  H     0.70085   0.95518   0.73152   0.00000  Uiso   1.00
C1146  C     0.99394   0.98540   0.66635   0.00000  Uiso   1.00
H1147  H     0.66731   0.51087   0.63862   0.00000  Uiso   1.00
H1148  H     0.98646   0.95328   0.64773   0.00000  Uiso   1.00
C1149  C     0.94642   0.99759   0.68907   0.00000  Uiso   1.00
H1150  H     0.93854   0.97188   0.71613   0.00000  Uiso   1.00
H1151  H     0.91223   0.99984   0.66023   0.00000  Uiso   1.00
H1152  H     0.95247   0.53000   0.70726   0.00000  Uiso   1.00
I1153  I     0.85073   0.61649   0.86742   0.00000  Uiso   1.00
I1154  I     0.73587   0.86957   0.66451   0.00000  Uiso   1.00
O1155  O     0.74929   0.71691   0.61806   0.00000  Uiso   1.00
C1156  C     0.74029   0.67169   0.60792   0.00000  Uiso   1.00
H1157  H     0.77709   0.65283   0.61111   0.00000  Uiso   1.00
H1158  H     0.71868   0.66811   0.57057   0.00000  Uiso   1.00
C1159  C     0.70738   0.65222   0.64445   0.00000  Uiso   1.00
H1160  H     0.72862   0.65558   0.68194   0.00000  Uiso   1.00
H1161  H     0.67066   0.67088   0.64192   0.00000  Uiso   1.00
C1162  C     0.69463   0.60356   0.63514   0.00000  Uiso   1.00
H1163  H     0.67182   0.59946   0.59843   0.00000  Uiso   1.00
H1164  H     0.67133   0.59070   0.66279   0.00000  Uiso   1.00
H1165  H     0.73068   0.58404   0.63786   0.00000  Uiso   1.00
O1166  O     0.89889   0.80575   0.87752   0.00000  Uiso   1.00
C1167  C     0.95174   0.79959   0.89712   0.00000  Uiso   1.00
H1168  H     0.97273   0.79055   0.86691   0.00000  Uiso   1.00
H1169  H     0.95894   0.77243   0.92501   0.00000  Uiso   1.00
C1170  C     0.97513   0.84290   0.91830   0.00000  Uiso   1.00
H1171  H     0.97025   0.86922   0.88958   0.00000  Uiso   1.00
H1172  H     0.95460   0.85312   0.94846   0.00000  Uiso   1.00
C1173  C     0.69938   0.83797   0.93754   0.00000  Uiso   1.00
H1174  H     0.70514   0.81241   0.96702   0.00000  Uiso   1.00
H1175  H     0.71532   0.86991   0.95245   0.00000  Uiso   1.00
H1176  H     0.72092   0.82846   0.90778   0.00000  Uiso   1.00
loop_
_geom_bond_atom_site_label_1
_geom_bond_atom_site_label_2
_geom_bond_distance
_geom_bond_site_symmetry_2
_ccdc_geom_bond_type
C1     C21     1.477   .     S
C1     O47     1.304   .     A
C1     O45     1.294   .     A
C2     O46     1.290   .     A
C2     C22     1.452   .     S
C2     O48     1.294   .     A
C3     C5      1.408   .     A
C3     C11     1.412   .     A
C3     H37     1.081   .     S
C4     C12     1.413   .     A
C4     C6      1.406   .     A
C4     H38     1.080   .     S
C5     H39     1.081   .     S
C5     N43     1.365   .     A
C6     N44     1.362   .     A
C6     H40     1.082   .     S
C7     N43     1.374   .     A
C7     O77     1.381   .     S
C7     C9      1.412   .     A
C8     O88     1.386   .     S
C8     N44     1.370   .     A
C8     C10     1.415   .     A
C9     C11     1.405   .     A
C9     H41     1.080   .     S
C10    H42     1.080   .     S
C10    C12     1.407   .     A
C11    C600    1.519   1_554 S
C12    C599    1.519   .     S
C13    O51     1.290   .     A
C13    O49     1.284   .     A
C13    C15     1.432   .     S
C14    O52     1.291   .     A
C14    C16     1.432   .     S
C14    O50     1.284   .     A
C15    C212    1.337   1_455 S
C15    H227    1.087   1_455 S
C16    C113    1.337   .     S
C16    H130    1.087   .     S
C17    C27     1.412   .     A
C17    O53     1.389   .     S
C17    C19     1.402   .     A
C18    O64     1.385   .     S
C18    C28     1.412   .     A
C18    C20     1.402   .     A
C19    C21     1.422   .     A
C19    I75     2.142   .     S
C20    I76     2.137   .     S
C20    C22     1.410   .     A
C21    C23     1.404   .     A
C22    C24     1.396   .     A
C23    H33     1.082   .     S
C23    C25     1.386   .     A
C24    C26     1.385   .     A
C24    H34     1.084   .     S
C25    H35     1.083   .     S
C25    C27     1.396   .     A
C26    H36     1.084   .     S
C26    C28     1.402   .     A
C27    C322    1.468   1_545 S
C28    C321    1.468   .     S
Cu29   O49     1.946   .     S
Cu29   O48     1.952   .     S
Cu29   O45     1.960   .     S
Cu29   Cu30    2.680   .     S
Cu29   N44     2.013   .     S
Cu29   O52     1.952   .     S
Cu30   O51     1.952   .     S
Cu30   O50     1.946   .     S
Cu30   O47     1.952   .     S
Cu30   N43     2.013   .     S
Cu30   O46     1.960   .     S
H31    C113    1.087   .     S
H32    C212    1.087   1_455 S
O53    C54     1.419   .     S
C54    C57     1.538   .     S
C54    H349    1.111   1_545 S
C54    H350    1.108   1_545 S
H55    C348    1.111   .     S
H56    C348    1.108   .     S
C57    H59     1.111   .     S
C57    C60     1.527   .     S
C57    H58     1.111   .     S
C60    H257    1.111   1_455 S
C60    H258    1.111   1_455 S
C60    H357    1.111   1_545 S
H61    C158    1.111   .     S
H62    C158    1.111   .     S
H63    C354    1.111   .     S
O64    C65     1.415   .     S
C65    H67     1.118   .     S
C65    H360    1.112   .     S
C65    C264    1.527   1_455 S
H66    C359    1.112   1_545 S
C68    C71     1.526   .     S
C68    H70     1.111   .     S
C68    C163    1.527   .     S
C68    H461    1.110   .     S
H69    C558    1.110   1_445 S
C71    H73     1.110   .     S
C71    H72     1.110   .     S
C71    H368    1.111   .     S
H74    C365    1.111   1_545 S
O77    C78     1.412   .     S
C78    H80     1.112   .     S
C78    H79     1.116   .     S
C78    C81     1.529   .     S
C81    H82     1.111   .     S
C81    H83     1.112   .     S
C81    C84     1.524   .     S
C84    H87     1.110   .     S
C84    H85     1.111   .     S
C84    H86     1.110   .     S
O88    C89     1.420   .     S
C89    C92     1.529   .     S
C89    H91     1.117   .     S
C89    H90     1.109   .     S
C92    H94     1.111   .     S
C92    H93     1.112   .     S
C92    C193    1.528   .     S
C95    H96     1.111   .     S
C95    H98     1.111   .     S
C95    H97     1.110   .     S
C95    C288    1.528   1_455 S
C99    C119    1.477   .     S
C99    O145    1.304   .     A
C99    O143    1.294   .     A
C100   O144    1.290   .     A
C100   C120    1.452   .     S
C100   O146    1.294   .     A
C101   C103    1.408   .     A
C101   C109    1.412   .     A
C101   H135    1.081   .     S
C102   C110    1.413   .     A
C102   C104    1.406   .     A
C102   H136    1.080   .     S
C103   H137    1.081   .     S
C103   N141    1.365   .     A
C104   N142    1.362   .     A
C104   H138    1.082   .     S
C105   N141    1.374   .     A
C105   O175    1.381   .     S
C105   C107    1.412   .     A
C106   O186    1.386   .     S
C106   N142    1.370   .     A
C106   C108    1.415   .     A
C107   C109    1.405   .     A
C107   H139    1.080   .     S
C108   H140    1.080   .     S
C108   C110    1.407   .     A
C109   C698    1.519   1_554 S
C110   C697    1.519   .     S
C111   O149    1.290   .     A
C111   O147    1.284   .     A
C111   C113    1.432   .     S
C112   O150    1.291   .     A
C112   C114    1.432   .     S
C112   O148    1.284   .     A
C114   C211    1.337   .     S
C114   H228    1.087   .     S
C115   C125    1.412   .     A
C115   O151    1.389   .     S
C115   C117    1.402   .     A
C116   O162    1.385   .     S
C116   C126    1.412   .     A
C116   C118    1.402   .     A
C117   C119    1.422   .     A
C117   I173    2.142   .     S
C118   I174    2.137   .     S
C118   C120    1.410   .     A
C119   C121    1.404   .     A
C120   C122    1.396   .     A
C121   H131    1.082   .     S
C121   C123    1.386   .     A
C122   C124    1.385   .     A
C122   H132    1.084   .     S
C123   H133    1.083   .     S
C123   C125    1.396   .     A
C124   H134    1.084   .     S
C124   C126    1.402   .     A
C125   C420    1.468   1_545 S
C126   C419    1.468   .     S
Cu127  O147    1.946   .     S
Cu127  O146    1.952   .     S
Cu127  O143    1.960   .     S
Cu127  Cu128   2.680   .     S
Cu127  N142    2.013   .     S
Cu127  O150    1.952   .     S
Cu128  O149    1.952   .     S
Cu128  O148    1.946   .     S
Cu128  O145    1.952   .     S
Cu128  N141    2.013   .     S
Cu128  O144    1.960   .     S
H129   C211    1.087   .     S
O151   C152    1.419   .     S
C152   C155    1.538   .     S
C152   H447    1.111   1_545 S
C152   H448    1.108   1_545 S
H153   C446    1.111   .     S
H154   C446    1.108   .     S
C155   H157    1.111   .     S
C155   C158    1.527   .     S
C155   H156    1.111   .     S
C158   H455    1.111   1_545 S
H159   C256    1.111   .     S
H160   C256    1.111   .     S
H161   C452    1.111   .     S
O162   C163    1.415   .     S
C163   H165    1.118   .     S
C163   H458    1.112   .     S
H164   C457    1.112   1_545 S
C166   C169    1.526   .     S
C166   H168    1.111   .     S
C166   C261    1.527   .     S
C166   H559    1.110   .     S
H167   C362    1.110   1_545 S
C169   H171    1.110   .     S
C169   H170    1.110   .     S
C169   H466    1.111   .     S
H172   C463    1.111   1_545 S
O175   C176    1.412   .     S
C176   H178    1.112   .     S
C176   H177    1.116   .     S
C176   C179    1.529   .     S
C179   H180    1.111   .     S
C179   H181    1.112   .     S
C179   C182    1.524   .     S
C182   H185    1.110   .     S
C182   H183    1.111   .     S
C182   H184    1.110   .     S
O186   C187    1.420   .     S
C187   C190    1.529   .     S
C187   H189    1.117   .     S
C187   H188    1.109   .     S
C190   H192    1.111   .     S
C190   H191    1.112   .     S
C190   C291    1.528   .     S
C193   H194    1.111   .     S
C193   H196    1.111   .     S
C193   H195    1.110   .     S
C197   C217    1.477   .     S
C197   O243    1.304   .     A
C197   O241    1.294   .     A
C198   O242    1.290   .     A
C198   C218    1.452   .     S
C198   O244    1.294   .     A
C199   C201    1.408   .     A
C199   C207    1.412   .     A
C199   H233    1.081   .     S
C200   C208    1.413   .     A
C200   C202    1.406   .     A
C200   H234    1.080   .     S
C201   H235    1.081   .     S
C201   N239    1.365   .     A
C202   N240    1.362   .     A
C202   H236    1.082   .     S
C203   N239    1.374   .     A
C203   O273    1.381   .     S
C203   C205    1.412   .     A
C204   O284    1.386   .     S
C204   N240    1.370   .     A
C204   C206    1.415   .     A
C205   C207    1.405   .     A
C205   H237    1.080   .     S
C206   H238    1.080   .     S
C206   C208    1.407   .     A
C207   C796    1.519   1_554 S
C208   C795    1.519   .     S
C209   O247    1.290   .     A
C209   O245    1.284   .     A
C209   C211    1.432   .     S
C210   O248    1.291   .     A
C210   C212    1.432   .     S
C210   O246    1.284   .     A
C212   C15     1.337   1_655 S
C212   H32     1.087   1_655 S
C213   C223    1.412   .     A
C213   O249    1.389   .     S
C213   C215    1.402   .     A
C214   O260    1.385   .     S
C214   C224    1.412   .     A
C214   C216    1.402   .     A
C215   C217    1.422   .     A
C215   I271    2.142   .     S
C216   I272    2.137   .     S
C216   C218    1.410   .     A
C217   C219    1.404   .     A
C218   C220    1.396   .     A
C219   H229    1.082   .     S
C219   C221    1.386   .     A
C220   C222    1.385   .     A
C220   H230    1.084   .     S
C221   H231    1.083   .     S
C221   C223    1.396   .     A
C222   H232    1.084   .     S
C222   C224    1.402   .     A
C223   C518    1.468   1_545 S
C224   C517    1.468   .     S
Cu225  O245    1.946   .     S
Cu225  O244    1.952   .     S
Cu225  O241    1.960   .     S
Cu225  Cu226   2.680   .     S
Cu225  N240    2.013   .     S
Cu225  O248    1.952   .     S
Cu226  O247    1.952   .     S
Cu226  O246    1.946   .     S
Cu226  O243    1.952   .     S
Cu226  N239    2.013   .     S
Cu226  O242    1.960   .     S
H227   C15     1.087   1_655 S
O249   C250    1.419   .     S
C250   C253    1.538   .     S
C250   H545    1.111   1_545 S
C250   H546    1.108   1_545 S
H251   C544    1.111   .     S
H252   C544    1.108   .     S
C253   H255    1.111   .     S
C253   C256    1.527   .     S
C253   H254    1.111   .     S
C256   H553    1.111   1_545 S
H257   C60     1.111   1_655 S
H258   C60     1.111   1_655 S
H259   C550    1.111   .     S
O260   C261    1.415   .     S
C261   H263    1.118   .     S
C261   H556    1.112   .     S
H262   C555    1.112   1_545 S
C264   C267    1.526   .     S
C264   H266    1.111   .     S
C264   C65     1.527   1_655 S
C264   H363    1.110   1_655 S
H265   C460    1.110   1_545 S
C267   H269    1.110   .     S
C267   H268    1.110   .     S
C267   H564    1.111   .     S
H270   C561    1.111   1_545 S
O273   C274    1.412   .     S
C274   H276    1.112   .     S
C274   H275    1.116   .     S
C274   C277    1.529   .     S
C277   H278    1.111   .     S
C277   H279    1.112   .     S
C277   C280    1.524   .     S
C280   H283    1.110   .     S
C280   H281    1.111   .     S
C280   H282    1.110   .     S
O284   C285    1.420   .     S
C285   C288    1.529   .     S
C285   H287    1.117   .     S
C285   H286    1.109   .     S
C288   H290    1.111   .     S
C288   H289    1.112   .     S
C288   C95     1.528   1_655 S
C291   H292    1.111   .     S
C291   H294    1.111   .     S
C291   H293    1.110   .     S
C295   C315    1.477   .     S
C295   O341    1.304   .     A
C295   O339    1.294   .     A
C296   O340    1.290   .     A
C296   C316    1.452   .     S
C296   O342    1.294   .     A
C297   C299    1.408   .     A
C297   C305    1.412   .     A
C297   H331    1.081   .     S
C298   C306    1.413   .     A
C298   C300    1.406   .     A
C298   H332    1.080   .     S
C299   H333    1.081   .     S
C299   N337    1.365   .     A
C300   N338    1.362   .     A
C300   H334    1.082   .     S
C301   N337    1.374   .     A
C301   O371    1.381   .     S
C301   C303    1.412   .     A
C302   O382    1.386   .     S
C302   N338    1.370   .     A
C302   C304    1.415   .     A
C303   C305    1.405   .     A
C303   H335    1.080   .     S
C304   H336    1.080   .     S
C304   C306    1.407   .     A
C305   C894    1.519   1_554 S
C306   C893    1.519   .     S
C307   O345    1.290   .     A
C307   O343    1.284   .     A
C307   C309    1.432   .     S
C308   O346    1.291   .     A
C308   C310    1.432   .     S
C308   O344    1.284   .     A
C309   C506    1.337   1_455 S
C309   H521    1.087   1_455 S
C310   C407    1.337   .     S
C310   H424    1.087   .     S
C311   C321    1.412   .     A
C311   O347    1.389   .     S
C311   C313    1.402   .     A
C312   O358    1.385   .     S
C312   C322    1.412   .     A
C312   C314    1.402   .     A
C313   C315    1.422   .     A
C313   I369    2.142   .     S
C314   I370    2.137   .     S
C314   C316    1.410   .     A
C315   C317    1.404   .     A
C316   C318    1.396   .     A
C317   H327    1.082   .     S
C317   C319    1.386   .     A
C318   C320    1.385   .     A
C318   H328    1.084   .     S
C319   H329    1.083   .     S
C319   C321    1.396   .     A
C320   H330    1.084   .     S
C320   C322    1.402   .     A
C322   C27     1.468   1_565 S
Cu323  O343    1.946   .     S
Cu323  O342    1.952   .     S
Cu323  O339    1.960   .     S
Cu323  Cu324   2.680   .     S
Cu323  N338    2.013   .     S
Cu323  O346    1.952   .     S
Cu324  O345    1.952   .     S
Cu324  O344    1.946   .     S
Cu324  O341    1.952   .     S
Cu324  N337    2.013   .     S
Cu324  O340    1.960   .     S
H325   C407    1.087   .     S
H326   C506    1.087   1_455 S
O347   C348    1.419   .     S
C348   C351    1.538   .     S
H349   C54     1.111   1_565 S
H350   C54     1.108   1_565 S
C351   H353    1.111   .     S
C351   C354    1.527   .     S
C351   H352    1.111   .     S
C354   H551    1.111   1_455 S
C354   H552    1.111   1_455 S
H355   C452    1.111   .     S
H356   C452    1.111   .     S
H357   C60     1.111   1_565 S
O358   C359    1.415   .     S
C359   H361    1.118   .     S
C359   H66     1.112   1_565 S
C359   C558    1.527   1_455 S
C362   C365    1.526   .     S
C362   H364    1.111   .     S
C362   C457    1.527   .     S
C362   H167    1.110   1_565 S
H363   C264    1.110   1_455 S
C365   H367    1.110   .     S
C365   H366    1.110   .     S
C365   H74     1.111   1_565 S
O371   C372    1.412   .     S
C372   H374    1.112   .     S
C372   H373    1.116   .     S
C372   C375    1.529   .     S
C375   H376    1.111   .     S
C375   H377    1.112   .     S
C375   C378    1.524   .     S
C378   H381    1.110   .     S
C378   H379    1.111   .     S
C378   H380    1.110   .     S
O382   C383    1.420   .     S
C383   C386    1.529   .     S
C383   H385    1.117   .     S
C383   H384    1.109   .     S
C386   H388    1.111   .     S
C386   H387    1.112   .     S
C386   C487    1.528   .     S
C389   H390    1.111   .     S
C389   H392    1.111   .     S
C389   H391    1.110   .     S
C389   C582    1.528   1_455 S
C393   C413    1.477   .     S
C393   O439    1.304   .     A
C393   O437    1.294   .     A
C394   O438    1.290   .     A
C394   C414    1.452   .     S
C394   O440    1.294   .     A
C395   C397    1.408   .     A
C395   C403    1.412   .     A
C395   H429    1.081   .     S
C396   C404    1.413   .     A
C396   C398    1.406   .     A
C396   H430    1.080   .     S
C397   H431    1.081   .     S
C397   N435    1.365   .     A
C398   N436    1.362   .     A
C398   H432    1.082   .     S
C399   N435    1.374   .     A
C399   O469    1.381   .     S
C399   C401    1.412   .     A
C400   O480    1.386   .     S
C400   N436    1.370   .     A
C400   C402    1.415   .     A
C401   C403    1.405   .     A
C401   H433    1.080   .     S
C402   H434    1.080   .     S
C402   C404    1.407   .     A
C403   C992    1.519   1_554 S
C404   C991    1.519   .     S
C405   O443    1.290   .     A
C405   O441    1.284   .     A
C405   C407    1.432   .     S
C406   O444    1.291   .     A
C406   C408    1.432   .     S
C406   O442    1.284   .     A
C408   C505    1.337   .     S
C408   H522    1.087   .     S
C409   C419    1.412   .     A
C409   O445    1.389   .     S
C409   C411    1.402   .     A
C410   O456    1.385   .     S
C410   C420    1.412   .     A
C410   C412    1.402   .     A
C411   C413    1.422   .     A
C411   I467    2.142   .     S
C412   I468    2.137   .     S
C412   C414    1.410   .     A
C413   C415    1.404   .     A
C414   C416    1.396   .     A
C415   H425    1.082   .     S
C415   C417    1.386   .     A
C416   C418    1.385   .     A
C416   H426    1.084   .     S
C417   H427    1.083   .     S
C417   C419    1.396   .     A
C418   H428    1.084   .     S
C418   C420    1.402   .     A
C420   C125    1.468   1_565 S
Cu421  O441    1.946   .     S
Cu421  O440    1.952   .     S
Cu421  O437    1.960   .     S
Cu421  Cu422   2.680   .     S
Cu421  N436    2.013   .     S
Cu421  O444    1.952   .     S
Cu422  O443    1.952   .     S
Cu422  O442    1.946   .     S
Cu422  O439    1.952   .     S
Cu422  N435    2.013   .     S
Cu422  O438    1.960   .     S
H423   C505    1.087   .     S
O445   C446    1.419   .     S
C446   C449    1.538   .     S
H447   C152    1.111   1_565 S
H448   C152    1.108   1_565 S
C449   H451    1.111   .     S
C449   C452    1.527   .     S
C449   H450    1.111   .     S
H453   C550    1.111   .     S
H454   C550    1.111   .     S
H455   C158    1.111   1_565 S
O456   C457    1.415   .     S
C457   H459    1.118   .     S
C457   H164    1.112   1_565 S
C460   C463    1.526   .     S
C460   H462    1.111   .     S
C460   C555    1.527   .     S
C460   H265    1.110   1_565 S
C463   H465    1.110   .     S
C463   H464    1.110   .     S
C463   H172    1.111   1_565 S
O469   C470    1.412   .     S
C470   H472    1.112   .     S
C470   H471    1.116   .     S
C470   C473    1.529   .     S
C473   H474    1.111   .     S
C473   H475    1.112   .     S
C473   C476    1.524   .     S
C476   H479    1.110   .     S
C476   H477    1.111   .     S
C476   H478    1.110   .     S
O480   C481    1.420   .     S
C481   C484    1.529   .     S
C481   H483    1.117   .     S
C481   H482    1.109   .     S
C484   H486    1.111   .     S
C484   H485    1.112   .     S
C484   C585    1.528   .     S
C487   H488    1.111   .     S
C487   H490    1.111   .     S
C487   H489    1.110   .     S
C491   C511    1.477   .     S
C491   O537    1.304   .     A
C491   O535    1.294   .     A
C492   O536    1.290   .     A
C492   C512    1.452   .     S
C492   O538    1.294   .     A
C493   C495    1.408   .     A
C493   C501    1.412   .     A
C493   H527    1.081   .     S
C494   C502    1.413   .     A
C494   C496    1.406   .     A
C494   H528    1.080   .     S
C495   H529    1.081   .     S
C495   N533    1.365   .     A
C496   N534    1.362   .     A
C496   H530    1.082   .     S
C497   N533    1.374   .     A
C497   O567    1.381   .     S
C497   C499    1.412   .     A
C498   O578    1.386   .     S
C498   N534    1.370   .     A
C498   C500    1.415   .     A
C499   C501    1.405   .     A
C499   H531    1.080   .     S
C500   H532    1.080   .     S
C500   C502    1.407   .     A
C501   C1090   1.519   1_554 S
C502   C1089   1.519   .     S
C503   O541    1.290   .     A
C503   O539    1.284   .     A
C503   C505    1.432   .     S
C504   O542    1.291   .     A
C504   C506    1.432   .     S
C504   O540    1.284   .     A
C506   C309    1.337   1_655 S
C506   H326    1.087   1_655 S
C507   C517    1.412   .     A
C507   O543    1.389   .     S
C507   C509    1.402   .     A
C508   O554    1.385   .     S
C508   C518    1.412   .     A
C508   C510    1.402   .     A
C509   C511    1.422   .     A
C509   I565    2.142   .     S
C510   I566    2.137   .     S
C510   C512    1.410   .     A
C511   C513    1.404   .     A
C512   C514    1.396   .     A
C513   H523    1.082   .     S
C513   C515    1.386   .     A
C514   C516    1.385   .     A
C514   H524    1.084   .     S
C515   H525    1.083   .     S
C515   C517    1.396   .     A
C516   H526    1.084   .     S
C516   C518    1.402   .     A
C518   C223    1.468   1_565 S
Cu519  O539    1.946   .     S
Cu519  O538    1.952   .     S
Cu519  O535    1.960   .     S
Cu519  Cu520   2.680   .     S
Cu519  N534    2.013   .     S
Cu519  O542    1.952   .     S
Cu520  O541    1.952   .     S
Cu520  O540    1.946   .     S
Cu520  O537    1.952   .     S
Cu520  N533    2.013   .     S
Cu520  O536    1.960   .     S
H521   C309    1.087   1_655 S
O543   C544    1.419   .     S
C544   C547    1.538   .     S
H545   C250    1.111   1_565 S
H546   C250    1.108   1_565 S
C547   H549    1.111   .     S
C547   C550    1.527   .     S
C547   H548    1.111   .     S
H551   C354    1.111   1_655 S
H552   C354    1.111   1_655 S
H553   C256    1.111   1_565 S
O554   C555    1.415   .     S
C555   H557    1.118   .     S
C555   H262    1.112   1_565 S
C558   C561    1.526   .     S
C558   H560    1.111   .     S
C558   C359    1.527   1_655 S
C558   H69     1.110   1_665 S
C561   H563    1.110   .     S
C561   H562    1.110   .     S
C561   H270    1.111   1_565 S
O567   C568    1.412   .     S
C568   H570    1.112   .     S
C568   H569    1.116   .     S
C568   C571    1.529   .     S
C571   H572    1.111   .     S
C571   H573    1.112   .     S
C571   C574    1.524   .     S
C574   H577    1.110   .     S
C574   H575    1.111   .     S
C574   H576    1.110   .     S
O578   C579    1.420   .     S
C579   C582    1.529   .     S
C579   H581    1.117   .     S
C579   H580    1.109   .     S
C582   H584    1.111   .     S
C582   H583    1.112   .     S
C582   C389    1.528   1_655 S
C585   H586    1.111   .     S
C585   H588    1.111   .     S
C585   H587    1.110   .     S
C589   C609    1.477   .     S
C589   O635    1.304   .     A
C589   O633    1.294   .     A
C590   O634    1.290   .     A
C590   C610    1.452   .     S
C590   O636    1.294   .     A
C591   C593    1.408   .     A
C591   C599    1.412   .     A
C591   H625    1.081   .     S
C592   C600    1.413   .     A
C592   C594    1.406   .     A
C592   H626    1.080   .     S
C593   H627    1.081   .     S
C593   N631    1.365   .     A
C594   N632    1.362   .     A
C594   H628    1.082   .     S
C595   N631    1.374   .     A
C595   O665    1.381   .     S
C595   C597    1.412   .     A
C596   O676    1.386   .     S
C596   N632    1.370   .     A
C596   C598    1.415   .     A
C597   C599    1.405   .     A
C597   H629    1.080   .     S
C598   H630    1.080   .     S
C598   C600    1.407   .     A
C600   C11     1.519   1_556 S
C601   O639    1.290   .     A
C601   O637    1.284   .     A
C601   C603    1.432   .     S
C602   O640    1.291   .     A
C602   C604    1.432   .     S
C602   O638    1.284   .     A
C603   C800    1.337   1_455 S
C603   H815    1.087   1_455 S
C604   C701    1.337   .     S
C604   H718    1.087   .     S
C605   C615    1.412   .     A
C605   O641    1.389   .     S
C605   C607    1.402   .     A
C606   O652    1.385   .     S
C606   C616    1.412   .     A
C606   C608    1.402   .     A
C607   C609    1.422   .     A
C607   I663    2.142   .     S
C608   I664    2.137   .     S
C608   C610    1.410   .     A
C609   C611    1.404   .     A
C610   C612    1.396   .     A
C611   H621    1.082   .     S
C611   C613    1.386   .     A
C612   C614    1.385   .     A
C612   H622    1.084   .     S
C613   H623    1.083   .     S
C613   C615    1.396   .     A
C614   H624    1.084   .     S
C614   C616    1.402   .     A
C615   C910    1.468   1_545 S
C616   C909    1.468   .     S
Cu617  O637    1.946   .     S
Cu617  O636    1.952   .     S
Cu617  O633    1.960   .     S
Cu617  Cu618   2.680   .     S
Cu617  N632    2.013   .     S
Cu617  O640    1.952   .     S
Cu618  O639    1.952   .     S
Cu618  O638    1.946   .     S
Cu618  O635    1.952   .     S
Cu618  N631    2.013   .     S
Cu618  O634    1.960   .     S
H619   C701    1.087   .     S
H620   C800    1.087   1_455 S
O641   C642    1.419   .     S
C642   C645    1.538   .     S
C642   H937    1.111   1_545 S
C642   H938    1.108   1_545 S
H643   C936    1.111   .     S
H644   C936    1.108   .     S
C645   H647    1.111   .     S
C645   C648    1.527   .     S
C645   H646    1.111   .     S
C648   H845    1.111   1_455 S
C648   H846    1.111   1_455 S
C648   H945    1.111   1_545 S
H649   C746    1.111   .     S
H650   C746    1.111   .     S
H651   C942    1.111   .     S
O652   C653    1.415   .     S
C653   H655    1.118   .     S
C653   H948    1.112   .     S
C653   C852    1.527   1_455 S
H654   C947    1.112   1_545 S
C656   C659    1.526   .     S
C656   H658    1.111   .     S
C656   C751    1.527   .     S
C656   H1049   1.110   .     S
H657   C1146   1.110   1_445 S
C659   H661    1.110   .     S
C659   H660    1.110   .     S
C659   H956    1.111   .     S
H662   C953    1.111   1_545 S
O665   C666    1.412   .     S
C666   H668    1.112   .     S
C666   H667    1.116   .     S
C666   C669    1.529   .     S
C669   H670    1.111   .     S
C669   H671    1.112   .     S
C669   C672    1.524   .     S
C672   H675    1.110   .     S
C672   H673    1.111   .     S
C672   H674    1.110   .     S
O676   C677    1.420   .     S
C677   C680    1.529   .     S
C677   H679    1.117   .     S
C677   H678    1.109   .     S
C680   H682    1.111   .     S
C680   H681    1.112   .     S
C680   C781    1.528   .     S
C683   H684    1.111   .     S
C683   H686    1.111   .     S
C683   H685    1.110   .     S
C683   C876    1.528   1_455 S
C687   C707    1.477   .     S
C687   O733    1.304   .     A
C687   O731    1.294   .     A
C688   O732    1.290   .     A
C688   C708    1.452   .     S
C688   O734    1.294   .     A
C689   C691    1.408   .     A
C689   C697    1.412   .     A
C689   H723    1.081   .     S
C690   C698    1.413   .     A
C690   C692    1.406   .     A
C690   H724    1.080   .     S
C691   H725    1.081   .     S
C691   N729    1.365   .     A
C692   N730    1.362   .     A
C692   H726    1.082   .     S
C693   N729    1.374   .     A
C693   O763    1.381   .     S
C693   C695    1.412   .     A
C694   O774    1.386   .     S
C694   N730    1.370   .     A
C694   C696    1.415   .     A
C695   C697    1.405   .     A
C695   H727    1.080   .     S
C696   H728    1.080   .     S
C696   C698    1.407   .     A
C698   C109    1.519   1_556 S
C699   O737    1.290   .     A
C699   O735    1.284   .     A
C699   C701    1.432   .     S
C700   O738    1.291   .     A
C700   C702    1.432   .     S
C700   O736    1.284   .     A
C702   C799    1.337   .     S
C702   H816    1.087   .     S
C703   C713    1.412   .     A
C703   O739    1.389   .     S
C703   C705    1.402   .     A
C704   O750    1.385   .     S
C704   C714    1.412   .     A
C704   C706    1.402   .     A
C705   C707    1.422   .     A
C705   I761    2.142   .     S
C706   I762    2.137   .     S
C706   C708    1.410   .     A
C707   C709    1.404   .     A
C708   C710    1.396   .     A
C709   H719    1.082   .     S
C709   C711    1.386   .     A
C710   C712    1.385   .     A
C710   H720    1.084   .     S
C711   H721    1.083   .     S
C711   C713    1.396   .     A
C712   H722    1.084   .     S
C712   C714    1.402   .     A
C713   C1008   1.468   1_545 S
C714   C1007   1.468   .     S
Cu715  O735    1.946   .     S
Cu715  O734    1.952   .     S
Cu715  O731    1.960   .     S
Cu715  Cu716   2.680   .     S
Cu715  N730    2.013   .     S
Cu715  O738    1.952   .     S
Cu716  O737    1.952   .     S
Cu716  O736    1.946   .     S
Cu716  O733    1.952   .     S
Cu716  N729    2.013   .     S
Cu716  O732    1.960   .     S
H717   C799    1.087   .     S
O739   C740    1.419   .     S
C740   C743    1.538   .     S
C740   H1035   1.111   1_545 S
C740   H1036   1.108   1_545 S
H741   C1034   1.111   .     S
H742   C1034   1.108   .     S
C743   H745    1.111   .     S
C743   C746    1.527   .     S
C743   H744    1.111   .     S
C746   H1043   1.111   1_545 S
H747   C844    1.111   .     S
H748   C844    1.111   .     S
H749   C1040   1.111   .     S
O750   C751    1.415   .     S
C751   H753    1.118   .     S
C751   H1046   1.112   .     S
H752   C1045   1.112   1_545 S
C754   C757    1.526   .     S
C754   H756    1.111   .     S
C754   C849    1.527   .     S
C754   H1147   1.110   .     S
H755   C950    1.110   1_545 S
C757   H759    1.110   .     S
C757   H758    1.110   .     S
C757   H1054   1.111   .     S
H760   C1051   1.111   1_545 S
O763   C764    1.412   .     S
C764   H766    1.112   .     S
C764   H765    1.116   .     S
C764   C767    1.529   .     S
C767   H768    1.111   .     S
C767   H769    1.112   .     S
C767   C770    1.524   .     S
C770   H773    1.110   .     S
C770   H771    1.111   .     S
C770   H772    1.110   .     S
O774   C775    1.420   .     S
C775   C778    1.529   .     S
C775   H777    1.117   .     S
C775   H776    1.109   .     S
C778   H780    1.111   .     S
C778   H779    1.112   .     S
C778   C879    1.528   .     S
C781   H782    1.111   .     S
C781   H784    1.111   .     S
C781   H783    1.110   .     S
C785   C805    1.477   .     S
C785   O831    1.304   .     A
C785   O829    1.294   .     A
C786   O830    1.290   .     A
C786   C806    1.452   .     S
C786   O832    1.294   .     A
C787   C789    1.408   .     A
C787   C795    1.412   .     A
C787   H821    1.081   .     S
C788   C796    1.413   .     A
C788   C790    1.406   .     A
C788   H822    1.080   .     S
C789   H823    1.081   .     S
C789   N827    1.365   .     A
C790   N828    1.362   .     A
C790   H824    1.082   .     S
C791   N827    1.374   .     A
C791   O861    1.381   .     S
C791   C793    1.412   .     A
C792   O872    1.386   .     S
C792   N828    1.370   .     A
C792   C794    1.415   .     A
C793   C795    1.405   .     A
C793   H825    1.080   .     S
C794   H826    1.080   .     S
C794   C796    1.407   .     A
C796   C207    1.519   1_556 S
C797   O835    1.290   .     A
C797   O833    1.284   .     A
C797   C799    1.432   .     S
C798   O836    1.291   .     A
C798   C800    1.432   .     S
C798   O834    1.284   .     A
C800   C603    1.337   1_655 S
C800   H620    1.087   1_655 S
C801   C811    1.412   .     A
C801   O837    1.389   .     S
C801   C803    1.402   .     A
C802   O848    1.385   .     S
C802   C812    1.412   .     A
C802   C804    1.402   .     A
C803   C805    1.422   .     A
C803   I859    2.142   .     S
C804   I860    2.137   .     S
C804   C806    1.410   .     A
C805   C807    1.404   .     A
C806   C808    1.396   .     A
C807   H817    1.082   .     S
C807   C809    1.386   .     A
C808   C810    1.385   .     A
C808   H818    1.084   .     S
C809   H819    1.083   .     S
C809   C811    1.396   .     A
C810   H820    1.084   .     S
C810   C812    1.402   .     A
C811   C1106   1.468   1_545 S
C812   C1105   1.468   .     S
Cu813  O833    1.946   .     S
Cu813  O832    1.952   .     S
Cu813  O829    1.960   .     S
Cu813  Cu814   2.680   .     S
Cu813  N828    2.013   .     S
Cu813  O836    1.952   .     S
Cu814  O835    1.952   .     S
Cu814  O834    1.946   .     S
Cu814  O831    1.952   .     S
Cu814  N827    2.013   .     S
Cu814  O830    1.960   .     S
H815   C603    1.087   1_655 S
O837   C838    1.419   .     S
C838   C841    1.538   .     S
C838   H1133   1.111   1_545 S
C838   H1134   1.108   1_545 S
H839   C1132   1.111   .     S
H840   C1132   1.108   .     S
C841   H843    1.111   .     S
C841   C844    1.527   .     S
C841   H842    1.111   .     S
C844   H1141   1.111   1_545 S
H845   C648    1.111   1_655 S
H846   C648    1.111   1_655 S
H847   C1138   1.111   .     S
O848   C849    1.415   .     S
C849   H851    1.118   .     S
C849   H1144   1.112   .     S
H850   C1143   1.112   1_545 S
C852   C855    1.526   .     S
C852   H854    1.111   .     S
C852   C653    1.527   1_655 S
C852   H951    1.110   1_655 S
H853   C1048   1.110   1_545 S
C855   H857    1.110   .     S
C855   H856    1.110   .     S
C855   H1152   1.111   .     S
H858   C1149   1.111   1_545 S
O861   C862    1.412   .     S
C862   H864    1.112   .     S
C862   H863    1.116   .     S
C862   C865    1.529   .     S
C865   H866    1.111   .     S
C865   H867    1.112   .     S
C865   C868    1.524   .     S
C868   H871    1.110   .     S
C868   H869    1.111   .     S
C868   H870    1.110   .     S
O872   C873    1.420   .     S
C873   C876    1.529   .     S
C873   H875    1.117   .     S
C873   H874    1.109   .     S
C876   H878    1.111   .     S
C876   H877    1.112   .     S
C876   C683    1.528   1_655 S
C879   H880    1.111   .     S
C879   H882    1.111   .     S
C879   H881    1.110   .     S
C883   C903    1.477   .     S
C883   O929    1.304   .     A
C883   O927    1.294   .     A
C884   O928    1.290   .     A
C884   C904    1.452   .     S
C884   O930    1.294   .     A
C885   C887    1.408   .     A
C885   C893    1.412   .     A
C885   H919    1.081   .     S
C886   C894    1.413   .     A
C886   C888    1.406   .     A
C886   H920    1.080   .     S
C887   H921    1.081   .     S
C887   N925    1.365   .     A
C888   N926    1.362   .     A
C888   H922    1.082   .     S
C889   N925    1.374   .     A
C889   O959    1.381   .     S
C889   C891    1.412   .     A
C890   O970    1.386   .     S
C890   N926    1.370   .     A
C890   C892    1.415   .     A
C891   C893    1.405   .     A
C891   H923    1.080   .     S
C892   H924    1.080   .     S
C892   C894    1.407   .     A
C894   C305    1.519   1_556 S
C895   O933    1.290   .     A
C895   O931    1.284   .     A
C895   C897    1.432   .     S
C896   O934    1.291   .     A
C896   C898    1.432   .     S
C896   O932    1.284   .     A
C897   C1094   1.337   1_455 S
C897   H1109   1.087   1_455 S
C898   C995    1.337   .     S
C898   H1012   1.087   .     S
C899   C909    1.412   .     A
C899   O935    1.389   .     S
C899   C901    1.402   .     A
C900   O946    1.385   .     S
C900   C910    1.412   .     A
C900   C902    1.402   .     A
C901   C903    1.422   .     A
C901   I957    2.142   .     S
C902   I958    2.137   .     S
C902   C904    1.410   .     A
C903   C905    1.404   .     A
C904   C906    1.396   .     A
C905   H915    1.082   .     S
C905   C907    1.386   .     A
C906   C908    1.385   .     A
C906   H916    1.084   .     S
C907   H917    1.083   .     S
C907   C909    1.396   .     A
C908   H918    1.084   .     S
C908   C910    1.402   .     A
C910   C615    1.468   1_565 S
Cu911  O931    1.946   .     S
Cu911  O930    1.952   .     S
Cu911  O927    1.960   .     S
Cu911  Cu912   2.680   .     S
Cu911  N926    2.013   .     S
Cu911  O934    1.952   .     S
Cu912  O933    1.952   .     S
Cu912  O932    1.946   .     S
Cu912  O929    1.952   .     S
Cu912  N925    2.013   .     S
Cu912  O928    1.960   .     S
H913   C995    1.087   .     S
H914   C1094   1.087   1_455 S
O935   C936    1.419   .     S
C936   C939    1.538   .     S
H937   C642    1.111   1_565 S
H938   C642    1.108   1_565 S
C939   H941    1.111   .     S
C939   C942    1.527   .     S
C939   H940    1.111   .     S
C942   H1139   1.111   1_455 S
C942   H1140   1.111   1_455 S
H943   C1040   1.111   .     S
H944   C1040   1.111   .     S
H945   C648    1.111   1_565 S
O946   C947    1.415   .     S
C947   H949    1.118   .     S
C947   H654    1.112   1_565 S
C947   C1146   1.527   1_455 S
C950   C953    1.526   .     S
C950   H952    1.111   .     S
C950   C1045   1.527   .     S
C950   H755    1.110   1_565 S
H951   C852    1.110   1_455 S
C953   H955    1.110   .     S
C953   H954    1.110   .     S
C953   H662    1.111   1_565 S
O959   C960    1.412   .     S
C960   H962    1.112   .     S
C960   H961    1.116   .     S
C960   C963    1.529   .     S
C963   H964    1.111   .     S
C963   H965    1.112   .     S
C963   C966    1.524   .     S
C966   H969    1.110   .     S
C966   H967    1.111   .     S
C966   H968    1.110   .     S
O970   C971    1.420   .     S
C971   C974    1.529   .     S
C971   H973    1.117   .     S
C971   H972    1.109   .     S
C974   H976    1.111   .     S
C974   H975    1.112   .     S
C974   C1075   1.528   .     S
C977   H978    1.111   .     S
C977   H980    1.111   .     S
C977   H979    1.110   .     S
C977   C1170   1.528   1_455 S
C981   C1001   1.477   .     S
C981   O1027   1.304   .     A
C981   O1025   1.294   .     A
C982   O1026   1.290   .     A
C982   C1002   1.452   .     S
C982   O1028   1.294   .     A
C983   C985    1.408   .     A
C983   C991    1.412   .     A
C983   H1017   1.081   .     S
C984   C992    1.413   .     A
C984   C986    1.406   .     A
C984   H1018   1.080   .     S
C985   H1019   1.081   .     S
C985   N1023   1.365   .     A
C986   N1024   1.362   .     A
C986   H1020   1.082   .     S
C987   N1023   1.374   .     A
C987   O1057   1.381   .     S
C987   C989    1.412   .     A
C988   O1068   1.386   .     S
C988   N1024   1.370   .     A
C988   C990    1.415   .     A
C989   C991    1.405   .     A
C989   H1021   1.080   .     S
C990   H1022   1.080   .     S
C990   C992    1.407   .     A
C992   C403    1.519   1_556 S
C993   O1031   1.290   .     A
C993   O1029   1.284   .     A
C993   C995    1.432   .     S
C994   O1032   1.291   .     A
C994   C996    1.432   .     S
C994   O1030   1.284   .     A
C996   C1093   1.337   .     S
C996   H1110   1.087   .     S
C997   C1007   1.412   .     A
C997   O1033   1.389   .     S
C997   C999    1.402   .     A
C998   O1044   1.385   .     S
C998   C1008   1.412   .     A
C998   C1000   1.402   .     A
C999   C1001   1.422   .     A
C999   I1055   2.142   .     S
C1000  I1056   2.137   .     S
C1000  C1002   1.410   .     A
C1001  C1003   1.404   .     A
C1002  C1004   1.396   .     A
C1003  H1013   1.082   .     S
C1003  C1005   1.386   .     A
C1004  C1006   1.385   .     A
C1004  H1014   1.084   .     S
C1005  H1015   1.083   .     S
C1005  C1007   1.396   .     A
C1006  H1016   1.084   .     S
C1006  C1008   1.402   .     A
C1008  C713    1.468   1_565 S
Cu1009 O1029   1.946   .     S
Cu1009 O1028   1.952   .     S
Cu1009 O1025   1.960   .     S
Cu1009 Cu1010  2.680   .     S
Cu1009 N1024   2.013   .     S
Cu1009 O1032   1.952   .     S
Cu1010 O1031   1.952   .     S
Cu1010 O1030   1.946   .     S
Cu1010 O1027   1.952   .     S
Cu1010 N1023   2.013   .     S
Cu1010 O1026   1.960   .     S
H1011  C1093   1.087   .     S
O1033  C1034   1.419   .     S
C1034  C1037   1.538   .     S
H1035  C740    1.111   1_565 S
H1036  C740    1.108   1_565 S
C1037  H1039   1.111   .     S
C1037  C1040   1.527   .     S
C1037  H1038   1.111   .     S
H1041  C1138   1.111   .     S
H1042  C1138   1.111   .     S
H1043  C746    1.111   1_565 S
O1044  C1045   1.415   .     S
C1045  H1047   1.118   .     S
C1045  H752    1.112   1_565 S
C1048  C1051   1.526   .     S
C1048  H1050   1.111   .     S
C1048  C1143   1.527   .     S
C1048  H853    1.110   1_565 S
C1051  H1053   1.110   .     S
C1051  H1052   1.110   .     S
C1051  H760    1.111   1_565 S
O1057  C1058   1.412   .     S
C1058  H1060   1.112   .     S
C1058  H1059   1.116   .     S
C1058  C1061   1.529   .     S
C1061  H1062   1.111   .     S
C1061  H1063   1.112   .     S
C1061  C1064   1.524   .     S
C1064  H1067   1.110   .     S
C1064  H1065   1.111   .     S
C1064  H1066   1.110   .     S
O1068  C1069   1.420   .     S
C1069  C1072   1.529   .     S
C1069  H1071   1.117   .     S
C1069  H1070   1.109   .     S
C1072  H1074   1.111   .     S
C1072  H1073   1.112   .     S
C1072  C1173   1.528   .     S
C1075  H1076   1.111   .     S
C1075  H1078   1.111   .     S
C1075  H1077   1.110   .     S
C1079  C1099   1.477   .     S
C1079  O1125   1.304   .     A
C1079  O1123   1.294   .     A
C1080  O1124   1.290   .     A
C1080  C1100   1.452   .     S
C1080  O1126   1.294   .     A
C1081  C1083   1.408   .     A
C1081  C1089   1.412   .     A
C1081  H1115   1.081   .     S
C1082  C1090   1.413   .     A
C1082  C1084   1.406   .     A
C1082  H1116   1.080   .     S
C1083  H1117   1.081   .     S
C1083  N1121   1.365   .     A
C1084  N1122   1.362   .     A
C1084  H1118   1.082   .     S
C1085  N1121   1.374   .     A
C1085  O1155   1.381   .     S
C1085  C1087   1.412   .     A
C1086  O1166   1.386   .     S
C1086  N1122   1.370   .     A
C1086  C1088   1.415   .     A
C1087  C1089   1.405   .     A
C1087  H1119   1.080   .     S
C1088  H1120   1.080   .     S
C1088  C1090   1.407   .     A
C1090  C501    1.519   1_556 S
C1091  O1129   1.290   .     A
C1091  O1127   1.284   .     A
C1091  C1093   1.432   .     S
C1092  O1130   1.291   .     A
C1092  C1094   1.432   .     S
C1092  O1128   1.284   .     A
C1094  C897    1.337   1_655 S
C1094  H914    1.087   1_655 S
C1095  C1105   1.412   .     A
C1095  O1131   1.389   .     S
C1095  C1097   1.402   .     A
C1096  O1142   1.385   .     S
C1096  C1106   1.412   .     A
C1096  C1098   1.402   .     A
C1097  C1099   1.422   .     A
C1097  I1153   2.142   .     S
C1098  I1154   2.137   .     S
C1098  C1100   1.410   .     A
C1099  C1101   1.404   .     A
C1100  C1102   1.396   .     A
C1101  H1111   1.082   .     S
C1101  C1103   1.386   .     A
C1102  C1104   1.385   .     A
C1102  H1112   1.084   .     S
C1103  H1113   1.083   .     S
C1103  C1105   1.396   .     A
C1104  H1114   1.084   .     S
C1104  C1106   1.402   .     A
C1106  C811    1.468   1_565 S
Cu1107 O1127   1.946   .     S
Cu1107 O1126   1.952   .     S
Cu1107 O1123   1.960   .     S
Cu1107 Cu1108  2.680   .     S
Cu1107 N1122   2.013   .     S
Cu1107 O1130   1.952   .     S
Cu1108 O1129   1.952   .     S
Cu1108 O1128   1.946   .     S
Cu1108 O1125   1.952   .     S
Cu1108 N1121   2.013   .     S
Cu1108 O1124   1.960   .     S
H1109  C897    1.087   1_655 S
O1131  C1132   1.419   .     S
C1132  C1135   1.538   .     S
H1133  C838    1.111   1_565 S
H1134  C838    1.108   1_565 S
C1135  H1137   1.111   .     S
C1135  C1138   1.527   .     S
C1135  H1136   1.111   .     S
H1139  C942    1.111   1_655 S
H1140  C942    1.111   1_655 S
H1141  C844    1.111   1_565 S
O1142  C1143   1.415   .     S
C1143  H1145   1.118   .     S
C1143  H850    1.112   1_565 S
C1146  C1149   1.526   .     S
C1146  H1148   1.111   .     S
C1146  C947    1.527   1_655 S
C1146  H657    1.110   1_665 S
C1149  H1151   1.110   .     S
C1149  H1150   1.110   .     S
C1149  H858    1.111   1_565 S
O1155  C1156   1.412   .     S
C1156  H1158   1.112   .     S
C1156  H1157   1.116   .     S
C1156  C1159   1.529   .     S
C1159  H1160   1.111   .     S
C1159  H1161   1.112   .     S
C1159  C1162   1.524   .     S
C1162  H1165   1.110   .     S
C1162  H1163   1.111   .     S
C1162  H1164   1.110   .     S
O1166  C1167   1.420   .     S
C1167  C1170   1.529   .     S
C1167  H1169   1.117   .     S
C1167  H1168   1.109   .     S
C1170  H1172   1.111   .     S
C1170  H1171   1.112   .     S
C1170  C977    1.528   1_655 S
C1173  H1174   1.111   .     S
C1173  H1176   1.111   .     S
C1173  H1175   1.110   .     S
