data_str_m3_o2_o5_pcu_sym.9
_audit_creation_date              2020-01-03
_audit_creation_method            'Materials Studio'
_symmetry_space_group_name_H-M    'P1'
_symmetry_Int_Tables_number       1
_symmetry_cell_setting            triclinic
loop_
_symmetry_equiv_pos_as_xyz
  x,y,z
_cell_length_a                    29.9491
_cell_length_b                    28.6005
_cell_length_c                    26.7304
_cell_angle_alpha                 90.0000
_cell_angle_beta                  91.5464
_cell_angle_gamma                 90.0000
loop_
_atom_site_label
_atom_site_type_symbol
_atom_site_fract_x
_atom_site_fract_y
_atom_site_fract_z
_atom_site_U_iso_or_equiv
_atom_site_adp_type
_atom_site_occupancy
C1     C     0.16404   0.24995   0.16664   0.00000  Uiso   1.00
C2     C     0.21316   0.44766   0.14804   0.00000  Uiso   1.00
C3     C     0.24989   0.25000   0.07294   0.00000  Uiso   1.00
C4     C     0.25011   0.25000   0.26039   0.00000  Uiso   1.00
C5     C     0.25000   0.02660   0.16667   0.00000  Uiso   1.00
C6     C     0.25000   0.47348   0.16667   0.00000  Uiso   1.00
C7     C     0.24996   0.24999   0.02181   0.00000  Uiso   1.00
C8     C     0.25004   0.24999   0.31153   0.00000  Uiso   1.00
C9     C     0.04529   0.27758   0.13421   0.00000  Uiso   1.00
C10    C     0.45142   0.21727   0.13344   0.00000  Uiso   1.00
C11    C     0.45471   0.27758   0.19916   0.00000  Uiso   1.00
C12    C     0.33596   0.24995   0.16670   0.00000  Uiso   1.00
C13    C     0.04858   0.21727   0.19991   0.00000  Uiso   1.00
C14    C     0.09185   0.27865   0.13441   0.00000  Uiso   1.00
C15    C     0.40527   0.21895   0.13383   0.00000  Uiso   1.00
C16    C     0.40815   0.27865   0.19894   0.00000  Uiso   1.00
C17    C     0.09474   0.21895   0.19951   0.00000  Uiso   1.00
C18    C     0.11614   0.24950   0.16709   0.00000  Uiso   1.00
C19    C     0.38386   0.24950   0.16625   0.00000  Uiso   1.00
C20    C     0.02408   0.24690   0.16694   0.00000  Uiso   1.00
C21    C     0.47592   0.24689   0.16642   0.00000  Uiso   1.00
C22    C     0.23159   0.10162   0.12689   0.00000  Uiso   1.00
C23    C     0.28517   0.39845   0.18794   0.00000  Uiso   1.00
C24    C     0.26841   0.10162   0.20644   0.00000  Uiso   1.00
C25    C     0.21483   0.39845   0.14540   0.00000  Uiso   1.00
C26    C     0.23399   0.05241   0.12507   0.00000  Uiso   1.00
C27    C     0.28684   0.44766   0.18530   0.00000  Uiso   1.00
C28    C     0.26601   0.05241   0.20826   0.00000  Uiso   1.00
F29    F     0.11342   0.30654   0.10178   0.00000  Uiso   1.00
F30    F     0.38120   0.19116   0.10185   0.00000  Uiso   1.00
F31    F     0.38657   0.30653   0.23157   0.00000  Uiso   1.00
F32    F     0.11881   0.19116   0.23149   0.00000  Uiso   1.00
F33    F     0.22011   0.03028   0.08249   0.00000  Uiso   1.00
F34    F     0.32461   0.46979   0.20161   0.00000  Uiso   1.00
F35    F     0.27989   0.03028   0.25085   0.00000  Uiso   1.00
F36    F     0.17539   0.46979   0.13172   0.00000  Uiso   1.00
H37    H     0.19514   0.15158   0.10176   0.00000  Uiso   1.00
H38    H     0.30709   0.34823   0.22862   0.00000  Uiso   1.00
H39    H     0.30486   0.15158   0.23157   0.00000  Uiso   1.00
H40    H     0.19291   0.34823   0.10472   0.00000  Uiso   1.00
H41    H     0.03922   0.32540   0.08226   0.00000  Uiso   1.00
H42    H     0.00373   0.18781   0.10404   0.00000  Uiso   1.00
H43    H     0.46076   0.32540   0.25111   0.00000  Uiso   1.00
H44    H     0.49628   0.18783   0.22934   0.00000  Uiso   1.00
N45    N     0.25000   0.12623   0.16667   0.00000  Uiso   1.00
N46    N     0.25000   0.37376   0.16667   0.00000  Uiso   1.00
O47    O     0.18453   0.28974   0.16667   0.00000  Uiso   1.00
O48    O     0.31971   0.37632   0.21296   0.00000  Uiso   1.00
O49    O     0.29012   0.12384   0.24556   0.00000  Uiso   1.00
O50    O     0.18029   0.37632   0.12038   0.00000  Uiso   1.00
O51    O     0.01955   0.30558   0.10258   0.00000  Uiso   1.00
O52    O     0.47082   0.18653   0.10048   0.00000  Uiso   1.00
O53    O     0.48044   0.30557   0.23079   0.00000  Uiso   1.00
O54    O     0.02919   0.18653   0.23288   0.00000  Uiso   1.00
O55    O     0.31547   0.21026   0.16666   0.00000  Uiso   1.00
O56    O     0.31547   0.28974   0.16666   0.00000  Uiso   1.00
O57    O     0.18453   0.21026   0.16667   0.00000  Uiso   1.00
O58    O     0.25000   0.28973   0.09511   0.00000  Uiso   1.00
O59    O     0.25000   0.21027   0.23822   0.00000  Uiso   1.00
O60    O     0.25000   0.28973   0.23822   0.00000  Uiso   1.00
O61    O     0.25000   0.21027   0.09511   0.00000  Uiso   1.00
O62    O     0.20988   0.12384   0.08777   0.00000  Uiso   1.00
Zn63   Zn    0.25000   0.30307   0.16667   0.00000  Uiso   1.00
Zn64   Zn    0.25000   0.19693   0.16667   0.00000  Uiso   1.00
C65    C     0.66404   0.24995   0.16664   0.00000  Uiso   1.00
C66    C     0.71316   0.44766   0.14804   0.00000  Uiso   1.00
C67    C     0.74989   0.25000   0.07294   0.00000  Uiso   1.00
C68    C     0.75011   0.25000   0.26039   0.00000  Uiso   1.00
C69    C     0.75000   0.02660   0.16667   0.00000  Uiso   1.00
C70    C     0.75000   0.47348   0.16667   0.00000  Uiso   1.00
C71    C     0.74996   0.24999   0.02181   0.00000  Uiso   1.00
C72    C     0.75004   0.24999   0.31153   0.00000  Uiso   1.00
C73    C     0.54529   0.27758   0.13421   0.00000  Uiso   1.00
C74    C     0.95142   0.21727   0.13344   0.00000  Uiso   1.00
C75    C     0.95471   0.27758   0.19916   0.00000  Uiso   1.00
C76    C     0.83596   0.24995   0.16670   0.00000  Uiso   1.00
C77    C     0.54858   0.21727   0.19991   0.00000  Uiso   1.00
C78    C     0.59185   0.27865   0.13441   0.00000  Uiso   1.00
C79    C     0.90527   0.21895   0.13383   0.00000  Uiso   1.00
C80    C     0.90815   0.27865   0.19894   0.00000  Uiso   1.00
C81    C     0.59474   0.21895   0.19951   0.00000  Uiso   1.00
C82    C     0.61614   0.24950   0.16709   0.00000  Uiso   1.00
C83    C     0.88386   0.24950   0.16625   0.00000  Uiso   1.00
C84    C     0.52408   0.24690   0.16694   0.00000  Uiso   1.00
C85    C     0.97592   0.24689   0.16642   0.00000  Uiso   1.00
C86    C     0.73159   0.10162   0.12689   0.00000  Uiso   1.00
C87    C     0.78517   0.39845   0.18794   0.00000  Uiso   1.00
C88    C     0.76841   0.10162   0.20644   0.00000  Uiso   1.00
C89    C     0.71483   0.39845   0.14540   0.00000  Uiso   1.00
C90    C     0.73399   0.05241   0.12507   0.00000  Uiso   1.00
C91    C     0.78684   0.44766   0.18530   0.00000  Uiso   1.00
C92    C     0.76601   0.05241   0.20826   0.00000  Uiso   1.00
F93    F     0.61342   0.30654   0.10178   0.00000  Uiso   1.00
F94    F     0.88120   0.19116   0.10185   0.00000  Uiso   1.00
F95    F     0.88657   0.30653   0.23157   0.00000  Uiso   1.00
F96    F     0.61881   0.19116   0.23149   0.00000  Uiso   1.00
F97    F     0.72011   0.03028   0.08249   0.00000  Uiso   1.00
F98    F     0.82461   0.46979   0.20161   0.00000  Uiso   1.00
F99    F     0.77989   0.03028   0.25085   0.00000  Uiso   1.00
F100   F     0.67539   0.46979   0.13172   0.00000  Uiso   1.00
H101   H     0.69514   0.15158   0.10176   0.00000  Uiso   1.00
H102   H     0.80709   0.34823   0.22862   0.00000  Uiso   1.00
H103   H     0.80486   0.15158   0.23157   0.00000  Uiso   1.00
H104   H     0.69291   0.34823   0.10472   0.00000  Uiso   1.00
H105   H     0.53922   0.32540   0.08226   0.00000  Uiso   1.00
H106   H     0.50373   0.18781   0.10404   0.00000  Uiso   1.00
H107   H     0.96076   0.32540   0.25111   0.00000  Uiso   1.00
H108   H     0.99628   0.18783   0.22934   0.00000  Uiso   1.00
N109   N     0.75000   0.12623   0.16667   0.00000  Uiso   1.00
N110   N     0.75000   0.37376   0.16667   0.00000  Uiso   1.00
O111   O     0.68453   0.28974   0.16667   0.00000  Uiso   1.00
O112   O     0.81971   0.37632   0.21296   0.00000  Uiso   1.00
O113   O     0.79012   0.12384   0.24556   0.00000  Uiso   1.00
O114   O     0.68029   0.37632   0.12038   0.00000  Uiso   1.00
O115   O     0.51955   0.30558   0.10258   0.00000  Uiso   1.00
O116   O     0.97082   0.18653   0.10048   0.00000  Uiso   1.00
O117   O     0.98044   0.30557   0.23079   0.00000  Uiso   1.00
O118   O     0.52919   0.18653   0.23288   0.00000  Uiso   1.00
O119   O     0.81547   0.21026   0.16666   0.00000  Uiso   1.00
O120   O     0.81547   0.28974   0.16666   0.00000  Uiso   1.00
O121   O     0.68453   0.21026   0.16667   0.00000  Uiso   1.00
O122   O     0.75000   0.28973   0.09511   0.00000  Uiso   1.00
O123   O     0.75000   0.21027   0.23822   0.00000  Uiso   1.00
O124   O     0.75000   0.28973   0.23822   0.00000  Uiso   1.00
O125   O     0.75000   0.21027   0.09511   0.00000  Uiso   1.00
O126   O     0.70988   0.12384   0.08777   0.00000  Uiso   1.00
Zn127  Zn    0.75000   0.30307   0.16667   0.00000  Uiso   1.00
Zn128  Zn    0.75000   0.19693   0.16667   0.00000  Uiso   1.00
C129   C     0.16404   0.74995   0.16664   0.00000  Uiso   1.00
C130   C     0.21316   0.94766   0.14804   0.00000  Uiso   1.00
C131   C     0.24989   0.75000   0.07294   0.00000  Uiso   1.00
C132   C     0.25011   0.75000   0.26039   0.00000  Uiso   1.00
C133   C     0.25000   0.52660   0.16667   0.00000  Uiso   1.00
C134   C     0.25000   0.97348   0.16667   0.00000  Uiso   1.00
C135   C     0.24996   0.74999   0.02181   0.00000  Uiso   1.00
C136   C     0.25004   0.74999   0.31153   0.00000  Uiso   1.00
C137   C     0.04529   0.77758   0.13421   0.00000  Uiso   1.00
C138   C     0.45142   0.71727   0.13344   0.00000  Uiso   1.00
C139   C     0.45471   0.77758   0.19916   0.00000  Uiso   1.00
C140   C     0.33596   0.74995   0.16670   0.00000  Uiso   1.00
C141   C     0.04858   0.71727   0.19991   0.00000  Uiso   1.00
C142   C     0.09185   0.77865   0.13441   0.00000  Uiso   1.00
C143   C     0.40527   0.71895   0.13383   0.00000  Uiso   1.00
C144   C     0.40815   0.77865   0.19894   0.00000  Uiso   1.00
C145   C     0.09474   0.71895   0.19951   0.00000  Uiso   1.00
C146   C     0.11614   0.74950   0.16709   0.00000  Uiso   1.00
C147   C     0.38386   0.74950   0.16625   0.00000  Uiso   1.00
C148   C     0.02408   0.74690   0.16694   0.00000  Uiso   1.00
C149   C     0.47592   0.74689   0.16642   0.00000  Uiso   1.00
C150   C     0.23159   0.60162   0.12689   0.00000  Uiso   1.00
C151   C     0.28517   0.89845   0.18794   0.00000  Uiso   1.00
C152   C     0.26841   0.60162   0.20644   0.00000  Uiso   1.00
C153   C     0.21483   0.89845   0.14540   0.00000  Uiso   1.00
C154   C     0.23399   0.55241   0.12507   0.00000  Uiso   1.00
C155   C     0.28684   0.94766   0.18530   0.00000  Uiso   1.00
C156   C     0.26601   0.55241   0.20826   0.00000  Uiso   1.00
F157   F     0.11342   0.80654   0.10178   0.00000  Uiso   1.00
F158   F     0.38120   0.69116   0.10185   0.00000  Uiso   1.00
F159   F     0.38657   0.80653   0.23157   0.00000  Uiso   1.00
F160   F     0.11881   0.69116   0.23149   0.00000  Uiso   1.00
F161   F     0.22011   0.53028   0.08249   0.00000  Uiso   1.00
F162   F     0.32461   0.96979   0.20161   0.00000  Uiso   1.00
F163   F     0.27989   0.53028   0.25085   0.00000  Uiso   1.00
F164   F     0.17539   0.96979   0.13172   0.00000  Uiso   1.00
H165   H     0.19514   0.65158   0.10176   0.00000  Uiso   1.00
H166   H     0.30709   0.84823   0.22862   0.00000  Uiso   1.00
H167   H     0.30486   0.65158   0.23157   0.00000  Uiso   1.00
H168   H     0.19291   0.84823   0.10472   0.00000  Uiso   1.00
H169   H     0.03922   0.82540   0.08226   0.00000  Uiso   1.00
H170   H     0.00373   0.68781   0.10404   0.00000  Uiso   1.00
H171   H     0.46076   0.82540   0.25111   0.00000  Uiso   1.00
H172   H     0.49628   0.68783   0.22934   0.00000  Uiso   1.00
N173   N     0.25000   0.62623   0.16667   0.00000  Uiso   1.00
N174   N     0.25000   0.87376   0.16667   0.00000  Uiso   1.00
O175   O     0.18453   0.78974   0.16667   0.00000  Uiso   1.00
O176   O     0.31971   0.87632   0.21296   0.00000  Uiso   1.00
O177   O     0.29012   0.62384   0.24556   0.00000  Uiso   1.00
O178   O     0.18029   0.87632   0.12038   0.00000  Uiso   1.00
O179   O     0.01955   0.80558   0.10258   0.00000  Uiso   1.00
O180   O     0.47082   0.68653   0.10048   0.00000  Uiso   1.00
O181   O     0.48044   0.80557   0.23079   0.00000  Uiso   1.00
O182   O     0.02919   0.68653   0.23288   0.00000  Uiso   1.00
O183   O     0.31547   0.71026   0.16666   0.00000  Uiso   1.00
O184   O     0.31547   0.78974   0.16666   0.00000  Uiso   1.00
O185   O     0.18453   0.71026   0.16667   0.00000  Uiso   1.00
O186   O     0.25000   0.78973   0.09511   0.00000  Uiso   1.00
O187   O     0.25000   0.71027   0.23822   0.00000  Uiso   1.00
O188   O     0.25000   0.78973   0.23822   0.00000  Uiso   1.00
O189   O     0.25000   0.71027   0.09511   0.00000  Uiso   1.00
O190   O     0.20988   0.62384   0.08777   0.00000  Uiso   1.00
Zn191  Zn    0.25000   0.80307   0.16667   0.00000  Uiso   1.00
Zn192  Zn    0.25000   0.69693   0.16667   0.00000  Uiso   1.00
C193   C     0.66404   0.74995   0.16664   0.00000  Uiso   1.00
C194   C     0.71316   0.94766   0.14804   0.00000  Uiso   1.00
C195   C     0.74989   0.75000   0.07294   0.00000  Uiso   1.00
C196   C     0.75011   0.75000   0.26039   0.00000  Uiso   1.00
C197   C     0.75000   0.52660   0.16667   0.00000  Uiso   1.00
C198   C     0.75000   0.97348   0.16667   0.00000  Uiso   1.00
C199   C     0.74996   0.74999   0.02181   0.00000  Uiso   1.00
C200   C     0.75004   0.74999   0.31153   0.00000  Uiso   1.00
C201   C     0.54529   0.77758   0.13421   0.00000  Uiso   1.00
C202   C     0.95142   0.71727   0.13344   0.00000  Uiso   1.00
C203   C     0.95471   0.77758   0.19916   0.00000  Uiso   1.00
C204   C     0.83596   0.74995   0.16670   0.00000  Uiso   1.00
C205   C     0.54858   0.71727   0.19991   0.00000  Uiso   1.00
C206   C     0.59185   0.77865   0.13441   0.00000  Uiso   1.00
C207   C     0.90527   0.71895   0.13383   0.00000  Uiso   1.00
C208   C     0.90815   0.77865   0.19894   0.00000  Uiso   1.00
C209   C     0.59474   0.71895   0.19951   0.00000  Uiso   1.00
C210   C     0.61614   0.74950   0.16709   0.00000  Uiso   1.00
C211   C     0.88386   0.74950   0.16625   0.00000  Uiso   1.00
C212   C     0.52408   0.74690   0.16694   0.00000  Uiso   1.00
C213   C     0.97592   0.74689   0.16642   0.00000  Uiso   1.00
C214   C     0.73159   0.60162   0.12689   0.00000  Uiso   1.00
C215   C     0.78517   0.89845   0.18794   0.00000  Uiso   1.00
C216   C     0.76841   0.60162   0.20644   0.00000  Uiso   1.00
C217   C     0.71483   0.89845   0.14540   0.00000  Uiso   1.00
C218   C     0.73399   0.55241   0.12507   0.00000  Uiso   1.00
C219   C     0.78684   0.94766   0.18530   0.00000  Uiso   1.00
C220   C     0.76601   0.55241   0.20826   0.00000  Uiso   1.00
F221   F     0.61342   0.80654   0.10178   0.00000  Uiso   1.00
F222   F     0.88120   0.69116   0.10185   0.00000  Uiso   1.00
F223   F     0.88657   0.80653   0.23157   0.00000  Uiso   1.00
F224   F     0.61881   0.69116   0.23149   0.00000  Uiso   1.00
F225   F     0.72011   0.53028   0.08249   0.00000  Uiso   1.00
F226   F     0.82461   0.96979   0.20161   0.00000  Uiso   1.00
F227   F     0.77989   0.53028   0.25085   0.00000  Uiso   1.00
F228   F     0.67539   0.96979   0.13172   0.00000  Uiso   1.00
H229   H     0.69514   0.65158   0.10176   0.00000  Uiso   1.00
H230   H     0.80709   0.84823   0.22862   0.00000  Uiso   1.00
H231   H     0.80486   0.65158   0.23157   0.00000  Uiso   1.00
H232   H     0.69291   0.84823   0.10472   0.00000  Uiso   1.00
H233   H     0.53922   0.82540   0.08226   0.00000  Uiso   1.00
H234   H     0.50373   0.68781   0.10404   0.00000  Uiso   1.00
H235   H     0.96076   0.82540   0.25111   0.00000  Uiso   1.00
H236   H     0.99628   0.68783   0.22934   0.00000  Uiso   1.00
N237   N     0.75000   0.62623   0.16667   0.00000  Uiso   1.00
N238   N     0.75000   0.87376   0.16667   0.00000  Uiso   1.00
O239   O     0.68453   0.78974   0.16667   0.00000  Uiso   1.00
O240   O     0.81971   0.87632   0.21296   0.00000  Uiso   1.00
O241   O     0.79012   0.62384   0.24556   0.00000  Uiso   1.00
O242   O     0.68029   0.87632   0.12038   0.00000  Uiso   1.00
O243   O     0.51955   0.80558   0.10258   0.00000  Uiso   1.00
O244   O     0.97082   0.68653   0.10048   0.00000  Uiso   1.00
O245   O     0.98044   0.80557   0.23079   0.00000  Uiso   1.00
O246   O     0.52919   0.68653   0.23288   0.00000  Uiso   1.00
O247   O     0.81547   0.71026   0.16666   0.00000  Uiso   1.00
O248   O     0.81547   0.78974   0.16666   0.00000  Uiso   1.00
O249   O     0.68453   0.71026   0.16667   0.00000  Uiso   1.00
O250   O     0.75000   0.78973   0.09511   0.00000  Uiso   1.00
O251   O     0.75000   0.71027   0.23822   0.00000  Uiso   1.00
O252   O     0.75000   0.78973   0.23822   0.00000  Uiso   1.00
O253   O     0.75000   0.71027   0.09511   0.00000  Uiso   1.00
O254   O     0.70988   0.62384   0.08777   0.00000  Uiso   1.00
Zn255  Zn    0.75000   0.80307   0.16667   0.00000  Uiso   1.00
Zn256  Zn    0.75000   0.69693   0.16667   0.00000  Uiso   1.00
C257   C     0.16404   0.24995   0.49997   0.00000  Uiso   1.00
C258   C     0.21316   0.44766   0.48137   0.00000  Uiso   1.00
C259   C     0.24989   0.25000   0.40628   0.00000  Uiso   1.00
C260   C     0.25011   0.25000   0.59372   0.00000  Uiso   1.00
C261   C     0.25000   0.02660   0.50000   0.00000  Uiso   1.00
C262   C     0.25000   0.47348   0.50000   0.00000  Uiso   1.00
C263   C     0.24996   0.24999   0.35514   0.00000  Uiso   1.00
C264   C     0.25004   0.24999   0.64486   0.00000  Uiso   1.00
C265   C     0.04529   0.27758   0.46754   0.00000  Uiso   1.00
C266   C     0.45142   0.21727   0.46678   0.00000  Uiso   1.00
C267   C     0.45471   0.27758   0.53249   0.00000  Uiso   1.00
C268   C     0.33596   0.24995   0.50003   0.00000  Uiso   1.00
C269   C     0.04858   0.21727   0.53325   0.00000  Uiso   1.00
C270   C     0.09185   0.27865   0.46775   0.00000  Uiso   1.00
C271   C     0.40527   0.21895   0.46717   0.00000  Uiso   1.00
C272   C     0.40815   0.27865   0.53227   0.00000  Uiso   1.00
C273   C     0.09474   0.21895   0.53285   0.00000  Uiso   1.00
C274   C     0.11614   0.24950   0.50042   0.00000  Uiso   1.00
C275   C     0.38386   0.24950   0.49959   0.00000  Uiso   1.00
C276   C     0.02408   0.24690   0.50027   0.00000  Uiso   1.00
C277   C     0.47592   0.24689   0.49976   0.00000  Uiso   1.00
C278   C     0.23159   0.10162   0.46023   0.00000  Uiso   1.00
C279   C     0.28517   0.39845   0.52127   0.00000  Uiso   1.00
C280   C     0.26841   0.10162   0.53977   0.00000  Uiso   1.00
C281   C     0.21483   0.39845   0.47873   0.00000  Uiso   1.00
C282   C     0.23399   0.05241   0.45840   0.00000  Uiso   1.00
C283   C     0.28684   0.44766   0.51863   0.00000  Uiso   1.00
C284   C     0.26601   0.05241   0.54160   0.00000  Uiso   1.00
F285   F     0.11342   0.30654   0.43511   0.00000  Uiso   1.00
F286   F     0.38120   0.19116   0.43518   0.00000  Uiso   1.00
F287   F     0.38657   0.30653   0.56490   0.00000  Uiso   1.00
F288   F     0.11881   0.19116   0.56483   0.00000  Uiso   1.00
F289   F     0.22011   0.03028   0.41582   0.00000  Uiso   1.00
F290   F     0.32461   0.46979   0.53494   0.00000  Uiso   1.00
F291   F     0.27989   0.03028   0.58418   0.00000  Uiso   1.00
F292   F     0.17539   0.46979   0.46505   0.00000  Uiso   1.00
H293   H     0.19514   0.15158   0.43510   0.00000  Uiso   1.00
H294   H     0.30709   0.34823   0.56195   0.00000  Uiso   1.00
H295   H     0.30486   0.15158   0.56490   0.00000  Uiso   1.00
H296   H     0.19291   0.34823   0.43805   0.00000  Uiso   1.00
H297   H     0.03922   0.32540   0.41559   0.00000  Uiso   1.00
H298   H     0.00373   0.18781   0.43737   0.00000  Uiso   1.00
H299   H     0.46076   0.32540   0.58444   0.00000  Uiso   1.00
H300   H     0.49628   0.18783   0.56268   0.00000  Uiso   1.00
N301   N     0.25000   0.12623   0.50000   0.00000  Uiso   1.00
N302   N     0.25000   0.37376   0.50000   0.00000  Uiso   1.00
O303   O     0.18453   0.28974   0.50000   0.00000  Uiso   1.00
O304   O     0.31971   0.37632   0.54629   0.00000  Uiso   1.00
O305   O     0.29012   0.12384   0.57890   0.00000  Uiso   1.00
O306   O     0.18029   0.37632   0.45371   0.00000  Uiso   1.00
O307   O     0.01955   0.30558   0.43591   0.00000  Uiso   1.00
O308   O     0.47082   0.18653   0.43381   0.00000  Uiso   1.00
O309   O     0.48044   0.30557   0.56412   0.00000  Uiso   1.00
O310   O     0.02919   0.18653   0.56622   0.00000  Uiso   1.00
O311   O     0.31547   0.21026   0.50000   0.00000  Uiso   1.00
O312   O     0.31547   0.28974   0.50000   0.00000  Uiso   1.00
O313   O     0.18453   0.21026   0.50000   0.00000  Uiso   1.00
O314   O     0.25000   0.28973   0.42845   0.00000  Uiso   1.00
O315   O     0.25000   0.21027   0.57155   0.00000  Uiso   1.00
O316   O     0.25000   0.28973   0.57155   0.00000  Uiso   1.00
O317   O     0.25000   0.21027   0.42845   0.00000  Uiso   1.00
O318   O     0.20988   0.12384   0.42110   0.00000  Uiso   1.00
Zn319  Zn    0.25000   0.30307   0.50000   0.00000  Uiso   1.00
Zn320  Zn    0.25000   0.19693   0.50000   0.00000  Uiso   1.00
C321   C     0.66404   0.24995   0.49997   0.00000  Uiso   1.00
C322   C     0.71316   0.44766   0.48137   0.00000  Uiso   1.00
C323   C     0.74989   0.25000   0.40628   0.00000  Uiso   1.00
C324   C     0.75011   0.25000   0.59372   0.00000  Uiso   1.00
C325   C     0.75000   0.02660   0.50000   0.00000  Uiso   1.00
C326   C     0.75000   0.47348   0.50000   0.00000  Uiso   1.00
C327   C     0.74996   0.24999   0.35514   0.00000  Uiso   1.00
C328   C     0.75004   0.24999   0.64486   0.00000  Uiso   1.00
C329   C     0.54529   0.27758   0.46754   0.00000  Uiso   1.00
C330   C     0.95142   0.21727   0.46678   0.00000  Uiso   1.00
C331   C     0.95471   0.27758   0.53249   0.00000  Uiso   1.00
C332   C     0.83596   0.24995   0.50003   0.00000  Uiso   1.00
C333   C     0.54858   0.21727   0.53325   0.00000  Uiso   1.00
C334   C     0.59185   0.27865   0.46775   0.00000  Uiso   1.00
C335   C     0.90527   0.21895   0.46717   0.00000  Uiso   1.00
C336   C     0.90815   0.27865   0.53227   0.00000  Uiso   1.00
C337   C     0.59474   0.21895   0.53285   0.00000  Uiso   1.00
C338   C     0.61614   0.24950   0.50042   0.00000  Uiso   1.00
C339   C     0.88386   0.24950   0.49959   0.00000  Uiso   1.00
C340   C     0.52408   0.24690   0.50027   0.00000  Uiso   1.00
C341   C     0.97592   0.24689   0.49976   0.00000  Uiso   1.00
C342   C     0.73159   0.10162   0.46023   0.00000  Uiso   1.00
C343   C     0.78517   0.39845   0.52127   0.00000  Uiso   1.00
C344   C     0.76841   0.10162   0.53977   0.00000  Uiso   1.00
C345   C     0.71483   0.39845   0.47873   0.00000  Uiso   1.00
C346   C     0.73399   0.05241   0.45840   0.00000  Uiso   1.00
C347   C     0.78684   0.44766   0.51863   0.00000  Uiso   1.00
C348   C     0.76601   0.05241   0.54160   0.00000  Uiso   1.00
F349   F     0.61342   0.30654   0.43511   0.00000  Uiso   1.00
F350   F     0.88120   0.19116   0.43518   0.00000  Uiso   1.00
F351   F     0.88657   0.30653   0.56490   0.00000  Uiso   1.00
F352   F     0.61881   0.19116   0.56483   0.00000  Uiso   1.00
F353   F     0.72011   0.03028   0.41582   0.00000  Uiso   1.00
F354   F     0.82461   0.46979   0.53494   0.00000  Uiso   1.00
F355   F     0.77989   0.03028   0.58418   0.00000  Uiso   1.00
F356   F     0.67539   0.46979   0.46505   0.00000  Uiso   1.00
H357   H     0.69514   0.15158   0.43510   0.00000  Uiso   1.00
H358   H     0.80709   0.34823   0.56195   0.00000  Uiso   1.00
H359   H     0.80486   0.15158   0.56490   0.00000  Uiso   1.00
H360   H     0.69291   0.34823   0.43805   0.00000  Uiso   1.00
H361   H     0.53922   0.32540   0.41559   0.00000  Uiso   1.00
H362   H     0.50373   0.18781   0.43737   0.00000  Uiso   1.00
H363   H     0.96076   0.32540   0.58444   0.00000  Uiso   1.00
H364   H     0.99628   0.18783   0.56268   0.00000  Uiso   1.00
N365   N     0.75000   0.12623   0.50000   0.00000  Uiso   1.00
N366   N     0.75000   0.37376   0.50000   0.00000  Uiso   1.00
O367   O     0.68453   0.28974   0.50000   0.00000  Uiso   1.00
O368   O     0.81971   0.37632   0.54629   0.00000  Uiso   1.00
O369   O     0.79012   0.12384   0.57890   0.00000  Uiso   1.00
O370   O     0.68029   0.37632   0.45371   0.00000  Uiso   1.00
O371   O     0.51955   0.30558   0.43591   0.00000  Uiso   1.00
O372   O     0.97082   0.18653   0.43381   0.00000  Uiso   1.00
O373   O     0.98044   0.30557   0.56412   0.00000  Uiso   1.00
O374   O     0.52919   0.18653   0.56622   0.00000  Uiso   1.00
O375   O     0.81547   0.21026   0.50000   0.00000  Uiso   1.00
O376   O     0.81547   0.28974   0.50000   0.00000  Uiso   1.00
O377   O     0.68453   0.21026   0.50000   0.00000  Uiso   1.00
O378   O     0.75000   0.28973   0.42845   0.00000  Uiso   1.00
O379   O     0.75000   0.21027   0.57155   0.00000  Uiso   1.00
O380   O     0.75000   0.28973   0.57155   0.00000  Uiso   1.00
O381   O     0.75000   0.21027   0.42845   0.00000  Uiso   1.00
O382   O     0.70988   0.12384   0.42110   0.00000  Uiso   1.00
Zn383  Zn    0.75000   0.30307   0.50000   0.00000  Uiso   1.00
Zn384  Zn    0.75000   0.19693   0.50000   0.00000  Uiso   1.00
C385   C     0.16404   0.74995   0.49997   0.00000  Uiso   1.00
C386   C     0.21316   0.94766   0.48137   0.00000  Uiso   1.00
C387   C     0.24989   0.75000   0.40628   0.00000  Uiso   1.00
C388   C     0.25011   0.75000   0.59372   0.00000  Uiso   1.00
C389   C     0.25000   0.52660   0.50000   0.00000  Uiso   1.00
C390   C     0.25000   0.97348   0.50000   0.00000  Uiso   1.00
C391   C     0.24996   0.74999   0.35514   0.00000  Uiso   1.00
C392   C     0.25004   0.74999   0.64486   0.00000  Uiso   1.00
C393   C     0.04529   0.77758   0.46754   0.00000  Uiso   1.00
C394   C     0.45142   0.71727   0.46678   0.00000  Uiso   1.00
C395   C     0.45471   0.77758   0.53249   0.00000  Uiso   1.00
C396   C     0.33596   0.74995   0.50003   0.00000  Uiso   1.00
C397   C     0.04858   0.71727   0.53325   0.00000  Uiso   1.00
C398   C     0.09185   0.77865   0.46775   0.00000  Uiso   1.00
C399   C     0.40527   0.71895   0.46717   0.00000  Uiso   1.00
C400   C     0.40815   0.77865   0.53227   0.00000  Uiso   1.00
C401   C     0.09474   0.71895   0.53285   0.00000  Uiso   1.00
C402   C     0.11614   0.74950   0.50042   0.00000  Uiso   1.00
C403   C     0.38386   0.74950   0.49959   0.00000  Uiso   1.00
C404   C     0.02408   0.74690   0.50027   0.00000  Uiso   1.00
C405   C     0.47592   0.74689   0.49976   0.00000  Uiso   1.00
C406   C     0.23159   0.60162   0.46023   0.00000  Uiso   1.00
C407   C     0.28517   0.89845   0.52127   0.00000  Uiso   1.00
C408   C     0.26841   0.60162   0.53977   0.00000  Uiso   1.00
C409   C     0.21483   0.89845   0.47873   0.00000  Uiso   1.00
C410   C     0.23399   0.55241   0.45840   0.00000  Uiso   1.00
C411   C     0.28684   0.94766   0.51863   0.00000  Uiso   1.00
C412   C     0.26601   0.55241   0.54160   0.00000  Uiso   1.00
F413   F     0.11342   0.80654   0.43511   0.00000  Uiso   1.00
F414   F     0.38120   0.69116   0.43518   0.00000  Uiso   1.00
F415   F     0.38657   0.80653   0.56490   0.00000  Uiso   1.00
F416   F     0.11881   0.69116   0.56483   0.00000  Uiso   1.00
F417   F     0.22011   0.53028   0.41582   0.00000  Uiso   1.00
F418   F     0.32461   0.96979   0.53494   0.00000  Uiso   1.00
F419   F     0.27989   0.53028   0.58418   0.00000  Uiso   1.00
F420   F     0.17539   0.96979   0.46505   0.00000  Uiso   1.00
H421   H     0.19514   0.65158   0.43510   0.00000  Uiso   1.00
H422   H     0.30709   0.84823   0.56195   0.00000  Uiso   1.00
H423   H     0.30486   0.65158   0.56490   0.00000  Uiso   1.00
H424   H     0.19291   0.84823   0.43805   0.00000  Uiso   1.00
H425   H     0.03922   0.82540   0.41559   0.00000  Uiso   1.00
H426   H     0.00373   0.68781   0.43737   0.00000  Uiso   1.00
H427   H     0.46076   0.82540   0.58444   0.00000  Uiso   1.00
H428   H     0.49628   0.68783   0.56268   0.00000  Uiso   1.00
N429   N     0.25000   0.62623   0.50000   0.00000  Uiso   1.00
N430   N     0.25000   0.87376   0.50000   0.00000  Uiso   1.00
O431   O     0.18453   0.78974   0.50000   0.00000  Uiso   1.00
O432   O     0.31971   0.87632   0.54629   0.00000  Uiso   1.00
O433   O     0.29012   0.62384   0.57890   0.00000  Uiso   1.00
O434   O     0.18029   0.87632   0.45371   0.00000  Uiso   1.00
O435   O     0.01955   0.80558   0.43591   0.00000  Uiso   1.00
O436   O     0.47082   0.68653   0.43381   0.00000  Uiso   1.00
O437   O     0.48044   0.80557   0.56412   0.00000  Uiso   1.00
O438   O     0.02919   0.68653   0.56622   0.00000  Uiso   1.00
O439   O     0.31547   0.71026   0.50000   0.00000  Uiso   1.00
O440   O     0.31547   0.78974   0.50000   0.00000  Uiso   1.00
O441   O     0.18453   0.71026   0.50000   0.00000  Uiso   1.00
O442   O     0.25000   0.78973   0.42845   0.00000  Uiso   1.00
O443   O     0.25000   0.71027   0.57155   0.00000  Uiso   1.00
O444   O     0.25000   0.78973   0.57155   0.00000  Uiso   1.00
O445   O     0.25000   0.71027   0.42845   0.00000  Uiso   1.00
O446   O     0.20988   0.62384   0.42110   0.00000  Uiso   1.00
Zn447  Zn    0.25000   0.80307   0.50000   0.00000  Uiso   1.00
Zn448  Zn    0.25000   0.69693   0.50000   0.00000  Uiso   1.00
C449   C     0.66404   0.74995   0.49997   0.00000  Uiso   1.00
C450   C     0.71316   0.94766   0.48137   0.00000  Uiso   1.00
C451   C     0.74989   0.75000   0.40628   0.00000  Uiso   1.00
C452   C     0.75011   0.75000   0.59372   0.00000  Uiso   1.00
C453   C     0.75000   0.52660   0.50000   0.00000  Uiso   1.00
C454   C     0.75000   0.97348   0.50000   0.00000  Uiso   1.00
C455   C     0.74996   0.74999   0.35514   0.00000  Uiso   1.00
C456   C     0.75004   0.74999   0.64486   0.00000  Uiso   1.00
C457   C     0.54529   0.77758   0.46754   0.00000  Uiso   1.00
C458   C     0.95142   0.71727   0.46678   0.00000  Uiso   1.00
C459   C     0.95471   0.77758   0.53249   0.00000  Uiso   1.00
C460   C     0.83596   0.74995   0.50003   0.00000  Uiso   1.00
C461   C     0.54858   0.71727   0.53325   0.00000  Uiso   1.00
C462   C     0.59185   0.77865   0.46775   0.00000  Uiso   1.00
C463   C     0.90527   0.71895   0.46717   0.00000  Uiso   1.00
C464   C     0.90815   0.77865   0.53227   0.00000  Uiso   1.00
C465   C     0.59474   0.71895   0.53285   0.00000  Uiso   1.00
C466   C     0.61614   0.74950   0.50042   0.00000  Uiso   1.00
C467   C     0.88386   0.74950   0.49959   0.00000  Uiso   1.00
C468   C     0.52408   0.74690   0.50027   0.00000  Uiso   1.00
C469   C     0.97592   0.74689   0.49976   0.00000  Uiso   1.00
C470   C     0.73159   0.60162   0.46023   0.00000  Uiso   1.00
C471   C     0.78517   0.89845   0.52127   0.00000  Uiso   1.00
C472   C     0.76841   0.60162   0.53977   0.00000  Uiso   1.00
C473   C     0.71483   0.89845   0.47873   0.00000  Uiso   1.00
C474   C     0.73399   0.55241   0.45840   0.00000  Uiso   1.00
C475   C     0.78684   0.94766   0.51863   0.00000  Uiso   1.00
C476   C     0.76601   0.55241   0.54160   0.00000  Uiso   1.00
F477   F     0.61342   0.80654   0.43511   0.00000  Uiso   1.00
F478   F     0.88120   0.69116   0.43518   0.00000  Uiso   1.00
F479   F     0.88657   0.80653   0.56490   0.00000  Uiso   1.00
F480   F     0.61881   0.69116   0.56483   0.00000  Uiso   1.00
F481   F     0.72011   0.53028   0.41582   0.00000  Uiso   1.00
F482   F     0.82461   0.96979   0.53494   0.00000  Uiso   1.00
F483   F     0.77989   0.53028   0.58418   0.00000  Uiso   1.00
F484   F     0.67539   0.96979   0.46505   0.00000  Uiso   1.00
H485   H     0.69514   0.65158   0.43510   0.00000  Uiso   1.00
H486   H     0.80709   0.84823   0.56195   0.00000  Uiso   1.00
H487   H     0.80486   0.65158   0.56490   0.00000  Uiso   1.00
H488   H     0.69291   0.84823   0.43805   0.00000  Uiso   1.00
H489   H     0.53922   0.82540   0.41559   0.00000  Uiso   1.00
H490   H     0.50373   0.68781   0.43737   0.00000  Uiso   1.00
H491   H     0.96076   0.82540   0.58444   0.00000  Uiso   1.00
H492   H     0.99628   0.68783   0.56268   0.00000  Uiso   1.00
N493   N     0.75000   0.62623   0.50000   0.00000  Uiso   1.00
N494   N     0.75000   0.87376   0.50000   0.00000  Uiso   1.00
O495   O     0.68453   0.78974   0.50000   0.00000  Uiso   1.00
O496   O     0.81971   0.87632   0.54629   0.00000  Uiso   1.00
O497   O     0.79012   0.62384   0.57890   0.00000  Uiso   1.00
O498   O     0.68029   0.87632   0.45371   0.00000  Uiso   1.00
O499   O     0.51955   0.80558   0.43591   0.00000  Uiso   1.00
O500   O     0.97082   0.68653   0.43381   0.00000  Uiso   1.00
O501   O     0.98044   0.80557   0.56412   0.00000  Uiso   1.00
O502   O     0.52919   0.68653   0.56622   0.00000  Uiso   1.00
O503   O     0.81547   0.71026   0.50000   0.00000  Uiso   1.00
O504   O     0.81547   0.78974   0.50000   0.00000  Uiso   1.00
O505   O     0.68453   0.71026   0.50000   0.00000  Uiso   1.00
O506   O     0.75000   0.78973   0.42845   0.00000  Uiso   1.00
O507   O     0.75000   0.71027   0.57155   0.00000  Uiso   1.00
O508   O     0.75000   0.78973   0.57155   0.00000  Uiso   1.00
O509   O     0.75000   0.71027   0.42845   0.00000  Uiso   1.00
O510   O     0.70988   0.62384   0.42110   0.00000  Uiso   1.00
Zn511  Zn    0.75000   0.80307   0.50000   0.00000  Uiso   1.00
Zn512  Zn    0.75000   0.69693   0.50000   0.00000  Uiso   1.00
C513   C     0.16404   0.24995   0.83330   0.00000  Uiso   1.00
C514   C     0.21316   0.44766   0.81470   0.00000  Uiso   1.00
C515   C     0.24989   0.25000   0.73961   0.00000  Uiso   1.00
C516   C     0.25011   0.25000   0.92706   0.00000  Uiso   1.00
C517   C     0.25000   0.02660   0.83333   0.00000  Uiso   1.00
C518   C     0.25000   0.47348   0.83333   0.00000  Uiso   1.00
C519   C     0.24996   0.24999   0.68847   0.00000  Uiso   1.00
C520   C     0.25004   0.24999   0.97819   0.00000  Uiso   1.00
C521   C     0.04529   0.27758   0.80087   0.00000  Uiso   1.00
C522   C     0.45142   0.21727   0.80011   0.00000  Uiso   1.00
C523   C     0.45471   0.27758   0.86582   0.00000  Uiso   1.00
C524   C     0.33596   0.24995   0.83336   0.00000  Uiso   1.00
C525   C     0.04858   0.21727   0.86658   0.00000  Uiso   1.00
C526   C     0.09185   0.27865   0.80108   0.00000  Uiso   1.00
C527   C     0.40527   0.21895   0.80050   0.00000  Uiso   1.00
C528   C     0.40815   0.27865   0.86560   0.00000  Uiso   1.00
C529   C     0.09474   0.21895   0.86618   0.00000  Uiso   1.00
C530   C     0.11614   0.24950   0.83376   0.00000  Uiso   1.00
C531   C     0.38386   0.24950   0.83292   0.00000  Uiso   1.00
C532   C     0.02408   0.24690   0.83361   0.00000  Uiso   1.00
C533   C     0.47592   0.24689   0.83309   0.00000  Uiso   1.00
C534   C     0.23159   0.10162   0.79356   0.00000  Uiso   1.00
C535   C     0.28517   0.39845   0.85460   0.00000  Uiso   1.00
C536   C     0.26841   0.10162   0.87310   0.00000  Uiso   1.00
C537   C     0.21483   0.39845   0.81206   0.00000  Uiso   1.00
C538   C     0.23399   0.05241   0.79174   0.00000  Uiso   1.00
C539   C     0.28684   0.44766   0.85196   0.00000  Uiso   1.00
C540   C     0.26601   0.05241   0.87493   0.00000  Uiso   1.00
F541   F     0.11342   0.30654   0.76844   0.00000  Uiso   1.00
F542   F     0.38120   0.19116   0.76852   0.00000  Uiso   1.00
F543   F     0.38657   0.30653   0.89824   0.00000  Uiso   1.00
F544   F     0.11881   0.19116   0.89816   0.00000  Uiso   1.00
F545   F     0.22011   0.03028   0.74915   0.00000  Uiso   1.00
F546   F     0.32461   0.46979   0.86828   0.00000  Uiso   1.00
F547   F     0.27989   0.03028   0.91751   0.00000  Uiso   1.00
F548   F     0.17539   0.46979   0.79839   0.00000  Uiso   1.00
H549   H     0.19514   0.15158   0.76843   0.00000  Uiso   1.00
H550   H     0.30709   0.34823   0.89528   0.00000  Uiso   1.00
H551   H     0.30486   0.15158   0.89824   0.00000  Uiso   1.00
H552   H     0.19291   0.34823   0.77138   0.00000  Uiso   1.00
H553   H     0.03922   0.32540   0.74893   0.00000  Uiso   1.00
H554   H     0.00373   0.18781   0.77071   0.00000  Uiso   1.00
H555   H     0.46076   0.32540   0.91777   0.00000  Uiso   1.00
H556   H     0.49628   0.18783   0.89601   0.00000  Uiso   1.00
N557   N     0.25000   0.12623   0.83333   0.00000  Uiso   1.00
N558   N     0.25000   0.37376   0.83333   0.00000  Uiso   1.00
O559   O     0.18453   0.28974   0.83334   0.00000  Uiso   1.00
O560   O     0.31971   0.37632   0.87962   0.00000  Uiso   1.00
O561   O     0.29012   0.12384   0.91223   0.00000  Uiso   1.00
O562   O     0.18029   0.37632   0.78704   0.00000  Uiso   1.00
O563   O     0.01955   0.30558   0.76924   0.00000  Uiso   1.00
O564   O     0.47082   0.18653   0.76714   0.00000  Uiso   1.00
O565   O     0.48044   0.30557   0.89746   0.00000  Uiso   1.00
O566   O     0.02919   0.18653   0.89955   0.00000  Uiso   1.00
O567   O     0.31547   0.21026   0.83333   0.00000  Uiso   1.00
O568   O     0.31547   0.28974   0.83333   0.00000  Uiso   1.00
O569   O     0.18453   0.21026   0.83334   0.00000  Uiso   1.00
O570   O     0.25000   0.28973   0.76178   0.00000  Uiso   1.00
O571   O     0.25000   0.21027   0.90489   0.00000  Uiso   1.00
O572   O     0.25000   0.28973   0.90489   0.00000  Uiso   1.00
O573   O     0.25000   0.21027   0.76178   0.00000  Uiso   1.00
O574   O     0.20988   0.12384   0.75444   0.00000  Uiso   1.00
Zn575  Zn    0.25000   0.30307   0.83333   0.00000  Uiso   1.00
Zn576  Zn    0.25000   0.19693   0.83333   0.00000  Uiso   1.00
C577   C     0.66404   0.24995   0.83330   0.00000  Uiso   1.00
C578   C     0.71316   0.44766   0.81470   0.00000  Uiso   1.00
C579   C     0.74989   0.25000   0.73961   0.00000  Uiso   1.00
C580   C     0.75011   0.25000   0.92706   0.00000  Uiso   1.00
C581   C     0.75000   0.02660   0.83333   0.00000  Uiso   1.00
C582   C     0.75000   0.47348   0.83333   0.00000  Uiso   1.00
C583   C     0.74996   0.24999   0.68847   0.00000  Uiso   1.00
C584   C     0.75004   0.24999   0.97819   0.00000  Uiso   1.00
C585   C     0.54529   0.27758   0.80087   0.00000  Uiso   1.00
C586   C     0.95142   0.21727   0.80011   0.00000  Uiso   1.00
C587   C     0.95471   0.27758   0.86582   0.00000  Uiso   1.00
C588   C     0.83596   0.24995   0.83336   0.00000  Uiso   1.00
C589   C     0.54858   0.21727   0.86658   0.00000  Uiso   1.00
C590   C     0.59185   0.27865   0.80108   0.00000  Uiso   1.00
C591   C     0.90527   0.21895   0.80050   0.00000  Uiso   1.00
C592   C     0.90815   0.27865   0.86560   0.00000  Uiso   1.00
C593   C     0.59474   0.21895   0.86618   0.00000  Uiso   1.00
C594   C     0.61614   0.24950   0.83376   0.00000  Uiso   1.00
C595   C     0.88386   0.24950   0.83292   0.00000  Uiso   1.00
C596   C     0.52408   0.24690   0.83361   0.00000  Uiso   1.00
C597   C     0.97592   0.24689   0.83309   0.00000  Uiso   1.00
C598   C     0.73159   0.10162   0.79356   0.00000  Uiso   1.00
C599   C     0.78517   0.39845   0.85460   0.00000  Uiso   1.00
C600   C     0.76841   0.10162   0.87310   0.00000  Uiso   1.00
C601   C     0.71483   0.39845   0.81206   0.00000  Uiso   1.00
C602   C     0.73399   0.05241   0.79174   0.00000  Uiso   1.00
C603   C     0.78684   0.44766   0.85196   0.00000  Uiso   1.00
C604   C     0.76601   0.05241   0.87493   0.00000  Uiso   1.00
F605   F     0.61342   0.30654   0.76844   0.00000  Uiso   1.00
F606   F     0.88120   0.19116   0.76852   0.00000  Uiso   1.00
F607   F     0.88657   0.30653   0.89824   0.00000  Uiso   1.00
F608   F     0.61881   0.19116   0.89816   0.00000  Uiso   1.00
F609   F     0.72011   0.03028   0.74915   0.00000  Uiso   1.00
F610   F     0.82461   0.46979   0.86828   0.00000  Uiso   1.00
F611   F     0.77989   0.03028   0.91751   0.00000  Uiso   1.00
F612   F     0.67539   0.46979   0.79839   0.00000  Uiso   1.00
H613   H     0.69514   0.15158   0.76843   0.00000  Uiso   1.00
H614   H     0.80709   0.34823   0.89528   0.00000  Uiso   1.00
H615   H     0.80486   0.15158   0.89824   0.00000  Uiso   1.00
H616   H     0.69291   0.34823   0.77138   0.00000  Uiso   1.00
H617   H     0.53922   0.32540   0.74893   0.00000  Uiso   1.00
H618   H     0.50373   0.18781   0.77071   0.00000  Uiso   1.00
H619   H     0.96076   0.32540   0.91777   0.00000  Uiso   1.00
H620   H     0.99628   0.18783   0.89601   0.00000  Uiso   1.00
N621   N     0.75000   0.12623   0.83333   0.00000  Uiso   1.00
N622   N     0.75000   0.37376   0.83333   0.00000  Uiso   1.00
O623   O     0.68453   0.28974   0.83334   0.00000  Uiso   1.00
O624   O     0.81971   0.37632   0.87962   0.00000  Uiso   1.00
O625   O     0.79012   0.12384   0.91223   0.00000  Uiso   1.00
O626   O     0.68029   0.37632   0.78704   0.00000  Uiso   1.00
O627   O     0.51955   0.30558   0.76924   0.00000  Uiso   1.00
O628   O     0.97082   0.18653   0.76714   0.00000  Uiso   1.00
O629   O     0.98044   0.30557   0.89746   0.00000  Uiso   1.00
O630   O     0.52919   0.18653   0.89955   0.00000  Uiso   1.00
O631   O     0.81547   0.21026   0.83333   0.00000  Uiso   1.00
O632   O     0.81547   0.28974   0.83333   0.00000  Uiso   1.00
O633   O     0.68453   0.21026   0.83334   0.00000  Uiso   1.00
O634   O     0.75000   0.28973   0.76178   0.00000  Uiso   1.00
O635   O     0.75000   0.21027   0.90489   0.00000  Uiso   1.00
O636   O     0.75000   0.28973   0.90489   0.00000  Uiso   1.00
O637   O     0.75000   0.21027   0.76178   0.00000  Uiso   1.00
O638   O     0.70988   0.12384   0.75444   0.00000  Uiso   1.00
Zn639  Zn    0.75000   0.30307   0.83333   0.00000  Uiso   1.00
Zn640  Zn    0.75000   0.19693   0.83333   0.00000  Uiso   1.00
C641   C     0.16404   0.74995   0.83330   0.00000  Uiso   1.00
C642   C     0.21316   0.94766   0.81470   0.00000  Uiso   1.00
C643   C     0.24989   0.75000   0.73961   0.00000  Uiso   1.00
C644   C     0.25011   0.75000   0.92706   0.00000  Uiso   1.00
C645   C     0.25000   0.52660   0.83333   0.00000  Uiso   1.00
C646   C     0.25000   0.97348   0.83333   0.00000  Uiso   1.00
C647   C     0.24996   0.74999   0.68847   0.00000  Uiso   1.00
C648   C     0.25004   0.74999   0.97819   0.00000  Uiso   1.00
C649   C     0.04529   0.77758   0.80087   0.00000  Uiso   1.00
C650   C     0.45142   0.71727   0.80011   0.00000  Uiso   1.00
C651   C     0.45471   0.77758   0.86582   0.00000  Uiso   1.00
C652   C     0.33596   0.74995   0.83336   0.00000  Uiso   1.00
C653   C     0.04858   0.71727   0.86658   0.00000  Uiso   1.00
C654   C     0.09185   0.77865   0.80108   0.00000  Uiso   1.00
C655   C     0.40527   0.71895   0.80050   0.00000  Uiso   1.00
C656   C     0.40815   0.77865   0.86560   0.00000  Uiso   1.00
C657   C     0.09474   0.71895   0.86618   0.00000  Uiso   1.00
C658   C     0.11614   0.74950   0.83376   0.00000  Uiso   1.00
C659   C     0.38386   0.74950   0.83292   0.00000  Uiso   1.00
C660   C     0.02408   0.74690   0.83361   0.00000  Uiso   1.00
C661   C     0.47592   0.74689   0.83309   0.00000  Uiso   1.00
C662   C     0.23159   0.60162   0.79356   0.00000  Uiso   1.00
C663   C     0.28517   0.89845   0.85460   0.00000  Uiso   1.00
C664   C     0.26841   0.60162   0.87310   0.00000  Uiso   1.00
C665   C     0.21483   0.89845   0.81206   0.00000  Uiso   1.00
C666   C     0.23399   0.55241   0.79174   0.00000  Uiso   1.00
C667   C     0.28684   0.94766   0.85196   0.00000  Uiso   1.00
C668   C     0.26601   0.55241   0.87493   0.00000  Uiso   1.00
F669   F     0.11342   0.80654   0.76844   0.00000  Uiso   1.00
F670   F     0.38120   0.69116   0.76852   0.00000  Uiso   1.00
F671   F     0.38657   0.80653   0.89824   0.00000  Uiso   1.00
F672   F     0.11881   0.69116   0.89816   0.00000  Uiso   1.00
F673   F     0.22011   0.53028   0.74915   0.00000  Uiso   1.00
F674   F     0.32461   0.96979   0.86828   0.00000  Uiso   1.00
F675   F     0.27989   0.53028   0.91751   0.00000  Uiso   1.00
F676   F     0.17539   0.96979   0.79839   0.00000  Uiso   1.00
H677   H     0.19514   0.65158   0.76843   0.00000  Uiso   1.00
H678   H     0.30709   0.84823   0.89528   0.00000  Uiso   1.00
H679   H     0.30486   0.65158   0.89824   0.00000  Uiso   1.00
H680   H     0.19291   0.84823   0.77138   0.00000  Uiso   1.00
H681   H     0.03922   0.82540   0.74893   0.00000  Uiso   1.00
H682   H     0.00373   0.68781   0.77071   0.00000  Uiso   1.00
H683   H     0.46076   0.82540   0.91777   0.00000  Uiso   1.00
H684   H     0.49628   0.68783   0.89601   0.00000  Uiso   1.00
N685   N     0.25000   0.62623   0.83333   0.00000  Uiso   1.00
N686   N     0.25000   0.87376   0.83333   0.00000  Uiso   1.00
O687   O     0.18453   0.78974   0.83334   0.00000  Uiso   1.00
O688   O     0.31971   0.87632   0.87962   0.00000  Uiso   1.00
O689   O     0.29012   0.62384   0.91223   0.00000  Uiso   1.00
O690   O     0.18029   0.87632   0.78704   0.00000  Uiso   1.00
O691   O     0.01955   0.80558   0.76924   0.00000  Uiso   1.00
O692   O     0.47082   0.68653   0.76714   0.00000  Uiso   1.00
O693   O     0.48044   0.80557   0.89746   0.00000  Uiso   1.00
O694   O     0.02919   0.68653   0.89955   0.00000  Uiso   1.00
O695   O     0.31547   0.71026   0.83333   0.00000  Uiso   1.00
O696   O     0.31547   0.78974   0.83333   0.00000  Uiso   1.00
O697   O     0.18453   0.71026   0.83334   0.00000  Uiso   1.00
O698   O     0.25000   0.78973   0.76178   0.00000  Uiso   1.00
O699   O     0.25000   0.71027   0.90489   0.00000  Uiso   1.00
O700   O     0.25000   0.78973   0.90489   0.00000  Uiso   1.00
O701   O     0.25000   0.71027   0.76178   0.00000  Uiso   1.00
O702   O     0.20988   0.62384   0.75444   0.00000  Uiso   1.00
Zn703  Zn    0.25000   0.80307   0.83333   0.00000  Uiso   1.00
Zn704  Zn    0.25000   0.69693   0.83333   0.00000  Uiso   1.00
C705   C     0.66404   0.74995   0.83330   0.00000  Uiso   1.00
C706   C     0.71316   0.94766   0.81470   0.00000  Uiso   1.00
C707   C     0.74989   0.75000   0.73961   0.00000  Uiso   1.00
C708   C     0.75011   0.75000   0.92706   0.00000  Uiso   1.00
C709   C     0.75000   0.52660   0.83333   0.00000  Uiso   1.00
C710   C     0.75000   0.97348   0.83333   0.00000  Uiso   1.00
C711   C     0.74996   0.74999   0.68847   0.00000  Uiso   1.00
C712   C     0.75004   0.74999   0.97819   0.00000  Uiso   1.00
C713   C     0.54529   0.77758   0.80087   0.00000  Uiso   1.00
C714   C     0.95142   0.71727   0.80011   0.00000  Uiso   1.00
C715   C     0.95471   0.77758   0.86582   0.00000  Uiso   1.00
C716   C     0.83596   0.74995   0.83336   0.00000  Uiso   1.00
C717   C     0.54858   0.71727   0.86658   0.00000  Uiso   1.00
C718   C     0.59185   0.77865   0.80108   0.00000  Uiso   1.00
C719   C     0.90527   0.71895   0.80050   0.00000  Uiso   1.00
C720   C     0.90815   0.77865   0.86560   0.00000  Uiso   1.00
C721   C     0.59474   0.71895   0.86618   0.00000  Uiso   1.00
C722   C     0.61614   0.74950   0.83376   0.00000  Uiso   1.00
C723   C     0.88386   0.74950   0.83292   0.00000  Uiso   1.00
C724   C     0.52408   0.74690   0.83361   0.00000  Uiso   1.00
C725   C     0.97592   0.74689   0.83309   0.00000  Uiso   1.00
C726   C     0.73159   0.60162   0.79356   0.00000  Uiso   1.00
C727   C     0.78517   0.89845   0.85460   0.00000  Uiso   1.00
C728   C     0.76841   0.60162   0.87310   0.00000  Uiso   1.00
C729   C     0.71483   0.89845   0.81206   0.00000  Uiso   1.00
C730   C     0.73399   0.55241   0.79174   0.00000  Uiso   1.00
C731   C     0.78684   0.94766   0.85196   0.00000  Uiso   1.00
C732   C     0.76601   0.55241   0.87493   0.00000  Uiso   1.00
F733   F     0.61342   0.80654   0.76844   0.00000  Uiso   1.00
F734   F     0.88120   0.69116   0.76852   0.00000  Uiso   1.00
F735   F     0.88657   0.80653   0.89824   0.00000  Uiso   1.00
F736   F     0.61881   0.69116   0.89816   0.00000  Uiso   1.00
F737   F     0.72011   0.53028   0.74915   0.00000  Uiso   1.00
F738   F     0.82461   0.96979   0.86828   0.00000  Uiso   1.00
F739   F     0.77989   0.53028   0.91751   0.00000  Uiso   1.00
F740   F     0.67539   0.96979   0.79839   0.00000  Uiso   1.00
H741   H     0.69514   0.65158   0.76843   0.00000  Uiso   1.00
H742   H     0.80709   0.84823   0.89528   0.00000  Uiso   1.00
H743   H     0.80486   0.65158   0.89824   0.00000  Uiso   1.00
H744   H     0.69291   0.84823   0.77138   0.00000  Uiso   1.00
H745   H     0.53922   0.82540   0.74893   0.00000  Uiso   1.00
H746   H     0.50373   0.68781   0.77071   0.00000  Uiso   1.00
H747   H     0.96076   0.82540   0.91777   0.00000  Uiso   1.00
H748   H     0.99628   0.68783   0.89601   0.00000  Uiso   1.00
N749   N     0.75000   0.62623   0.83333   0.00000  Uiso   1.00
N750   N     0.75000   0.87376   0.83333   0.00000  Uiso   1.00
O751   O     0.68453   0.78974   0.83334   0.00000  Uiso   1.00
O752   O     0.81971   0.87632   0.87962   0.00000  Uiso   1.00
O753   O     0.79012   0.62384   0.91223   0.00000  Uiso   1.00
O754   O     0.68029   0.87632   0.78704   0.00000  Uiso   1.00
O755   O     0.51955   0.80558   0.76924   0.00000  Uiso   1.00
O756   O     0.97082   0.68653   0.76714   0.00000  Uiso   1.00
O757   O     0.98044   0.80557   0.89746   0.00000  Uiso   1.00
O758   O     0.52919   0.68653   0.89955   0.00000  Uiso   1.00
O759   O     0.81547   0.71026   0.83333   0.00000  Uiso   1.00
O760   O     0.81547   0.78974   0.83333   0.00000  Uiso   1.00
O761   O     0.68453   0.71026   0.83334   0.00000  Uiso   1.00
O762   O     0.75000   0.78973   0.76178   0.00000  Uiso   1.00
O763   O     0.75000   0.71027   0.90489   0.00000  Uiso   1.00
O764   O     0.75000   0.78973   0.90489   0.00000  Uiso   1.00
O765   O     0.75000   0.71027   0.76178   0.00000  Uiso   1.00
O766   O     0.70988   0.62384   0.75444   0.00000  Uiso   1.00
Zn767  Zn    0.75000   0.80307   0.83333   0.00000  Uiso   1.00
Zn768  Zn    0.75000   0.69693   0.83333   0.00000  Uiso   1.00
loop_
_geom_bond_atom_site_label_1
_geom_bond_atom_site_label_2
_geom_bond_distance
_geom_bond_site_symmetry_2
_ccdc_geom_bond_type
C1     O57     1.290   .     A
C1     C18     1.435   .     S
C1     O47     1.293   .     A
C2     C6      1.408   .     A
C2     C25     1.410   .     A
C2     F36     1.358   .     S
C3     C7      1.367   .     S
C3     O61     1.281   .     A
C3     O58     1.282   .     A
C4     C8      1.367   .     S
C4     O60     1.282   .     A
C4     O59     1.281   .     A
C5     C28     1.408   .     A
C5     C26     1.408   .     A
C5     C134    1.519   1_545 S
C6     C27     1.408   .     A
C6     C133    1.519   .     S
C7     C520    1.166   1_554 S
C8     C263    1.166   .     S
C9     C14     1.395   .     A
C9     C20     1.403   .     A
C9     O51     1.384   .     S
C10    O52     1.384   .     S
C10    C21     1.414   .     A
C10    C15     1.383   .     A
C11    C16     1.395   .     A
C11    O53     1.384   .     S
C11    C21     1.403   .     A
C12    O56     1.293   .     A
C12    C19     1.435   .     S
C12    O55     1.290   .     A
C13    C17     1.383   .     A
C13    O54     1.384   .     S
C13    C20     1.414   .     A
C14    C18     1.397   .     A
C14    F29     1.358   .     S
C15    C19     1.398   .     A
C15    F30     1.360   .     S
C16    F31     1.358   .     S
C16    C19     1.397   .     A
C17    C18     1.398   .     A
C17    F32     1.360   .     S
C20    C85     1.442   1_455 S
C21    C84     1.442   .     S
C22    O62     1.372   .     S
C22    N45     1.378   .     A
C22    C26     1.410   .     A
C23    N46     1.378   .     A
C23    C27     1.410   .     A
C23    O48     1.371   .     S
C24    N45     1.378   .     A
C24    O49     1.372   .     S
C24    C28     1.410   .     A
C25    O50     1.371   .     S
C25    N46     1.378   .     A
C26    F33     1.358   .     S
C27    F34     1.358   .     S
C28    F35     1.358   .     S
H37    O62     0.987   .     S
H38    O48     0.986   .     S
H39    O49     0.987   .     S
H40    O50     0.986   .     S
H41    O51     0.990   .     S
H42    O116    0.988   1_455 S
H43    O53     0.990   .     S
H44    O118    0.988   .     S
N45    Zn64    2.022   .     S
N46    Zn63    2.022   .     S
O47    Zn63    1.997   .     S
O52    H106    0.988   .     S
O54    H108    0.988   1_455 S
O55    Zn64    1.997   .     S
O56    Zn63    1.997   .     S
O57    Zn64    1.997   .     S
O58    Zn63    1.950   .     S
O59    Zn64    1.950   .     S
O60    Zn63    1.950   .     S
O61    Zn64    1.950   .     S
C65    O121    1.290   .     A
C65    C82     1.435   .     S
C65    O111    1.293   .     A
C66    C70     1.408   .     A
C66    C89     1.410   .     A
C66    F100    1.358   .     S
C67    C71     1.367   .     S
C67    O125    1.281   .     A
C67    O122    1.282   .     A
C68    C72     1.367   .     S
C68    O124    1.282   .     A
C68    O123    1.281   .     A
C69    C92     1.408   .     A
C69    C90     1.408   .     A
C69    C198    1.519   1_545 S
C70    C91     1.408   .     A
C70    C197    1.519   .     S
C71    C584    1.166   1_554 S
C72    C327    1.166   .     S
C73    C78     1.395   .     A
C73    C84     1.403   .     A
C73    O115    1.384   .     S
C74    O116    1.384   .     S
C74    C85     1.414   .     A
C74    C79     1.383   .     A
C75    C80     1.395   .     A
C75    O117    1.384   .     S
C75    C85     1.403   .     A
C76    O120    1.293   .     A
C76    C83     1.435   .     S
C76    O119    1.290   .     A
C77    C81     1.383   .     A
C77    O118    1.384   .     S
C77    C84     1.414   .     A
C78    C82     1.397   .     A
C78    F93     1.358   .     S
C79    C83     1.398   .     A
C79    F94     1.360   .     S
C80    F95     1.358   .     S
C80    C83     1.397   .     A
C81    C82     1.398   .     A
C81    F96     1.360   .     S
C85    C20     1.442   1_655 S
C86    O126    1.372   .     S
C86    N109    1.378   .     A
C86    C90     1.410   .     A
C87    N110    1.378   .     A
C87    C91     1.410   .     A
C87    O112    1.371   .     S
C88    N109    1.378   .     A
C88    O113    1.372   .     S
C88    C92     1.410   .     A
C89    O114    1.371   .     S
C89    N110    1.378   .     A
C90    F97     1.358   .     S
C91    F98     1.358   .     S
C92    F99     1.358   .     S
H101   O126    0.987   .     S
H102   O112    0.986   .     S
H103   O113    0.987   .     S
H104   O114    0.986   .     S
H105   O115    0.990   .     S
H107   O117    0.990   .     S
H108   O54     0.988   1_655 S
N109   Zn128   2.022   .     S
N110   Zn127   2.022   .     S
O111   Zn127   1.997   .     S
O116   H42     0.988   1_655 S
O119   Zn128   1.997   .     S
O120   Zn127   1.997   .     S
O121   Zn128   1.997   .     S
O122   Zn127   1.950   .     S
O123   Zn128   1.950   .     S
O124   Zn127   1.950   .     S
O125   Zn128   1.950   .     S
C129   O185    1.290   .     A
C129   C146    1.435   .     S
C129   O175    1.293   .     A
C130   C134    1.408   .     A
C130   C153    1.410   .     A
C130   F164    1.358   .     S
C131   C135    1.367   .     S
C131   O189    1.281   .     A
C131   O186    1.282   .     A
C132   C136    1.367   .     S
C132   O188    1.282   .     A
C132   O187    1.281   .     A
C133   C156    1.408   .     A
C133   C154    1.408   .     A
C134   C155    1.408   .     A
C134   C5      1.519   1_565 S
C135   C648    1.166   1_554 S
C136   C391    1.166   .     S
C137   C142    1.395   .     A
C137   C148    1.403   .     A
C137   O179    1.384   .     S
C138   O180    1.384   .     S
C138   C149    1.414   .     A
C138   C143    1.383   .     A
C139   C144    1.395   .     A
C139   O181    1.384   .     S
C139   C149    1.403   .     A
C140   O184    1.293   .     A
C140   C147    1.435   .     S
C140   O183    1.290   .     A
C141   C145    1.383   .     A
C141   O182    1.384   .     S
C141   C148    1.414   .     A
C142   C146    1.397   .     A
C142   F157    1.358   .     S
C143   C147    1.398   .     A
C143   F158    1.360   .     S
C144   F159    1.358   .     S
C144   C147    1.397   .     A
C145   C146    1.398   .     A
C145   F160    1.360   .     S
C148   C213    1.442   1_455 S
C149   C212    1.442   .     S
C150   O190    1.372   .     S
C150   N173    1.378   .     A
C150   C154    1.410   .     A
C151   N174    1.378   .     A
C151   C155    1.410   .     A
C151   O176    1.371   .     S
C152   N173    1.378   .     A
C152   O177    1.372   .     S
C152   C156    1.410   .     A
C153   O178    1.371   .     S
C153   N174    1.378   .     A
C154   F161    1.358   .     S
C155   F162    1.358   .     S
C156   F163    1.358   .     S
H165   O190    0.987   .     S
H166   O176    0.986   .     S
H167   O177    0.987   .     S
H168   O178    0.986   .     S
H169   O179    0.990   .     S
H170   O244    0.988   1_455 S
H171   O181    0.990   .     S
H172   O246    0.988   .     S
N173   Zn192   2.022   .     S
N174   Zn191   2.022   .     S
O175   Zn191   1.997   .     S
O180   H234    0.988   .     S
O182   H236    0.988   1_455 S
O183   Zn192   1.997   .     S
O184   Zn191   1.997   .     S
O185   Zn192   1.997   .     S
O186   Zn191   1.950   .     S
O187   Zn192   1.950   .     S
O188   Zn191   1.950   .     S
O189   Zn192   1.950   .     S
C193   O249    1.290   .     A
C193   C210    1.435   .     S
C193   O239    1.293   .     A
C194   C198    1.408   .     A
C194   C217    1.410   .     A
C194   F228    1.358   .     S
C195   C199    1.367   .     S
C195   O253    1.281   .     A
C195   O250    1.282   .     A
C196   C200    1.367   .     S
C196   O252    1.282   .     A
C196   O251    1.281   .     A
C197   C220    1.408   .     A
C197   C218    1.408   .     A
C198   C219    1.408   .     A
C198   C69     1.519   1_565 S
C199   C712    1.166   1_554 S
C200   C455    1.166   .     S
C201   C206    1.395   .     A
C201   C212    1.403   .     A
C201   O243    1.384   .     S
C202   O244    1.384   .     S
C202   C213    1.414   .     A
C202   C207    1.383   .     A
C203   C208    1.395   .     A
C203   O245    1.384   .     S
C203   C213    1.403   .     A
C204   O248    1.293   .     A
C204   C211    1.435   .     S
C204   O247    1.290   .     A
C205   C209    1.383   .     A
C205   O246    1.384   .     S
C205   C212    1.414   .     A
C206   C210    1.397   .     A
C206   F221    1.358   .     S
C207   C211    1.398   .     A
C207   F222    1.360   .     S
C208   F223    1.358   .     S
C208   C211    1.397   .     A
C209   C210    1.398   .     A
C209   F224    1.360   .     S
C213   C148    1.442   1_655 S
C214   O254    1.372   .     S
C214   N237    1.378   .     A
C214   C218    1.410   .     A
C215   N238    1.378   .     A
C215   C219    1.410   .     A
C215   O240    1.371   .     S
C216   N237    1.378   .     A
C216   O241    1.372   .     S
C216   C220    1.410   .     A
C217   O242    1.371   .     S
C217   N238    1.378   .     A
C218   F225    1.358   .     S
C219   F226    1.358   .     S
C220   F227    1.358   .     S
H229   O254    0.987   .     S
H230   O240    0.986   .     S
H231   O241    0.987   .     S
H232   O242    0.986   .     S
H233   O243    0.990   .     S
H235   O245    0.990   .     S
H236   O182    0.988   1_655 S
N237   Zn256   2.022   .     S
N238   Zn255   2.022   .     S
O239   Zn255   1.997   .     S
O244   H170    0.988   1_655 S
O247   Zn256   1.997   .     S
O248   Zn255   1.997   .     S
O249   Zn256   1.997   .     S
O250   Zn255   1.950   .     S
O251   Zn256   1.950   .     S
O252   Zn255   1.950   .     S
O253   Zn256   1.950   .     S
C257   O313    1.290   .     A
C257   C274    1.435   .     S
C257   O303    1.293   .     A
C258   C262    1.408   .     A
C258   C281    1.410   .     A
C258   F292    1.358   .     S
C259   C263    1.367   .     S
C259   O317    1.281   .     A
C259   O314    1.282   .     A
C260   C264    1.367   .     S
C260   O316    1.282   .     A
C260   O315    1.281   .     A
C261   C284    1.408   .     A
C261   C282    1.408   .     A
C261   C390    1.519   1_545 S
C262   C283    1.408   .     A
C262   C389    1.519   .     S
C264   C519    1.166   .     S
C265   C270    1.395   .     A
C265   C276    1.403   .     A
C265   O307    1.384   .     S
C266   O308    1.384   .     S
C266   C277    1.414   .     A
C266   C271    1.383   .     A
C267   C272    1.395   .     A
C267   O309    1.384   .     S
C267   C277    1.403   .     A
C268   O312    1.293   .     A
C268   C275    1.435   .     S
C268   O311    1.290   .     A
C269   C273    1.383   .     A
C269   O310    1.384   .     S
C269   C276    1.414   .     A
C270   C274    1.397   .     A
C270   F285    1.358   .     S
C271   C275    1.398   .     A
C271   F286    1.360   .     S
C272   F287    1.358   .     S
C272   C275    1.397   .     A
C273   C274    1.398   .     A
C273   F288    1.360   .     S
C276   C341    1.442   1_455 S
C277   C340    1.442   .     S
C278   O318    1.372   .     S
C278   N301    1.378   .     A
C278   C282    1.410   .     A
C279   N302    1.378   .     A
C279   C283    1.410   .     A
C279   O304    1.371   .     S
C280   N301    1.378   .     A
C280   O305    1.372   .     S
C280   C284    1.410   .     A
C281   O306    1.371   .     S
C281   N302    1.378   .     A
C282   F289    1.358   .     S
C283   F290    1.358   .     S
C284   F291    1.358   .     S
H293   O318    0.987   .     S
H294   O304    0.986   .     S
H295   O305    0.987   .     S
H296   O306    0.986   .     S
H297   O307    0.990   .     S
H298   O372    0.988   1_455 S
H299   O309    0.990   .     S
H300   O374    0.988   .     S
N301   Zn320   2.022   .     S
N302   Zn319   2.022   .     S
O303   Zn319   1.997   .     S
O308   H362    0.988   .     S
O310   H364    0.988   1_455 S
O311   Zn320   1.997   .     S
O312   Zn319   1.997   .     S
O313   Zn320   1.997   .     S
O314   Zn319   1.950   .     S
O315   Zn320   1.950   .     S
O316   Zn319   1.950   .     S
O317   Zn320   1.950   .     S
C321   O377    1.290   .     A
C321   C338    1.435   .     S
C321   O367    1.293   .     A
C322   C326    1.408   .     A
C322   C345    1.410   .     A
C322   F356    1.358   .     S
C323   C327    1.367   .     S
C323   O381    1.281   .     A
C323   O378    1.282   .     A
C324   C328    1.367   .     S
C324   O380    1.282   .     A
C324   O379    1.281   .     A
C325   C348    1.408   .     A
C325   C346    1.408   .     A
C325   C454    1.519   1_545 S
C326   C347    1.408   .     A
C326   C453    1.519   .     S
C328   C583    1.166   .     S
C329   C334    1.395   .     A
C329   C340    1.403   .     A
C329   O371    1.384   .     S
C330   O372    1.384   .     S
C330   C341    1.414   .     A
C330   C335    1.383   .     A
C331   C336    1.395   .     A
C331   O373    1.384   .     S
C331   C341    1.403   .     A
C332   O376    1.293   .     A
C332   C339    1.435   .     S
C332   O375    1.290   .     A
C333   C337    1.383   .     A
C333   O374    1.384   .     S
C333   C340    1.414   .     A
C334   C338    1.397   .     A
C334   F349    1.358   .     S
C335   C339    1.398   .     A
C335   F350    1.360   .     S
C336   F351    1.358   .     S
C336   C339    1.397   .     A
C337   C338    1.398   .     A
C337   F352    1.360   .     S
C341   C276    1.442   1_655 S
C342   O382    1.372   .     S
C342   N365    1.378   .     A
C342   C346    1.410   .     A
C343   N366    1.378   .     A
C343   C347    1.410   .     A
C343   O368    1.371   .     S
C344   N365    1.378   .     A
C344   O369    1.372   .     S
C344   C348    1.410   .     A
C345   O370    1.371   .     S
C345   N366    1.378   .     A
C346   F353    1.358   .     S
C347   F354    1.358   .     S
C348   F355    1.358   .     S
H357   O382    0.987   .     S
H358   O368    0.986   .     S
H359   O369    0.987   .     S
H360   O370    0.986   .     S
H361   O371    0.990   .     S
H363   O373    0.990   .     S
H364   O310    0.988   1_655 S
N365   Zn384   2.022   .     S
N366   Zn383   2.022   .     S
O367   Zn383   1.997   .     S
O372   H298    0.988   1_655 S
O375   Zn384   1.997   .     S
O376   Zn383   1.997   .     S
O377   Zn384   1.997   .     S
O378   Zn383   1.950   .     S
O379   Zn384   1.950   .     S
O380   Zn383   1.950   .     S
O381   Zn384   1.950   .     S
C385   O441    1.290   .     A
C385   C402    1.435   .     S
C385   O431    1.293   .     A
C386   C390    1.408   .     A
C386   C409    1.410   .     A
C386   F420    1.358   .     S
C387   C391    1.367   .     S
C387   O445    1.281   .     A
C387   O442    1.282   .     A
C388   C392    1.367   .     S
C388   O444    1.282   .     A
C388   O443    1.281   .     A
C389   C412    1.408   .     A
C389   C410    1.408   .     A
C390   C411    1.408   .     A
C390   C261    1.519   1_565 S
C392   C647    1.166   .     S
C393   C398    1.395   .     A
C393   C404    1.403   .     A
C393   O435    1.384   .     S
C394   O436    1.384   .     S
C394   C405    1.414   .     A
C394   C399    1.383   .     A
C395   C400    1.395   .     A
C395   O437    1.384   .     S
C395   C405    1.403   .     A
C396   O440    1.293   .     A
C396   C403    1.435   .     S
C396   O439    1.290   .     A
C397   C401    1.383   .     A
C397   O438    1.384   .     S
C397   C404    1.414   .     A
C398   C402    1.397   .     A
C398   F413    1.358   .     S
C399   C403    1.398   .     A
C399   F414    1.360   .     S
C400   F415    1.358   .     S
C400   C403    1.397   .     A
C401   C402    1.398   .     A
C401   F416    1.360   .     S
C404   C469    1.442   1_455 S
C405   C468    1.442   .     S
C406   O446    1.372   .     S
C406   N429    1.378   .     A
C406   C410    1.410   .     A
C407   N430    1.378   .     A
C407   C411    1.410   .     A
C407   O432    1.371   .     S
C408   N429    1.378   .     A
C408   O433    1.372   .     S
C408   C412    1.410   .     A
C409   O434    1.371   .     S
C409   N430    1.378   .     A
C410   F417    1.358   .     S
C411   F418    1.358   .     S
C412   F419    1.358   .     S
H421   O446    0.987   .     S
H422   O432    0.986   .     S
H423   O433    0.987   .     S
H424   O434    0.986   .     S
H425   O435    0.990   .     S
H426   O500    0.988   1_455 S
H427   O437    0.990   .     S
H428   O502    0.988   .     S
N429   Zn448   2.022   .     S
N430   Zn447   2.022   .     S
O431   Zn447   1.997   .     S
O436   H490    0.988   .     S
O438   H492    0.988   1_455 S
O439   Zn448   1.997   .     S
O440   Zn447   1.997   .     S
O441   Zn448   1.997   .     S
O442   Zn447   1.950   .     S
O443   Zn448   1.950   .     S
O444   Zn447   1.950   .     S
O445   Zn448   1.950   .     S
C449   O505    1.290   .     A
C449   C466    1.435   .     S
C449   O495    1.293   .     A
C450   C454    1.408   .     A
C450   C473    1.410   .     A
C450   F484    1.358   .     S
C451   C455    1.367   .     S
C451   O509    1.281   .     A
C451   O506    1.282   .     A
C452   C456    1.367   .     S
C452   O508    1.282   .     A
C452   O507    1.281   .     A
C453   C476    1.408   .     A
C453   C474    1.408   .     A
C454   C475    1.408   .     A
C454   C325    1.519   1_565 S
C456   C711    1.166   .     S
C457   C462    1.395   .     A
C457   C468    1.403   .     A
C457   O499    1.384   .     S
C458   O500    1.384   .     S
C458   C469    1.414   .     A
C458   C463    1.383   .     A
C459   C464    1.395   .     A
C459   O501    1.384   .     S
C459   C469    1.403   .     A
C460   O504    1.293   .     A
C460   C467    1.435   .     S
C460   O503    1.290   .     A
C461   C465    1.383   .     A
C461   O502    1.384   .     S
C461   C468    1.414   .     A
C462   C466    1.397   .     A
C462   F477    1.358   .     S
C463   C467    1.398   .     A
C463   F478    1.360   .     S
C464   F479    1.358   .     S
C464   C467    1.397   .     A
C465   C466    1.398   .     A
C465   F480    1.360   .     S
C469   C404    1.442   1_655 S
C470   O510    1.372   .     S
C470   N493    1.378   .     A
C470   C474    1.410   .     A
C471   N494    1.378   .     A
C471   C475    1.410   .     A
C471   O496    1.371   .     S
C472   N493    1.378   .     A
C472   O497    1.372   .     S
C472   C476    1.410   .     A
C473   O498    1.371   .     S
C473   N494    1.378   .     A
C474   F481    1.358   .     S
C475   F482    1.358   .     S
C476   F483    1.358   .     S
H485   O510    0.987   .     S
H486   O496    0.986   .     S
H487   O497    0.987   .     S
H488   O498    0.986   .     S
H489   O499    0.990   .     S
H491   O501    0.990   .     S
H492   O438    0.988   1_655 S
N493   Zn512   2.022   .     S
N494   Zn511   2.022   .     S
O495   Zn511   1.997   .     S
O500   H426    0.988   1_655 S
O503   Zn512   1.997   .     S
O504   Zn511   1.997   .     S
O505   Zn512   1.997   .     S
O506   Zn511   1.950   .     S
O507   Zn512   1.950   .     S
O508   Zn511   1.950   .     S
O509   Zn512   1.950   .     S
C513   O569    1.290   .     A
C513   C530    1.435   .     S
C513   O559    1.293   .     A
C514   C518    1.408   .     A
C514   C537    1.410   .     A
C514   F548    1.358   .     S
C515   C519    1.367   .     S
C515   O573    1.281   .     A
C515   O570    1.282   .     A
C516   C520    1.367   .     S
C516   O572    1.282   .     A
C516   O571    1.281   .     A
C517   C540    1.408   .     A
C517   C538    1.408   .     A
C517   C646    1.519   1_545 S
C518   C539    1.408   .     A
C518   C645    1.519   .     S
C520   C7      1.166   1_556 S
C521   C526    1.395   .     A
C521   C532    1.403   .     A
C521   O563    1.384   .     S
C522   O564    1.384   .     S
C522   C533    1.414   .     A
C522   C527    1.383   .     A
C523   C528    1.395   .     A
C523   O565    1.384   .     S
C523   C533    1.403   .     A
C524   O568    1.293   .     A
C524   C531    1.435   .     S
C524   O567    1.290   .     A
C525   C529    1.383   .     A
C525   O566    1.384   .     S
C525   C532    1.414   .     A
C526   C530    1.397   .     A
C526   F541    1.358   .     S
C527   C531    1.398   .     A
C527   F542    1.360   .     S
C528   F543    1.358   .     S
C528   C531    1.397   .     A
C529   C530    1.398   .     A
C529   F544    1.360   .     S
C532   C597    1.442   1_455 S
C533   C596    1.442   .     S
C534   O574    1.372   .     S
C534   N557    1.378   .     A
C534   C538    1.410   .     A
C535   N558    1.378   .     A
C535   C539    1.410   .     A
C535   O560    1.371   .     S
C536   N557    1.378   .     A
C536   O561    1.372   .     S
C536   C540    1.410   .     A
C537   O562    1.371   .     S
C537   N558    1.378   .     A
C538   F545    1.358   .     S
C539   F546    1.358   .     S
C540   F547    1.358   .     S
H549   O574    0.987   .     S
H550   O560    0.986   .     S
H551   O561    0.987   .     S
H552   O562    0.986   .     S
H553   O563    0.990   .     S
H554   O628    0.988   1_455 S
H555   O565    0.990   .     S
H556   O630    0.988   .     S
N557   Zn576   2.022   .     S
N558   Zn575   2.022   .     S
O559   Zn575   1.997   .     S
O564   H618    0.988   .     S
O566   H620    0.988   1_455 S
O567   Zn576   1.997   .     S
O568   Zn575   1.997   .     S
O569   Zn576   1.997   .     S
O570   Zn575   1.950   .     S
O571   Zn576   1.950   .     S
O572   Zn575   1.950   .     S
O573   Zn576   1.950   .     S
C577   O633    1.290   .     A
C577   C594    1.435   .     S
C577   O623    1.293   .     A
C578   C582    1.408   .     A
C578   C601    1.410   .     A
C578   F612    1.358   .     S
C579   C583    1.367   .     S
C579   O637    1.281   .     A
C579   O634    1.282   .     A
C580   C584    1.367   .     S
C580   O636    1.282   .     A
C580   O635    1.281   .     A
C581   C604    1.408   .     A
C581   C602    1.408   .     A
C581   C710    1.519   1_545 S
C582   C603    1.408   .     A
C582   C709    1.519   .     S
C584   C71     1.166   1_556 S
C585   C590    1.395   .     A
C585   C596    1.403   .     A
C585   O627    1.384   .     S
C586   O628    1.384   .     S
C586   C597    1.414   .     A
C586   C591    1.383   .     A
C587   C592    1.395   .     A
C587   O629    1.384   .     S
C587   C597    1.403   .     A
C588   O632    1.293   .     A
C588   C595    1.435   .     S
C588   O631    1.290   .     A
C589   C593    1.383   .     A
C589   O630    1.384   .     S
C589   C596    1.414   .     A
C590   C594    1.397   .     A
C590   F605    1.358   .     S
C591   C595    1.398   .     A
C591   F606    1.360   .     S
C592   F607    1.358   .     S
C592   C595    1.397   .     A
C593   C594    1.398   .     A
C593   F608    1.360   .     S
C597   C532    1.442   1_655 S
C598   O638    1.372   .     S
C598   N621    1.378   .     A
C598   C602    1.410   .     A
C599   N622    1.378   .     A
C599   C603    1.410   .     A
C599   O624    1.371   .     S
C600   N621    1.378   .     A
C600   O625    1.372   .     S
C600   C604    1.410   .     A
C601   O626    1.371   .     S
C601   N622    1.378   .     A
C602   F609    1.358   .     S
C603   F610    1.358   .     S
C604   F611    1.358   .     S
H613   O638    0.987   .     S
H614   O624    0.986   .     S
H615   O625    0.987   .     S
H616   O626    0.986   .     S
H617   O627    0.990   .     S
H619   O629    0.990   .     S
H620   O566    0.988   1_655 S
N621   Zn640   2.022   .     S
N622   Zn639   2.022   .     S
O623   Zn639   1.997   .     S
O628   H554    0.988   1_655 S
O631   Zn640   1.997   .     S
O632   Zn639   1.997   .     S
O633   Zn640   1.997   .     S
O634   Zn639   1.950   .     S
O635   Zn640   1.950   .     S
O636   Zn639   1.950   .     S
O637   Zn640   1.950   .     S
C641   O697    1.290   .     A
C641   C658    1.435   .     S
C641   O687    1.293   .     A
C642   C646    1.408   .     A
C642   C665    1.410   .     A
C642   F676    1.358   .     S
C643   C647    1.367   .     S
C643   O701    1.281   .     A
C643   O698    1.282   .     A
C644   C648    1.367   .     S
C644   O700    1.282   .     A
C644   O699    1.281   .     A
C645   C668    1.408   .     A
C645   C666    1.408   .     A
C646   C667    1.408   .     A
C646   C517    1.519   1_565 S
C648   C135    1.166   1_556 S
C649   C654    1.395   .     A
C649   C660    1.403   .     A
C649   O691    1.384   .     S
C650   O692    1.384   .     S
C650   C661    1.414   .     A
C650   C655    1.383   .     A
C651   C656    1.395   .     A
C651   O693    1.384   .     S
C651   C661    1.403   .     A
C652   O696    1.293   .     A
C652   C659    1.435   .     S
C652   O695    1.290   .     A
C653   C657    1.383   .     A
C653   O694    1.384   .     S
C653   C660    1.414   .     A
C654   C658    1.397   .     A
C654   F669    1.358   .     S
C655   C659    1.398   .     A
C655   F670    1.360   .     S
C656   F671    1.358   .     S
C656   C659    1.397   .     A
C657   C658    1.398   .     A
C657   F672    1.360   .     S
C660   C725    1.442   1_455 S
C661   C724    1.442   .     S
C662   O702    1.372   .     S
C662   N685    1.378   .     A
C662   C666    1.410   .     A
C663   N686    1.378   .     A
C663   C667    1.410   .     A
C663   O688    1.371   .     S
C664   N685    1.378   .     A
C664   O689    1.372   .     S
C664   C668    1.410   .     A
C665   O690    1.371   .     S
C665   N686    1.378   .     A
C666   F673    1.358   .     S
C667   F674    1.358   .     S
C668   F675    1.358   .     S
H677   O702    0.987   .     S
H678   O688    0.986   .     S
H679   O689    0.987   .     S
H680   O690    0.986   .     S
H681   O691    0.990   .     S
H682   O756    0.988   1_455 S
H683   O693    0.990   .     S
H684   O758    0.988   .     S
N685   Zn704   2.022   .     S
N686   Zn703   2.022   .     S
O687   Zn703   1.997   .     S
O692   H746    0.988   .     S
O694   H748    0.988   1_455 S
O695   Zn704   1.997   .     S
O696   Zn703   1.997   .     S
O697   Zn704   1.997   .     S
O698   Zn703   1.950   .     S
O699   Zn704   1.950   .     S
O700   Zn703   1.950   .     S
O701   Zn704   1.950   .     S
C705   O761    1.290   .     A
C705   C722    1.435   .     S
C705   O751    1.293   .     A
C706   C710    1.408   .     A
C706   C729    1.410   .     A
C706   F740    1.358   .     S
C707   C711    1.367   .     S
C707   O765    1.281   .     A
C707   O762    1.282   .     A
C708   C712    1.367   .     S
C708   O764    1.282   .     A
C708   O763    1.281   .     A
C709   C732    1.408   .     A
C709   C730    1.408   .     A
C710   C731    1.408   .     A
C710   C581    1.519   1_565 S
C712   C199    1.166   1_556 S
C713   C718    1.395   .     A
C713   C724    1.403   .     A
C713   O755    1.384   .     S
C714   O756    1.384   .     S
C714   C725    1.414   .     A
C714   C719    1.383   .     A
C715   C720    1.395   .     A
C715   O757    1.384   .     S
C715   C725    1.403   .     A
C716   O760    1.293   .     A
C716   C723    1.435   .     S
C716   O759    1.290   .     A
C717   C721    1.383   .     A
C717   O758    1.384   .     S
C717   C724    1.414   .     A
C718   C722    1.397   .     A
C718   F733    1.358   .     S
C719   C723    1.398   .     A
C719   F734    1.360   .     S
C720   F735    1.358   .     S
C720   C723    1.397   .     A
C721   C722    1.398   .     A
C721   F736    1.360   .     S
C725   C660    1.442   1_655 S
C726   O766    1.372   .     S
C726   N749    1.378   .     A
C726   C730    1.410   .     A
C727   N750    1.378   .     A
C727   C731    1.410   .     A
C727   O752    1.371   .     S
C728   N749    1.378   .     A
C728   O753    1.372   .     S
C728   C732    1.410   .     A
C729   O754    1.371   .     S
C729   N750    1.378   .     A
C730   F737    1.358   .     S
C731   F738    1.358   .     S
C732   F739    1.358   .     S
H741   O766    0.987   .     S
H742   O752    0.986   .     S
H743   O753    0.987   .     S
H744   O754    0.986   .     S
H745   O755    0.990   .     S
H747   O757    0.990   .     S
H748   O694    0.988   1_655 S
N749   Zn768   2.022   .     S
N750   Zn767   2.022   .     S
O751   Zn767   1.997   .     S
O756   H682    0.988   1_655 S
O759   Zn768   1.997   .     S
O760   Zn767   1.997   .     S
O761   Zn768   1.997   .     S
O762   Zn767   1.950   .     S
O763   Zn768   1.950   .     S
O764   Zn767   1.950   .     S
O765   Zn768   1.950   .     S
