data_str_m2_o1_o10_pcu_sym.63
_audit_creation_date              2020-01-03
_audit_creation_method            'Materials Studio'
_symmetry_space_group_name_H-M    'P1'
_symmetry_Int_Tables_number       1
_symmetry_cell_setting            triclinic
loop_
_symmetry_equiv_pos_as_xyz
  x,y,z
_cell_length_a                    26.1785
_cell_length_b                    32.3539
_cell_length_c                    28.6287
_cell_angle_alpha                 90.2041
_cell_angle_beta                  98.1136
_cell_angle_gamma                 90.3234
loop_
_atom_site_label
_atom_site_type_symbol
_atom_site_fract_x
_atom_site_fract_y
_atom_site_fract_z
_atom_site_U_iso_or_equiv
_atom_site_adp_type
_atom_site_occupancy
C1     C     0.16664   0.08755   0.16658   0.00000  Uiso   1.00
C2     C     0.12438   0.02134   0.18083   0.00000  Uiso   1.00
C3     C     0.16674   0.29036   0.16686   0.00000  Uiso   1.00
C4     C     0.16660   0.04298   0.16647   0.00000  Uiso   1.00
C5     C     0.13336   0.14158   0.02048   0.00000  Uiso   1.00
C6     C     0.19997   0.19176   0.31286   0.00000  Uiso   1.00
C7     C     0.13419   0.14131   0.30408   0.00000  Uiso   1.00
C8     C     0.19915   0.19203   0.02925   0.00000  Uiso   1.00
C9     C     0.04952   0.12280   0.02361   0.00000  Uiso   1.00
C10    C     0.28382   0.21052   0.30972   0.00000  Uiso   1.00
C11    C     0.16670   0.24578   0.16675   0.00000  Uiso   1.00
C12    C     0.06792   0.16664   0.15455   0.00000  Uiso   1.00
C13    C     0.26542   0.16670   0.17879   0.00000  Uiso   1.00
C14    C     0.01258   0.16667   0.14791   0.00000  Uiso   1.00
C15    C     0.32076   0.16666   0.18542   0.00000  Uiso   1.00
C16    C     0.20889   0.02160   0.15230   0.00000  Uiso   1.00
C17    C     0.12445   0.31174   0.18103   0.00000  Uiso   1.00
C18    C     0.20895   0.31199   0.15250   0.00000  Uiso   1.00
Cu19   Cu    0.16667   0.16667   0.21355   0.00000  Uiso   1.00
Cu20   Cu    0.16667   0.16666   0.11978   0.00000  Uiso   1.00
H21    H     0.32580   0.16673   0.11198   0.00000  Uiso   1.00
H22    H     0.04072   0.15641   0.02475   0.00000  Uiso   1.00
H23    H     0.02501   0.10690   0.04667   0.00000  Uiso   1.00
H24    H     0.29261   0.17691   0.30858   0.00000  Uiso   1.00
H25    H     0.29463   0.22302   0.01264   0.00000  Uiso   1.00
H26    H     0.30833   0.22643   0.28666   0.00000  Uiso   1.00
H27    H     0.00753   0.16660   0.22135   0.00000  Uiso   1.00
H28    H     0.10917   0.12051   0.28159   0.00000  Uiso   1.00
H29    H     0.22417   0.21282   0.05174   0.00000  Uiso   1.00
H30    H     0.25290   0.07058   0.14896   0.00000  Uiso   1.00
H31    H     0.08043   0.26276   0.18437   0.00000  Uiso   1.00
H32    H     0.25318   0.26345   0.14972   0.00000  Uiso   1.00
H33    H     0.08015   0.06988   0.18361   0.00000  Uiso   1.00
H34    H     0.03871   0.11031   0.32069   0.00000  Uiso   1.00
N35    N     0.16668   0.16668   0.28403   0.00000  Uiso   1.00
N36    N     0.16665   0.16666   0.04931   0.00000  Uiso   1.00
O37    O     0.16666   0.10655   0.20625   0.00000  Uiso   1.00
O38    O     0.08150   0.29212   0.19409   0.00000  Uiso   1.00
O39    O     0.25193   0.29263   0.13956   0.00000  Uiso   1.00
O40    O     0.08140   0.04070   0.19378   0.00000  Uiso   1.00
O41    O     0.10170   0.11461   0.04073   0.00000  Uiso   1.00
O42    O     0.23163   0.21872   0.29261   0.00000  Uiso   1.00
O43    O     0.16667   0.22678   0.12709   0.00000  Uiso   1.00
O44    O     0.16666   0.10654   0.12706   0.00000  Uiso   1.00
O45    O     0.16667   0.22679   0.20628   0.00000  Uiso   1.00
O46    O     0.09161   0.16667   0.19712   0.00000  Uiso   1.00
O47    O     0.24172   0.16666   0.13621   0.00000  Uiso   1.00
O48    O     0.09161   0.16666   0.11793   0.00000  Uiso   1.00
O49    O     0.24172   0.16667   0.21540   0.00000  Uiso   1.00
O50    O     0.25184   0.04121   0.13924   0.00000  Uiso   1.00
C51    C     0.49997   0.08755   0.16658   0.00000  Uiso   1.00
C52    C     0.45771   0.02134   0.18083   0.00000  Uiso   1.00
C53    C     0.50007   0.29036   0.16686   0.00000  Uiso   1.00
C54    C     0.49993   0.04298   0.16647   0.00000  Uiso   1.00
C55    C     0.46669   0.14158   0.02048   0.00000  Uiso   1.00
C56    C     0.53331   0.19176   0.31286   0.00000  Uiso   1.00
C57    C     0.46752   0.14131   0.30408   0.00000  Uiso   1.00
C58    C     0.53248   0.19203   0.02925   0.00000  Uiso   1.00
C59    C     0.38285   0.12280   0.02361   0.00000  Uiso   1.00
C60    C     0.61715   0.21052   0.30972   0.00000  Uiso   1.00
C61    C     0.50003   0.24578   0.16675   0.00000  Uiso   1.00
C62    C     0.40125   0.16664   0.15455   0.00000  Uiso   1.00
C63    C     0.59875   0.16670   0.17879   0.00000  Uiso   1.00
C64    C     0.34591   0.16667   0.14791   0.00000  Uiso   1.00
C65    C     0.65409   0.16666   0.18542   0.00000  Uiso   1.00
C66    C     0.54222   0.02160   0.15230   0.00000  Uiso   1.00
C67    C     0.45778   0.31174   0.18103   0.00000  Uiso   1.00
C68    C     0.54229   0.31199   0.15250   0.00000  Uiso   1.00
Cu69   Cu    0.50000   0.16667   0.21355   0.00000  Uiso   1.00
Cu70   Cu    0.50000   0.16666   0.11978   0.00000  Uiso   1.00
H71    H     0.65913   0.16673   0.11198   0.00000  Uiso   1.00
H72    H     0.37405   0.15641   0.02475   0.00000  Uiso   1.00
H73    H     0.35834   0.10690   0.04667   0.00000  Uiso   1.00
H74    H     0.62594   0.17691   0.30858   0.00000  Uiso   1.00
H75    H     0.62796   0.22302   0.01264   0.00000  Uiso   1.00
H76    H     0.64166   0.22643   0.28666   0.00000  Uiso   1.00
H77    H     0.34087   0.16660   0.22135   0.00000  Uiso   1.00
H78    H     0.44250   0.12051   0.28159   0.00000  Uiso   1.00
H79    H     0.55750   0.21282   0.05174   0.00000  Uiso   1.00
H80    H     0.58624   0.07058   0.14896   0.00000  Uiso   1.00
H81    H     0.41376   0.26276   0.18437   0.00000  Uiso   1.00
H82    H     0.58652   0.26345   0.14972   0.00000  Uiso   1.00
H83    H     0.41348   0.06988   0.18361   0.00000  Uiso   1.00
H84    H     0.37204   0.11031   0.32069   0.00000  Uiso   1.00
N85    N     0.50001   0.16668   0.28403   0.00000  Uiso   1.00
N86    N     0.49999   0.16666   0.04931   0.00000  Uiso   1.00
O87    O     0.50000   0.10655   0.20625   0.00000  Uiso   1.00
O88    O     0.41483   0.29212   0.19409   0.00000  Uiso   1.00
O89    O     0.58527   0.29263   0.13956   0.00000  Uiso   1.00
O90    O     0.41473   0.04070   0.19378   0.00000  Uiso   1.00
O91    O     0.43503   0.11461   0.04073   0.00000  Uiso   1.00
O92    O     0.56497   0.21872   0.29261   0.00000  Uiso   1.00
O93    O     0.50000   0.22678   0.12709   0.00000  Uiso   1.00
O94    O     0.50000   0.10654   0.12706   0.00000  Uiso   1.00
O95    O     0.50000   0.22679   0.20628   0.00000  Uiso   1.00
O96    O     0.42495   0.16667   0.19712   0.00000  Uiso   1.00
O97    O     0.57505   0.16666   0.13621   0.00000  Uiso   1.00
O98    O     0.42494   0.16666   0.11793   0.00000  Uiso   1.00
O99    O     0.57506   0.16667   0.21540   0.00000  Uiso   1.00
O100   O     0.58517   0.04121   0.13924   0.00000  Uiso   1.00
C101   C     0.83331   0.08755   0.16658   0.00000  Uiso   1.00
C102   C     0.79105   0.02134   0.18083   0.00000  Uiso   1.00
C103   C     0.83341   0.29036   0.16686   0.00000  Uiso   1.00
C104   C     0.83326   0.04298   0.16647   0.00000  Uiso   1.00
C105   C     0.80003   0.14158   0.02048   0.00000  Uiso   1.00
C106   C     0.86664   0.19176   0.31286   0.00000  Uiso   1.00
C107   C     0.80085   0.14131   0.30408   0.00000  Uiso   1.00
C108   C     0.86581   0.19203   0.02925   0.00000  Uiso   1.00
C109   C     0.71619   0.12280   0.02361   0.00000  Uiso   1.00
C110   C     0.95048   0.21052   0.30972   0.00000  Uiso   1.00
C111   C     0.83336   0.24578   0.16675   0.00000  Uiso   1.00
C112   C     0.73458   0.16664   0.15455   0.00000  Uiso   1.00
C113   C     0.93209   0.16670   0.17879   0.00000  Uiso   1.00
C114   C     0.67924   0.16667   0.14791   0.00000  Uiso   1.00
C115   C     0.98742   0.16666   0.18542   0.00000  Uiso   1.00
C116   C     0.87555   0.02160   0.15230   0.00000  Uiso   1.00
C117   C     0.79112   0.31174   0.18103   0.00000  Uiso   1.00
C118   C     0.87562   0.31199   0.15250   0.00000  Uiso   1.00
Cu119  Cu    0.83333   0.16667   0.21355   0.00000  Uiso   1.00
Cu120  Cu    0.83333   0.16666   0.11978   0.00000  Uiso   1.00
H121   H     0.99247   0.16673   0.11198   0.00000  Uiso   1.00
H122   H     0.70739   0.15641   0.02475   0.00000  Uiso   1.00
H123   H     0.69167   0.10690   0.04667   0.00000  Uiso   1.00
H124   H     0.95928   0.17691   0.30858   0.00000  Uiso   1.00
H125   H     0.96130   0.22302   0.01264   0.00000  Uiso   1.00
H126   H     0.97500   0.22643   0.28666   0.00000  Uiso   1.00
H127   H     0.67420   0.16660   0.22135   0.00000  Uiso   1.00
H128   H     0.77583   0.12051   0.28159   0.00000  Uiso   1.00
H129   H     0.89083   0.21282   0.05174   0.00000  Uiso   1.00
H130   H     0.91957   0.07058   0.14896   0.00000  Uiso   1.00
H131   H     0.74710   0.26276   0.18437   0.00000  Uiso   1.00
H132   H     0.91985   0.26345   0.14972   0.00000  Uiso   1.00
H133   H     0.74682   0.06988   0.18361   0.00000  Uiso   1.00
H134   H     0.70538   0.11031   0.32069   0.00000  Uiso   1.00
N135   N     0.83335   0.16668   0.28403   0.00000  Uiso   1.00
N136   N     0.83332   0.16666   0.04931   0.00000  Uiso   1.00
O137   O     0.83333   0.10655   0.20625   0.00000  Uiso   1.00
O138   O     0.74816   0.29212   0.19409   0.00000  Uiso   1.00
O139   O     0.91860   0.29263   0.13956   0.00000  Uiso   1.00
O140   O     0.74807   0.04070   0.19378   0.00000  Uiso   1.00
O141   O     0.76837   0.11461   0.04073   0.00000  Uiso   1.00
O142   O     0.89830   0.21872   0.29261   0.00000  Uiso   1.00
O143   O     0.83334   0.22678   0.12709   0.00000  Uiso   1.00
O144   O     0.83333   0.10654   0.12706   0.00000  Uiso   1.00
O145   O     0.83334   0.22679   0.20628   0.00000  Uiso   1.00
O146   O     0.75828   0.16667   0.19712   0.00000  Uiso   1.00
O147   O     0.90839   0.16666   0.13621   0.00000  Uiso   1.00
O148   O     0.75828   0.16666   0.11793   0.00000  Uiso   1.00
O149   O     0.90839   0.16667   0.21540   0.00000  Uiso   1.00
O150   O     0.91851   0.04121   0.13924   0.00000  Uiso   1.00
C151   C     0.16664   0.42089   0.16658   0.00000  Uiso   1.00
C152   C     0.12438   0.35467   0.18083   0.00000  Uiso   1.00
C153   C     0.16674   0.62369   0.16686   0.00000  Uiso   1.00
C154   C     0.16660   0.37631   0.16647   0.00000  Uiso   1.00
C155   C     0.13336   0.47491   0.02048   0.00000  Uiso   1.00
C156   C     0.19997   0.52509   0.31286   0.00000  Uiso   1.00
C157   C     0.13419   0.47464   0.30408   0.00000  Uiso   1.00
C158   C     0.19915   0.52536   0.02925   0.00000  Uiso   1.00
C159   C     0.04952   0.45614   0.02361   0.00000  Uiso   1.00
C160   C     0.28382   0.54386   0.30972   0.00000  Uiso   1.00
C161   C     0.16670   0.57911   0.16675   0.00000  Uiso   1.00
C162   C     0.06792   0.49997   0.15455   0.00000  Uiso   1.00
C163   C     0.26542   0.50003   0.17879   0.00000  Uiso   1.00
C164   C     0.01258   0.50000   0.14791   0.00000  Uiso   1.00
C165   C     0.32076   0.50000   0.18542   0.00000  Uiso   1.00
C166   C     0.20889   0.35493   0.15230   0.00000  Uiso   1.00
C167   C     0.12445   0.64507   0.18103   0.00000  Uiso   1.00
C168   C     0.20895   0.64533   0.15250   0.00000  Uiso   1.00
Cu169  Cu    0.16667   0.50001   0.21355   0.00000  Uiso   1.00
Cu170  Cu    0.16667   0.49999   0.11978   0.00000  Uiso   1.00
H171   H     0.32580   0.50006   0.11198   0.00000  Uiso   1.00
H172   H     0.04072   0.48975   0.02475   0.00000  Uiso   1.00
H173   H     0.02501   0.44023   0.04667   0.00000  Uiso   1.00
H174   H     0.29261   0.51024   0.30858   0.00000  Uiso   1.00
H175   H     0.29463   0.55635   0.01264   0.00000  Uiso   1.00
H176   H     0.30833   0.55976   0.28666   0.00000  Uiso   1.00
H177   H     0.00753   0.49994   0.22135   0.00000  Uiso   1.00
H178   H     0.10917   0.45384   0.28159   0.00000  Uiso   1.00
H179   H     0.22417   0.54616   0.05174   0.00000  Uiso   1.00
H180   H     0.25290   0.40391   0.14896   0.00000  Uiso   1.00
H181   H     0.08043   0.59609   0.18437   0.00000  Uiso   1.00
H182   H     0.25318   0.59679   0.14972   0.00000  Uiso   1.00
H183   H     0.08015   0.40321   0.18361   0.00000  Uiso   1.00
H184   H     0.03871   0.44364   0.32069   0.00000  Uiso   1.00
N185   N     0.16668   0.50001   0.28403   0.00000  Uiso   1.00
N186   N     0.16665   0.49999   0.04931   0.00000  Uiso   1.00
O187   O     0.16666   0.43989   0.20625   0.00000  Uiso   1.00
O188   O     0.08150   0.62546   0.19409   0.00000  Uiso   1.00
O189   O     0.25193   0.62597   0.13956   0.00000  Uiso   1.00
O190   O     0.08140   0.37403   0.19378   0.00000  Uiso   1.00
O191   O     0.10170   0.44795   0.04073   0.00000  Uiso   1.00
O192   O     0.23163   0.55205   0.29261   0.00000  Uiso   1.00
O193   O     0.16667   0.56011   0.12709   0.00000  Uiso   1.00
O194   O     0.16666   0.43988   0.12706   0.00000  Uiso   1.00
O195   O     0.16667   0.56012   0.20628   0.00000  Uiso   1.00
O196   O     0.09161   0.50000   0.19712   0.00000  Uiso   1.00
O197   O     0.24172   0.50000   0.13621   0.00000  Uiso   1.00
O198   O     0.09161   0.49999   0.11793   0.00000  Uiso   1.00
O199   O     0.24172   0.50001   0.21540   0.00000  Uiso   1.00
O200   O     0.25184   0.37454   0.13924   0.00000  Uiso   1.00
C201   C     0.49997   0.42089   0.16658   0.00000  Uiso   1.00
C202   C     0.45771   0.35467   0.18083   0.00000  Uiso   1.00
C203   C     0.50007   0.62369   0.16686   0.00000  Uiso   1.00
C204   C     0.49993   0.37631   0.16647   0.00000  Uiso   1.00
C205   C     0.46669   0.47491   0.02048   0.00000  Uiso   1.00
C206   C     0.53331   0.52509   0.31286   0.00000  Uiso   1.00
C207   C     0.46752   0.47464   0.30408   0.00000  Uiso   1.00
C208   C     0.53248   0.52536   0.02925   0.00000  Uiso   1.00
C209   C     0.38285   0.45614   0.02361   0.00000  Uiso   1.00
C210   C     0.61715   0.54386   0.30972   0.00000  Uiso   1.00
C211   C     0.50003   0.57911   0.16675   0.00000  Uiso   1.00
C212   C     0.40125   0.49997   0.15455   0.00000  Uiso   1.00
C213   C     0.59875   0.50003   0.17879   0.00000  Uiso   1.00
C214   C     0.34591   0.50000   0.14791   0.00000  Uiso   1.00
C215   C     0.65409   0.50000   0.18542   0.00000  Uiso   1.00
C216   C     0.54222   0.35493   0.15230   0.00000  Uiso   1.00
C217   C     0.45778   0.64507   0.18103   0.00000  Uiso   1.00
C218   C     0.54229   0.64533   0.15250   0.00000  Uiso   1.00
Cu219  Cu    0.50000   0.50001   0.21355   0.00000  Uiso   1.00
Cu220  Cu    0.50000   0.49999   0.11978   0.00000  Uiso   1.00
H221   H     0.65913   0.50006   0.11198   0.00000  Uiso   1.00
H222   H     0.37405   0.48975   0.02475   0.00000  Uiso   1.00
H223   H     0.35834   0.44023   0.04667   0.00000  Uiso   1.00
H224   H     0.62594   0.51024   0.30858   0.00000  Uiso   1.00
H225   H     0.62796   0.55635   0.01264   0.00000  Uiso   1.00
H226   H     0.64166   0.55976   0.28666   0.00000  Uiso   1.00
H227   H     0.34087   0.49994   0.22135   0.00000  Uiso   1.00
H228   H     0.44250   0.45384   0.28159   0.00000  Uiso   1.00
H229   H     0.55750   0.54616   0.05174   0.00000  Uiso   1.00
H230   H     0.58624   0.40391   0.14896   0.00000  Uiso   1.00
H231   H     0.41376   0.59609   0.18437   0.00000  Uiso   1.00
H232   H     0.58652   0.59679   0.14972   0.00000  Uiso   1.00
H233   H     0.41348   0.40321   0.18361   0.00000  Uiso   1.00
H234   H     0.37204   0.44364   0.32069   0.00000  Uiso   1.00
N235   N     0.50001   0.50001   0.28403   0.00000  Uiso   1.00
N236   N     0.49999   0.49999   0.04931   0.00000  Uiso   1.00
O237   O     0.50000   0.43989   0.20625   0.00000  Uiso   1.00
O238   O     0.41483   0.62546   0.19409   0.00000  Uiso   1.00
O239   O     0.58527   0.62597   0.13956   0.00000  Uiso   1.00
O240   O     0.41473   0.37403   0.19378   0.00000  Uiso   1.00
O241   O     0.43503   0.44795   0.04073   0.00000  Uiso   1.00
O242   O     0.56497   0.55205   0.29261   0.00000  Uiso   1.00
O243   O     0.50000   0.56011   0.12709   0.00000  Uiso   1.00
O244   O     0.50000   0.43988   0.12706   0.00000  Uiso   1.00
O245   O     0.50000   0.56012   0.20628   0.00000  Uiso   1.00
O246   O     0.42495   0.50000   0.19712   0.00000  Uiso   1.00
O247   O     0.57505   0.50000   0.13621   0.00000  Uiso   1.00
O248   O     0.42494   0.49999   0.11793   0.00000  Uiso   1.00
O249   O     0.57506   0.50001   0.21540   0.00000  Uiso   1.00
O250   O     0.58517   0.37454   0.13924   0.00000  Uiso   1.00
C251   C     0.83331   0.42089   0.16658   0.00000  Uiso   1.00
C252   C     0.79105   0.35467   0.18083   0.00000  Uiso   1.00
C253   C     0.83341   0.62369   0.16686   0.00000  Uiso   1.00
C254   C     0.83326   0.37631   0.16647   0.00000  Uiso   1.00
C255   C     0.80003   0.47491   0.02048   0.00000  Uiso   1.00
C256   C     0.86664   0.52509   0.31286   0.00000  Uiso   1.00
C257   C     0.80085   0.47464   0.30408   0.00000  Uiso   1.00
C258   C     0.86581   0.52536   0.02925   0.00000  Uiso   1.00
C259   C     0.71619   0.45614   0.02361   0.00000  Uiso   1.00
C260   C     0.95048   0.54386   0.30972   0.00000  Uiso   1.00
C261   C     0.83336   0.57911   0.16675   0.00000  Uiso   1.00
C262   C     0.73458   0.49997   0.15455   0.00000  Uiso   1.00
C263   C     0.93209   0.50003   0.17879   0.00000  Uiso   1.00
C264   C     0.67924   0.50000   0.14791   0.00000  Uiso   1.00
C265   C     0.98742   0.50000   0.18542   0.00000  Uiso   1.00
C266   C     0.87555   0.35493   0.15230   0.00000  Uiso   1.00
C267   C     0.79112   0.64507   0.18103   0.00000  Uiso   1.00
C268   C     0.87562   0.64533   0.15250   0.00000  Uiso   1.00
Cu269  Cu    0.83333   0.50001   0.21355   0.00000  Uiso   1.00
Cu270  Cu    0.83333   0.49999   0.11978   0.00000  Uiso   1.00
H271   H     0.99247   0.50006   0.11198   0.00000  Uiso   1.00
H272   H     0.70739   0.48975   0.02475   0.00000  Uiso   1.00
H273   H     0.69167   0.44023   0.04667   0.00000  Uiso   1.00
H274   H     0.95928   0.51024   0.30858   0.00000  Uiso   1.00
H275   H     0.96130   0.55635   0.01264   0.00000  Uiso   1.00
H276   H     0.97500   0.55976   0.28666   0.00000  Uiso   1.00
H277   H     0.67420   0.49994   0.22135   0.00000  Uiso   1.00
H278   H     0.77583   0.45384   0.28159   0.00000  Uiso   1.00
H279   H     0.89083   0.54616   0.05174   0.00000  Uiso   1.00
H280   H     0.91957   0.40391   0.14896   0.00000  Uiso   1.00
H281   H     0.74710   0.59609   0.18437   0.00000  Uiso   1.00
H282   H     0.91985   0.59679   0.14972   0.00000  Uiso   1.00
H283   H     0.74682   0.40321   0.18361   0.00000  Uiso   1.00
H284   H     0.70538   0.44364   0.32069   0.00000  Uiso   1.00
N285   N     0.83335   0.50001   0.28403   0.00000  Uiso   1.00
N286   N     0.83332   0.49999   0.04931   0.00000  Uiso   1.00
O287   O     0.83333   0.43989   0.20625   0.00000  Uiso   1.00
O288   O     0.74816   0.62546   0.19409   0.00000  Uiso   1.00
O289   O     0.91860   0.62597   0.13956   0.00000  Uiso   1.00
O290   O     0.74807   0.37403   0.19378   0.00000  Uiso   1.00
O291   O     0.76837   0.44795   0.04073   0.00000  Uiso   1.00
O292   O     0.89830   0.55205   0.29261   0.00000  Uiso   1.00
O293   O     0.83334   0.56011   0.12709   0.00000  Uiso   1.00
O294   O     0.83333   0.43988   0.12706   0.00000  Uiso   1.00
O295   O     0.83334   0.56012   0.20628   0.00000  Uiso   1.00
O296   O     0.75828   0.50000   0.19712   0.00000  Uiso   1.00
O297   O     0.90839   0.50000   0.13621   0.00000  Uiso   1.00
O298   O     0.75828   0.49999   0.11793   0.00000  Uiso   1.00
O299   O     0.90839   0.50001   0.21540   0.00000  Uiso   1.00
O300   O     0.91851   0.37454   0.13924   0.00000  Uiso   1.00
C301   C     0.16664   0.75422   0.16658   0.00000  Uiso   1.00
C302   C     0.12438   0.68801   0.18083   0.00000  Uiso   1.00
C303   C     0.16674   0.95702   0.16686   0.00000  Uiso   1.00
C304   C     0.16660   0.70964   0.16647   0.00000  Uiso   1.00
C305   C     0.13336   0.80824   0.02048   0.00000  Uiso   1.00
C306   C     0.19997   0.85842   0.31286   0.00000  Uiso   1.00
C307   C     0.13419   0.80797   0.30408   0.00000  Uiso   1.00
C308   C     0.19915   0.85869   0.02925   0.00000  Uiso   1.00
C309   C     0.04952   0.78947   0.02361   0.00000  Uiso   1.00
C310   C     0.28382   0.87719   0.30972   0.00000  Uiso   1.00
C311   C     0.16670   0.91245   0.16675   0.00000  Uiso   1.00
C312   C     0.06792   0.83330   0.15455   0.00000  Uiso   1.00
C313   C     0.26542   0.83336   0.17879   0.00000  Uiso   1.00
C314   C     0.01258   0.83334   0.14791   0.00000  Uiso   1.00
C315   C     0.32076   0.83333   0.18542   0.00000  Uiso   1.00
C316   C     0.20889   0.68826   0.15230   0.00000  Uiso   1.00
C317   C     0.12445   0.97840   0.18103   0.00000  Uiso   1.00
C318   C     0.20895   0.97866   0.15250   0.00000  Uiso   1.00
Cu319  Cu    0.16667   0.83334   0.21355   0.00000  Uiso   1.00
Cu320  Cu    0.16667   0.83333   0.11978   0.00000  Uiso   1.00
H321   H     0.32580   0.83340   0.11198   0.00000  Uiso   1.00
H322   H     0.04072   0.82308   0.02475   0.00000  Uiso   1.00
H323   H     0.02501   0.77357   0.04667   0.00000  Uiso   1.00
H324   H     0.29261   0.84358   0.30858   0.00000  Uiso   1.00
H325   H     0.29463   0.88968   0.01264   0.00000  Uiso   1.00
H326   H     0.30833   0.89309   0.28666   0.00000  Uiso   1.00
H327   H     0.00753   0.83327   0.22135   0.00000  Uiso   1.00
H328   H     0.10917   0.78718   0.28159   0.00000  Uiso   1.00
H329   H     0.22417   0.87949   0.05174   0.00000  Uiso   1.00
H330   H     0.25290   0.73724   0.14896   0.00000  Uiso   1.00
H331   H     0.08043   0.92943   0.18437   0.00000  Uiso   1.00
H332   H     0.25318   0.93012   0.14972   0.00000  Uiso   1.00
H333   H     0.08015   0.73654   0.18361   0.00000  Uiso   1.00
H334   H     0.03871   0.77697   0.32069   0.00000  Uiso   1.00
N335   N     0.16668   0.83334   0.28403   0.00000  Uiso   1.00
N336   N     0.16665   0.83332   0.04931   0.00000  Uiso   1.00
O337   O     0.16666   0.77322   0.20625   0.00000  Uiso   1.00
O338   O     0.08150   0.95879   0.19409   0.00000  Uiso   1.00
O339   O     0.25193   0.95930   0.13956   0.00000  Uiso   1.00
O340   O     0.08140   0.70737   0.19378   0.00000  Uiso   1.00
O341   O     0.10170   0.78128   0.04073   0.00000  Uiso   1.00
O342   O     0.23163   0.88538   0.29261   0.00000  Uiso   1.00
O343   O     0.16667   0.89345   0.12709   0.00000  Uiso   1.00
O344   O     0.16666   0.77321   0.12706   0.00000  Uiso   1.00
O345   O     0.16667   0.89346   0.20628   0.00000  Uiso   1.00
O346   O     0.09161   0.83334   0.19712   0.00000  Uiso   1.00
O347   O     0.24172   0.83333   0.13621   0.00000  Uiso   1.00
O348   O     0.09161   0.83333   0.11793   0.00000  Uiso   1.00
O349   O     0.24172   0.83334   0.21540   0.00000  Uiso   1.00
O350   O     0.25184   0.70788   0.13924   0.00000  Uiso   1.00
C351   C     0.49997   0.75422   0.16658   0.00000  Uiso   1.00
C352   C     0.45771   0.68801   0.18083   0.00000  Uiso   1.00
C353   C     0.50007   0.95702   0.16686   0.00000  Uiso   1.00
C354   C     0.49993   0.70964   0.16647   0.00000  Uiso   1.00
C355   C     0.46669   0.80824   0.02048   0.00000  Uiso   1.00
C356   C     0.53331   0.85842   0.31286   0.00000  Uiso   1.00
C357   C     0.46752   0.80797   0.30408   0.00000  Uiso   1.00
C358   C     0.53248   0.85869   0.02925   0.00000  Uiso   1.00
C359   C     0.38285   0.78947   0.02361   0.00000  Uiso   1.00
C360   C     0.61715   0.87719   0.30972   0.00000  Uiso   1.00
C361   C     0.50003   0.91245   0.16675   0.00000  Uiso   1.00
C362   C     0.40125   0.83330   0.15455   0.00000  Uiso   1.00
C363   C     0.59875   0.83336   0.17879   0.00000  Uiso   1.00
C364   C     0.34591   0.83334   0.14791   0.00000  Uiso   1.00
C365   C     0.65409   0.83333   0.18542   0.00000  Uiso   1.00
C366   C     0.54222   0.68826   0.15230   0.00000  Uiso   1.00
C367   C     0.45778   0.97840   0.18103   0.00000  Uiso   1.00
C368   C     0.54229   0.97866   0.15250   0.00000  Uiso   1.00
Cu369  Cu    0.50000   0.83334   0.21355   0.00000  Uiso   1.00
Cu370  Cu    0.50000   0.83333   0.11978   0.00000  Uiso   1.00
H371   H     0.65913   0.83340   0.11198   0.00000  Uiso   1.00
H372   H     0.37405   0.82308   0.02475   0.00000  Uiso   1.00
H373   H     0.35834   0.77357   0.04667   0.00000  Uiso   1.00
H374   H     0.62594   0.84358   0.30858   0.00000  Uiso   1.00
H375   H     0.62796   0.88968   0.01264   0.00000  Uiso   1.00
H376   H     0.64166   0.89309   0.28666   0.00000  Uiso   1.00
H377   H     0.34087   0.83327   0.22135   0.00000  Uiso   1.00
H378   H     0.44250   0.78718   0.28159   0.00000  Uiso   1.00
H379   H     0.55750   0.87949   0.05174   0.00000  Uiso   1.00
H380   H     0.58624   0.73724   0.14896   0.00000  Uiso   1.00
H381   H     0.41376   0.92943   0.18437   0.00000  Uiso   1.00
H382   H     0.58652   0.93012   0.14972   0.00000  Uiso   1.00
H383   H     0.41348   0.73654   0.18361   0.00000  Uiso   1.00
H384   H     0.37204   0.77697   0.32069   0.00000  Uiso   1.00
N385   N     0.50001   0.83334   0.28403   0.00000  Uiso   1.00
N386   N     0.49999   0.83332   0.04931   0.00000  Uiso   1.00
O387   O     0.50000   0.77322   0.20625   0.00000  Uiso   1.00
O388   O     0.41483   0.95879   0.19409   0.00000  Uiso   1.00
O389   O     0.58527   0.95930   0.13956   0.00000  Uiso   1.00
O390   O     0.41473   0.70737   0.19378   0.00000  Uiso   1.00
O391   O     0.43503   0.78128   0.04073   0.00000  Uiso   1.00
O392   O     0.56497   0.88538   0.29261   0.00000  Uiso   1.00
O393   O     0.50000   0.89345   0.12709   0.00000  Uiso   1.00
O394   O     0.50000   0.77321   0.12706   0.00000  Uiso   1.00
O395   O     0.50000   0.89346   0.20628   0.00000  Uiso   1.00
O396   O     0.42495   0.83334   0.19712   0.00000  Uiso   1.00
O397   O     0.57505   0.83333   0.13621   0.00000  Uiso   1.00
O398   O     0.42494   0.83333   0.11793   0.00000  Uiso   1.00
O399   O     0.57506   0.83334   0.21540   0.00000  Uiso   1.00
O400   O     0.58517   0.70788   0.13924   0.00000  Uiso   1.00
C401   C     0.83331   0.75422   0.16658   0.00000  Uiso   1.00
C402   C     0.79105   0.68801   0.18083   0.00000  Uiso   1.00
C403   C     0.83341   0.95702   0.16686   0.00000  Uiso   1.00
C404   C     0.83326   0.70964   0.16647   0.00000  Uiso   1.00
C405   C     0.80003   0.80824   0.02048   0.00000  Uiso   1.00
C406   C     0.86664   0.85842   0.31286   0.00000  Uiso   1.00
C407   C     0.80085   0.80797   0.30408   0.00000  Uiso   1.00
C408   C     0.86581   0.85869   0.02925   0.00000  Uiso   1.00
C409   C     0.71619   0.78947   0.02361   0.00000  Uiso   1.00
C410   C     0.95048   0.87719   0.30972   0.00000  Uiso   1.00
C411   C     0.83336   0.91245   0.16675   0.00000  Uiso   1.00
C412   C     0.73458   0.83330   0.15455   0.00000  Uiso   1.00
C413   C     0.93209   0.83336   0.17879   0.00000  Uiso   1.00
C414   C     0.67924   0.83334   0.14791   0.00000  Uiso   1.00
C415   C     0.98742   0.83333   0.18542   0.00000  Uiso   1.00
C416   C     0.87555   0.68826   0.15230   0.00000  Uiso   1.00
C417   C     0.79112   0.97840   0.18103   0.00000  Uiso   1.00
C418   C     0.87562   0.97866   0.15250   0.00000  Uiso   1.00
Cu419  Cu    0.83333   0.83334   0.21355   0.00000  Uiso   1.00
Cu420  Cu    0.83333   0.83333   0.11978   0.00000  Uiso   1.00
H421   H     0.99247   0.83340   0.11198   0.00000  Uiso   1.00
H422   H     0.70739   0.82308   0.02475   0.00000  Uiso   1.00
H423   H     0.69167   0.77357   0.04667   0.00000  Uiso   1.00
H424   H     0.95928   0.84358   0.30858   0.00000  Uiso   1.00
H425   H     0.96130   0.88968   0.01264   0.00000  Uiso   1.00
H426   H     0.97500   0.89309   0.28666   0.00000  Uiso   1.00
H427   H     0.67420   0.83327   0.22135   0.00000  Uiso   1.00
H428   H     0.77583   0.78718   0.28159   0.00000  Uiso   1.00
H429   H     0.89083   0.87949   0.05174   0.00000  Uiso   1.00
H430   H     0.91957   0.73724   0.14896   0.00000  Uiso   1.00
H431   H     0.74710   0.92943   0.18437   0.00000  Uiso   1.00
H432   H     0.91985   0.93012   0.14972   0.00000  Uiso   1.00
H433   H     0.74682   0.73654   0.18361   0.00000  Uiso   1.00
H434   H     0.70538   0.77697   0.32069   0.00000  Uiso   1.00
N435   N     0.83335   0.83334   0.28403   0.00000  Uiso   1.00
N436   N     0.83332   0.83332   0.04931   0.00000  Uiso   1.00
O437   O     0.83333   0.77322   0.20625   0.00000  Uiso   1.00
O438   O     0.74816   0.95879   0.19409   0.00000  Uiso   1.00
O439   O     0.91860   0.95930   0.13956   0.00000  Uiso   1.00
O440   O     0.74807   0.70737   0.19378   0.00000  Uiso   1.00
O441   O     0.76837   0.78128   0.04073   0.00000  Uiso   1.00
O442   O     0.89830   0.88538   0.29261   0.00000  Uiso   1.00
O443   O     0.83334   0.89345   0.12709   0.00000  Uiso   1.00
O444   O     0.83333   0.77321   0.12706   0.00000  Uiso   1.00
O445   O     0.83334   0.89346   0.20628   0.00000  Uiso   1.00
O446   O     0.75828   0.83334   0.19712   0.00000  Uiso   1.00
O447   O     0.90839   0.83333   0.13621   0.00000  Uiso   1.00
O448   O     0.75828   0.83333   0.11793   0.00000  Uiso   1.00
O449   O     0.90839   0.83334   0.21540   0.00000  Uiso   1.00
O450   O     0.91851   0.70788   0.13924   0.00000  Uiso   1.00
C451   C     0.16664   0.08755   0.49992   0.00000  Uiso   1.00
C452   C     0.12438   0.02134   0.51416   0.00000  Uiso   1.00
C453   C     0.16674   0.29036   0.50020   0.00000  Uiso   1.00
C454   C     0.16660   0.04298   0.49980   0.00000  Uiso   1.00
C455   C     0.13336   0.14158   0.35381   0.00000  Uiso   1.00
C456   C     0.19997   0.19176   0.64619   0.00000  Uiso   1.00
C457   C     0.13419   0.14131   0.63741   0.00000  Uiso   1.00
C458   C     0.19915   0.19203   0.36259   0.00000  Uiso   1.00
C459   C     0.04952   0.12280   0.35694   0.00000  Uiso   1.00
C460   C     0.28382   0.21052   0.64306   0.00000  Uiso   1.00
C461   C     0.16670   0.24578   0.50008   0.00000  Uiso   1.00
C462   C     0.06792   0.16664   0.48788   0.00000  Uiso   1.00
C463   C     0.26542   0.16670   0.51212   0.00000  Uiso   1.00
C464   C     0.01258   0.16667   0.48125   0.00000  Uiso   1.00
C465   C     0.32076   0.16666   0.51875   0.00000  Uiso   1.00
C466   C     0.20889   0.02160   0.48564   0.00000  Uiso   1.00
C467   C     0.12445   0.31174   0.51436   0.00000  Uiso   1.00
C468   C     0.20895   0.31199   0.48584   0.00000  Uiso   1.00
Cu469  Cu    0.16667   0.16667   0.54689   0.00000  Uiso   1.00
Cu470  Cu    0.16667   0.16666   0.45311   0.00000  Uiso   1.00
H471   H     0.32580   0.16673   0.44531   0.00000  Uiso   1.00
H472   H     0.04072   0.15641   0.35809   0.00000  Uiso   1.00
H473   H     0.02501   0.10690   0.38001   0.00000  Uiso   1.00
H474   H     0.29261   0.17691   0.64191   0.00000  Uiso   1.00
H475   H     0.29463   0.22302   0.34598   0.00000  Uiso   1.00
H476   H     0.30833   0.22643   0.61999   0.00000  Uiso   1.00
H477   H     0.00753   0.16660   0.55469   0.00000  Uiso   1.00
H478   H     0.10917   0.12051   0.61492   0.00000  Uiso   1.00
H479   H     0.22417   0.21282   0.38508   0.00000  Uiso   1.00
H480   H     0.25290   0.07058   0.48229   0.00000  Uiso   1.00
H481   H     0.08043   0.26276   0.51770   0.00000  Uiso   1.00
H482   H     0.25318   0.26345   0.48305   0.00000  Uiso   1.00
H483   H     0.08015   0.06988   0.51694   0.00000  Uiso   1.00
H484   H     0.03871   0.11031   0.65402   0.00000  Uiso   1.00
N485   N     0.16668   0.16668   0.61736   0.00000  Uiso   1.00
N486   N     0.16665   0.16666   0.38264   0.00000  Uiso   1.00
O487   O     0.16666   0.10655   0.53958   0.00000  Uiso   1.00
O488   O     0.08150   0.29212   0.52743   0.00000  Uiso   1.00
O489   O     0.25193   0.29263   0.47289   0.00000  Uiso   1.00
O490   O     0.08140   0.04070   0.52711   0.00000  Uiso   1.00
O491   O     0.10170   0.11461   0.37406   0.00000  Uiso   1.00
O492   O     0.23163   0.21872   0.62594   0.00000  Uiso   1.00
O493   O     0.16667   0.22678   0.46042   0.00000  Uiso   1.00
O494   O     0.16666   0.10654   0.46039   0.00000  Uiso   1.00
O495   O     0.16667   0.22679   0.53961   0.00000  Uiso   1.00
O496   O     0.09161   0.16667   0.53046   0.00000  Uiso   1.00
O497   O     0.24172   0.16666   0.46954   0.00000  Uiso   1.00
O498   O     0.09161   0.16666   0.45127   0.00000  Uiso   1.00
O499   O     0.24172   0.16667   0.54873   0.00000  Uiso   1.00
O500   O     0.25184   0.04121   0.47257   0.00000  Uiso   1.00
C501   C     0.49997   0.08755   0.49992   0.00000  Uiso   1.00
C502   C     0.45771   0.02134   0.51416   0.00000  Uiso   1.00
C503   C     0.50007   0.29036   0.50020   0.00000  Uiso   1.00
C504   C     0.49993   0.04298   0.49980   0.00000  Uiso   1.00
C505   C     0.46669   0.14158   0.35381   0.00000  Uiso   1.00
C506   C     0.53331   0.19176   0.64619   0.00000  Uiso   1.00
C507   C     0.46752   0.14131   0.63741   0.00000  Uiso   1.00
C508   C     0.53248   0.19203   0.36259   0.00000  Uiso   1.00
C509   C     0.38285   0.12280   0.35694   0.00000  Uiso   1.00
C510   C     0.61715   0.21052   0.64306   0.00000  Uiso   1.00
C511   C     0.50003   0.24578   0.50008   0.00000  Uiso   1.00
C512   C     0.40125   0.16664   0.48788   0.00000  Uiso   1.00
C513   C     0.59875   0.16670   0.51212   0.00000  Uiso   1.00
C514   C     0.34591   0.16667   0.48125   0.00000  Uiso   1.00
C515   C     0.65409   0.16666   0.51875   0.00000  Uiso   1.00
C516   C     0.54222   0.02160   0.48564   0.00000  Uiso   1.00
C517   C     0.45778   0.31174   0.51436   0.00000  Uiso   1.00
C518   C     0.54229   0.31199   0.48584   0.00000  Uiso   1.00
Cu519  Cu    0.50000   0.16667   0.54689   0.00000  Uiso   1.00
Cu520  Cu    0.50000   0.16666   0.45311   0.00000  Uiso   1.00
H521   H     0.65913   0.16673   0.44531   0.00000  Uiso   1.00
H522   H     0.37405   0.15641   0.35809   0.00000  Uiso   1.00
H523   H     0.35834   0.10690   0.38001   0.00000  Uiso   1.00
H524   H     0.62594   0.17691   0.64191   0.00000  Uiso   1.00
H525   H     0.62796   0.22302   0.34598   0.00000  Uiso   1.00
H526   H     0.64166   0.22643   0.61999   0.00000  Uiso   1.00
H527   H     0.34087   0.16660   0.55469   0.00000  Uiso   1.00
H528   H     0.44250   0.12051   0.61492   0.00000  Uiso   1.00
H529   H     0.55750   0.21282   0.38508   0.00000  Uiso   1.00
H530   H     0.58624   0.07058   0.48229   0.00000  Uiso   1.00
H531   H     0.41376   0.26276   0.51770   0.00000  Uiso   1.00
H532   H     0.58652   0.26345   0.48305   0.00000  Uiso   1.00
H533   H     0.41348   0.06988   0.51694   0.00000  Uiso   1.00
H534   H     0.37204   0.11031   0.65402   0.00000  Uiso   1.00
N535   N     0.50001   0.16668   0.61736   0.00000  Uiso   1.00
N536   N     0.49999   0.16666   0.38264   0.00000  Uiso   1.00
O537   O     0.50000   0.10655   0.53958   0.00000  Uiso   1.00
O538   O     0.41483   0.29212   0.52743   0.00000  Uiso   1.00
O539   O     0.58527   0.29263   0.47289   0.00000  Uiso   1.00
O540   O     0.41473   0.04070   0.52711   0.00000  Uiso   1.00
O541   O     0.43503   0.11461   0.37406   0.00000  Uiso   1.00
O542   O     0.56497   0.21872   0.62594   0.00000  Uiso   1.00
O543   O     0.50000   0.22678   0.46042   0.00000  Uiso   1.00
O544   O     0.50000   0.10654   0.46039   0.00000  Uiso   1.00
O545   O     0.50000   0.22679   0.53961   0.00000  Uiso   1.00
O546   O     0.42495   0.16667   0.53046   0.00000  Uiso   1.00
O547   O     0.57505   0.16666   0.46954   0.00000  Uiso   1.00
O548   O     0.42494   0.16666   0.45127   0.00000  Uiso   1.00
O549   O     0.57506   0.16667   0.54873   0.00000  Uiso   1.00
O550   O     0.58517   0.04121   0.47257   0.00000  Uiso   1.00
C551   C     0.83331   0.08755   0.49992   0.00000  Uiso   1.00
C552   C     0.79105   0.02134   0.51416   0.00000  Uiso   1.00
C553   C     0.83341   0.29036   0.50020   0.00000  Uiso   1.00
C554   C     0.83326   0.04298   0.49980   0.00000  Uiso   1.00
C555   C     0.80003   0.14158   0.35381   0.00000  Uiso   1.00
C556   C     0.86664   0.19176   0.64619   0.00000  Uiso   1.00
C557   C     0.80085   0.14131   0.63741   0.00000  Uiso   1.00
C558   C     0.86581   0.19203   0.36259   0.00000  Uiso   1.00
C559   C     0.71619   0.12280   0.35694   0.00000  Uiso   1.00
C560   C     0.95048   0.21052   0.64306   0.00000  Uiso   1.00
C561   C     0.83336   0.24578   0.50008   0.00000  Uiso   1.00
C562   C     0.73458   0.16664   0.48788   0.00000  Uiso   1.00
C563   C     0.93209   0.16670   0.51212   0.00000  Uiso   1.00
C564   C     0.67924   0.16667   0.48125   0.00000  Uiso   1.00
C565   C     0.98742   0.16666   0.51875   0.00000  Uiso   1.00
C566   C     0.87555   0.02160   0.48564   0.00000  Uiso   1.00
C567   C     0.79112   0.31174   0.51436   0.00000  Uiso   1.00
C568   C     0.87562   0.31199   0.48584   0.00000  Uiso   1.00
Cu569  Cu    0.83333   0.16667   0.54689   0.00000  Uiso   1.00
Cu570  Cu    0.83333   0.16666   0.45311   0.00000  Uiso   1.00
H571   H     0.99247   0.16673   0.44531   0.00000  Uiso   1.00
H572   H     0.70739   0.15641   0.35809   0.00000  Uiso   1.00
H573   H     0.69167   0.10690   0.38001   0.00000  Uiso   1.00
H574   H     0.95928   0.17691   0.64191   0.00000  Uiso   1.00
H575   H     0.96130   0.22302   0.34598   0.00000  Uiso   1.00
H576   H     0.97500   0.22643   0.61999   0.00000  Uiso   1.00
H577   H     0.67420   0.16660   0.55469   0.00000  Uiso   1.00
H578   H     0.77583   0.12051   0.61492   0.00000  Uiso   1.00
H579   H     0.89083   0.21282   0.38508   0.00000  Uiso   1.00
H580   H     0.91957   0.07058   0.48229   0.00000  Uiso   1.00
H581   H     0.74710   0.26276   0.51770   0.00000  Uiso   1.00
H582   H     0.91985   0.26345   0.48305   0.00000  Uiso   1.00
H583   H     0.74682   0.06988   0.51694   0.00000  Uiso   1.00
H584   H     0.70538   0.11031   0.65402   0.00000  Uiso   1.00
N585   N     0.83335   0.16668   0.61736   0.00000  Uiso   1.00
N586   N     0.83332   0.16666   0.38264   0.00000  Uiso   1.00
O587   O     0.83333   0.10655   0.53958   0.00000  Uiso   1.00
O588   O     0.74816   0.29212   0.52743   0.00000  Uiso   1.00
O589   O     0.91860   0.29263   0.47289   0.00000  Uiso   1.00
O590   O     0.74807   0.04070   0.52711   0.00000  Uiso   1.00
O591   O     0.76837   0.11461   0.37406   0.00000  Uiso   1.00
O592   O     0.89830   0.21872   0.62594   0.00000  Uiso   1.00
O593   O     0.83334   0.22678   0.46042   0.00000  Uiso   1.00
O594   O     0.83333   0.10654   0.46039   0.00000  Uiso   1.00
O595   O     0.83334   0.22679   0.53961   0.00000  Uiso   1.00
O596   O     0.75828   0.16667   0.53046   0.00000  Uiso   1.00
O597   O     0.90839   0.16666   0.46954   0.00000  Uiso   1.00
O598   O     0.75828   0.16666   0.45127   0.00000  Uiso   1.00
O599   O     0.90839   0.16667   0.54873   0.00000  Uiso   1.00
O600   O     0.91851   0.04121   0.47257   0.00000  Uiso   1.00
C601   C     0.16664   0.42089   0.49992   0.00000  Uiso   1.00
C602   C     0.12438   0.35467   0.51416   0.00000  Uiso   1.00
C603   C     0.16674   0.62369   0.50020   0.00000  Uiso   1.00
C604   C     0.16660   0.37631   0.49980   0.00000  Uiso   1.00
C605   C     0.13336   0.47491   0.35381   0.00000  Uiso   1.00
C606   C     0.19997   0.52509   0.64619   0.00000  Uiso   1.00
C607   C     0.13419   0.47464   0.63741   0.00000  Uiso   1.00
C608   C     0.19915   0.52536   0.36259   0.00000  Uiso   1.00
C609   C     0.04952   0.45614   0.35694   0.00000  Uiso   1.00
C610   C     0.28382   0.54386   0.64306   0.00000  Uiso   1.00
C611   C     0.16670   0.57911   0.50008   0.00000  Uiso   1.00
C612   C     0.06792   0.49997   0.48788   0.00000  Uiso   1.00
C613   C     0.26542   0.50003   0.51212   0.00000  Uiso   1.00
C614   C     0.01258   0.50000   0.48125   0.00000  Uiso   1.00
C615   C     0.32076   0.50000   0.51875   0.00000  Uiso   1.00
C616   C     0.20889   0.35493   0.48564   0.00000  Uiso   1.00
C617   C     0.12445   0.64507   0.51436   0.00000  Uiso   1.00
C618   C     0.20895   0.64533   0.48584   0.00000  Uiso   1.00
Cu619  Cu    0.16667   0.50001   0.54689   0.00000  Uiso   1.00
Cu620  Cu    0.16667   0.49999   0.45311   0.00000  Uiso   1.00
H621   H     0.32580   0.50006   0.44531   0.00000  Uiso   1.00
H622   H     0.04072   0.48975   0.35809   0.00000  Uiso   1.00
H623   H     0.02501   0.44023   0.38001   0.00000  Uiso   1.00
H624   H     0.29261   0.51024   0.64191   0.00000  Uiso   1.00
H625   H     0.29463   0.55635   0.34598   0.00000  Uiso   1.00
H626   H     0.30833   0.55976   0.61999   0.00000  Uiso   1.00
H627   H     0.00753   0.49994   0.55469   0.00000  Uiso   1.00
H628   H     0.10917   0.45384   0.61492   0.00000  Uiso   1.00
H629   H     0.22417   0.54616   0.38508   0.00000  Uiso   1.00
H630   H     0.25290   0.40391   0.48229   0.00000  Uiso   1.00
H631   H     0.08043   0.59609   0.51770   0.00000  Uiso   1.00
H632   H     0.25318   0.59679   0.48305   0.00000  Uiso   1.00
H633   H     0.08015   0.40321   0.51694   0.00000  Uiso   1.00
H634   H     0.03871   0.44364   0.65402   0.00000  Uiso   1.00
N635   N     0.16668   0.50001   0.61736   0.00000  Uiso   1.00
N636   N     0.16665   0.49999   0.38264   0.00000  Uiso   1.00
O637   O     0.16666   0.43989   0.53958   0.00000  Uiso   1.00
O638   O     0.08150   0.62546   0.52743   0.00000  Uiso   1.00
O639   O     0.25193   0.62597   0.47289   0.00000  Uiso   1.00
O640   O     0.08140   0.37403   0.52711   0.00000  Uiso   1.00
O641   O     0.10170   0.44795   0.37406   0.00000  Uiso   1.00
O642   O     0.23163   0.55205   0.62594   0.00000  Uiso   1.00
O643   O     0.16667   0.56011   0.46042   0.00000  Uiso   1.00
O644   O     0.16666   0.43988   0.46039   0.00000  Uiso   1.00
O645   O     0.16667   0.56012   0.53961   0.00000  Uiso   1.00
O646   O     0.09161   0.50000   0.53046   0.00000  Uiso   1.00
O647   O     0.24172   0.50000   0.46954   0.00000  Uiso   1.00
O648   O     0.09161   0.49999   0.45127   0.00000  Uiso   1.00
O649   O     0.24172   0.50001   0.54873   0.00000  Uiso   1.00
O650   O     0.25184   0.37454   0.47257   0.00000  Uiso   1.00
C651   C     0.49997   0.42089   0.49992   0.00000  Uiso   1.00
C652   C     0.45771   0.35467   0.51416   0.00000  Uiso   1.00
C653   C     0.50007   0.62369   0.50020   0.00000  Uiso   1.00
C654   C     0.49993   0.37631   0.49980   0.00000  Uiso   1.00
C655   C     0.46669   0.47491   0.35381   0.00000  Uiso   1.00
C656   C     0.53331   0.52509   0.64619   0.00000  Uiso   1.00
C657   C     0.46752   0.47464   0.63741   0.00000  Uiso   1.00
C658   C     0.53248   0.52536   0.36259   0.00000  Uiso   1.00
C659   C     0.38285   0.45614   0.35694   0.00000  Uiso   1.00
C660   C     0.61715   0.54386   0.64306   0.00000  Uiso   1.00
C661   C     0.50003   0.57911   0.50008   0.00000  Uiso   1.00
C662   C     0.40125   0.49997   0.48788   0.00000  Uiso   1.00
C663   C     0.59875   0.50003   0.51212   0.00000  Uiso   1.00
C664   C     0.34591   0.50000   0.48125   0.00000  Uiso   1.00
C665   C     0.65409   0.50000   0.51875   0.00000  Uiso   1.00
C666   C     0.54222   0.35493   0.48564   0.00000  Uiso   1.00
C667   C     0.45778   0.64507   0.51436   0.00000  Uiso   1.00
C668   C     0.54229   0.64533   0.48584   0.00000  Uiso   1.00
Cu669  Cu    0.50000   0.50001   0.54689   0.00000  Uiso   1.00
Cu670  Cu    0.50000   0.49999   0.45311   0.00000  Uiso   1.00
H671   H     0.65913   0.50006   0.44531   0.00000  Uiso   1.00
H672   H     0.37405   0.48975   0.35809   0.00000  Uiso   1.00
H673   H     0.35834   0.44023   0.38001   0.00000  Uiso   1.00
H674   H     0.62594   0.51024   0.64191   0.00000  Uiso   1.00
H675   H     0.62796   0.55635   0.34598   0.00000  Uiso   1.00
H676   H     0.64166   0.55976   0.61999   0.00000  Uiso   1.00
H677   H     0.34087   0.49994   0.55469   0.00000  Uiso   1.00
H678   H     0.44250   0.45384   0.61492   0.00000  Uiso   1.00
H679   H     0.55750   0.54616   0.38508   0.00000  Uiso   1.00
H680   H     0.58624   0.40391   0.48229   0.00000  Uiso   1.00
H681   H     0.41376   0.59609   0.51770   0.00000  Uiso   1.00
H682   H     0.58652   0.59679   0.48305   0.00000  Uiso   1.00
H683   H     0.41348   0.40321   0.51694   0.00000  Uiso   1.00
H684   H     0.37204   0.44364   0.65402   0.00000  Uiso   1.00
N685   N     0.50001   0.50001   0.61736   0.00000  Uiso   1.00
N686   N     0.49999   0.49999   0.38264   0.00000  Uiso   1.00
O687   O     0.50000   0.43989   0.53958   0.00000  Uiso   1.00
O688   O     0.41483   0.62546   0.52743   0.00000  Uiso   1.00
O689   O     0.58527   0.62597   0.47289   0.00000  Uiso   1.00
O690   O     0.41473   0.37403   0.52711   0.00000  Uiso   1.00
O691   O     0.43503   0.44795   0.37406   0.00000  Uiso   1.00
O692   O     0.56497   0.55205   0.62594   0.00000  Uiso   1.00
O693   O     0.50000   0.56011   0.46042   0.00000  Uiso   1.00
O694   O     0.50000   0.43988   0.46039   0.00000  Uiso   1.00
O695   O     0.50000   0.56012   0.53961   0.00000  Uiso   1.00
O696   O     0.42495   0.50000   0.53046   0.00000  Uiso   1.00
O697   O     0.57505   0.50000   0.46954   0.00000  Uiso   1.00
O698   O     0.42494   0.49999   0.45127   0.00000  Uiso   1.00
O699   O     0.57506   0.50001   0.54873   0.00000  Uiso   1.00
O700   O     0.58517   0.37454   0.47257   0.00000  Uiso   1.00
C701   C     0.83331   0.42089   0.49992   0.00000  Uiso   1.00
C702   C     0.79105   0.35467   0.51416   0.00000  Uiso   1.00
C703   C     0.83341   0.62369   0.50020   0.00000  Uiso   1.00
C704   C     0.83326   0.37631   0.49980   0.00000  Uiso   1.00
C705   C     0.80003   0.47491   0.35381   0.00000  Uiso   1.00
C706   C     0.86664   0.52509   0.64619   0.00000  Uiso   1.00
C707   C     0.80085   0.47464   0.63741   0.00000  Uiso   1.00
C708   C     0.86581   0.52536   0.36259   0.00000  Uiso   1.00
C709   C     0.71619   0.45614   0.35694   0.00000  Uiso   1.00
C710   C     0.95048   0.54386   0.64306   0.00000  Uiso   1.00
C711   C     0.83336   0.57911   0.50008   0.00000  Uiso   1.00
C712   C     0.73458   0.49997   0.48788   0.00000  Uiso   1.00
C713   C     0.93209   0.50003   0.51212   0.00000  Uiso   1.00
C714   C     0.67924   0.50000   0.48125   0.00000  Uiso   1.00
C715   C     0.98742   0.50000   0.51875   0.00000  Uiso   1.00
C716   C     0.87555   0.35493   0.48564   0.00000  Uiso   1.00
C717   C     0.79112   0.64507   0.51436   0.00000  Uiso   1.00
C718   C     0.87562   0.64533   0.48584   0.00000  Uiso   1.00
Cu719  Cu    0.83333   0.50001   0.54689   0.00000  Uiso   1.00
Cu720  Cu    0.83333   0.49999   0.45311   0.00000  Uiso   1.00
H721   H     0.99247   0.50006   0.44531   0.00000  Uiso   1.00
H722   H     0.70739   0.48975   0.35809   0.00000  Uiso   1.00
H723   H     0.69167   0.44023   0.38001   0.00000  Uiso   1.00
H724   H     0.95928   0.51024   0.64191   0.00000  Uiso   1.00
H725   H     0.96130   0.55635   0.34598   0.00000  Uiso   1.00
H726   H     0.97500   0.55976   0.61999   0.00000  Uiso   1.00
H727   H     0.67420   0.49994   0.55469   0.00000  Uiso   1.00
H728   H     0.77583   0.45384   0.61492   0.00000  Uiso   1.00
H729   H     0.89083   0.54616   0.38508   0.00000  Uiso   1.00
H730   H     0.91957   0.40391   0.48229   0.00000  Uiso   1.00
H731   H     0.74710   0.59609   0.51770   0.00000  Uiso   1.00
H732   H     0.91985   0.59679   0.48305   0.00000  Uiso   1.00
H733   H     0.74682   0.40321   0.51694   0.00000  Uiso   1.00
H734   H     0.70538   0.44364   0.65402   0.00000  Uiso   1.00
N735   N     0.83335   0.50001   0.61736   0.00000  Uiso   1.00
N736   N     0.83332   0.49999   0.38264   0.00000  Uiso   1.00
O737   O     0.83333   0.43989   0.53958   0.00000  Uiso   1.00
O738   O     0.74816   0.62546   0.52743   0.00000  Uiso   1.00
O739   O     0.91860   0.62597   0.47289   0.00000  Uiso   1.00
O740   O     0.74807   0.37403   0.52711   0.00000  Uiso   1.00
O741   O     0.76837   0.44795   0.37406   0.00000  Uiso   1.00
O742   O     0.89830   0.55205   0.62594   0.00000  Uiso   1.00
O743   O     0.83334   0.56011   0.46042   0.00000  Uiso   1.00
O744   O     0.83333   0.43988   0.46039   0.00000  Uiso   1.00
O745   O     0.83334   0.56012   0.53961   0.00000  Uiso   1.00
O746   O     0.75828   0.50000   0.53046   0.00000  Uiso   1.00
O747   O     0.90839   0.50000   0.46954   0.00000  Uiso   1.00
O748   O     0.75828   0.49999   0.45127   0.00000  Uiso   1.00
O749   O     0.90839   0.50001   0.54873   0.00000  Uiso   1.00
O750   O     0.91851   0.37454   0.47257   0.00000  Uiso   1.00
C751   C     0.16664   0.75422   0.49992   0.00000  Uiso   1.00
C752   C     0.12438   0.68801   0.51416   0.00000  Uiso   1.00
C753   C     0.16674   0.95702   0.50020   0.00000  Uiso   1.00
C754   C     0.16660   0.70964   0.49980   0.00000  Uiso   1.00
C755   C     0.13336   0.80824   0.35381   0.00000  Uiso   1.00
C756   C     0.19997   0.85842   0.64619   0.00000  Uiso   1.00
C757   C     0.13419   0.80797   0.63741   0.00000  Uiso   1.00
C758   C     0.19915   0.85869   0.36259   0.00000  Uiso   1.00
C759   C     0.04952   0.78947   0.35694   0.00000  Uiso   1.00
C760   C     0.28382   0.87719   0.64306   0.00000  Uiso   1.00
C761   C     0.16670   0.91245   0.50008   0.00000  Uiso   1.00
C762   C     0.06792   0.83330   0.48788   0.00000  Uiso   1.00
C763   C     0.26542   0.83336   0.51212   0.00000  Uiso   1.00
C764   C     0.01258   0.83334   0.48125   0.00000  Uiso   1.00
C765   C     0.32076   0.83333   0.51875   0.00000  Uiso   1.00
C766   C     0.20889   0.68826   0.48564   0.00000  Uiso   1.00
C767   C     0.12445   0.97840   0.51436   0.00000  Uiso   1.00
C768   C     0.20895   0.97866   0.48584   0.00000  Uiso   1.00
Cu769  Cu    0.16667   0.83334   0.54689   0.00000  Uiso   1.00
Cu770  Cu    0.16667   0.83333   0.45311   0.00000  Uiso   1.00
H771   H     0.32580   0.83340   0.44531   0.00000  Uiso   1.00
H772   H     0.04072   0.82308   0.35809   0.00000  Uiso   1.00
H773   H     0.02501   0.77357   0.38001   0.00000  Uiso   1.00
H774   H     0.29261   0.84358   0.64191   0.00000  Uiso   1.00
H775   H     0.29463   0.88968   0.34598   0.00000  Uiso   1.00
H776   H     0.30833   0.89309   0.61999   0.00000  Uiso   1.00
H777   H     0.00753   0.83327   0.55469   0.00000  Uiso   1.00
H778   H     0.10917   0.78718   0.61492   0.00000  Uiso   1.00
H779   H     0.22417   0.87949   0.38508   0.00000  Uiso   1.00
H780   H     0.25290   0.73724   0.48229   0.00000  Uiso   1.00
H781   H     0.08043   0.92943   0.51770   0.00000  Uiso   1.00
H782   H     0.25318   0.93012   0.48305   0.00000  Uiso   1.00
H783   H     0.08015   0.73654   0.51694   0.00000  Uiso   1.00
H784   H     0.03871   0.77697   0.65402   0.00000  Uiso   1.00
N785   N     0.16668   0.83334   0.61736   0.00000  Uiso   1.00
N786   N     0.16665   0.83332   0.38264   0.00000  Uiso   1.00
O787   O     0.16666   0.77322   0.53958   0.00000  Uiso   1.00
O788   O     0.08150   0.95879   0.52743   0.00000  Uiso   1.00
O789   O     0.25193   0.95930   0.47289   0.00000  Uiso   1.00
O790   O     0.08140   0.70737   0.52711   0.00000  Uiso   1.00
O791   O     0.10170   0.78128   0.37406   0.00000  Uiso   1.00
O792   O     0.23163   0.88538   0.62594   0.00000  Uiso   1.00
O793   O     0.16667   0.89345   0.46042   0.00000  Uiso   1.00
O794   O     0.16666   0.77321   0.46039   0.00000  Uiso   1.00
O795   O     0.16667   0.89346   0.53961   0.00000  Uiso   1.00
O796   O     0.09161   0.83334   0.53046   0.00000  Uiso   1.00
O797   O     0.24172   0.83333   0.46954   0.00000  Uiso   1.00
O798   O     0.09161   0.83333   0.45127   0.00000  Uiso   1.00
O799   O     0.24172   0.83334   0.54873   0.00000  Uiso   1.00
O800   O     0.25184   0.70788   0.47257   0.00000  Uiso   1.00
C801   C     0.49997   0.75422   0.49992   0.00000  Uiso   1.00
C802   C     0.45771   0.68801   0.51416   0.00000  Uiso   1.00
C803   C     0.50007   0.95702   0.50020   0.00000  Uiso   1.00
C804   C     0.49993   0.70964   0.49980   0.00000  Uiso   1.00
C805   C     0.46669   0.80824   0.35381   0.00000  Uiso   1.00
C806   C     0.53331   0.85842   0.64619   0.00000  Uiso   1.00
C807   C     0.46752   0.80797   0.63741   0.00000  Uiso   1.00
C808   C     0.53248   0.85869   0.36259   0.00000  Uiso   1.00
C809   C     0.38285   0.78947   0.35694   0.00000  Uiso   1.00
C810   C     0.61715   0.87719   0.64306   0.00000  Uiso   1.00
C811   C     0.50003   0.91245   0.50008   0.00000  Uiso   1.00
C812   C     0.40125   0.83330   0.48788   0.00000  Uiso   1.00
C813   C     0.59875   0.83336   0.51212   0.00000  Uiso   1.00
C814   C     0.34591   0.83334   0.48125   0.00000  Uiso   1.00
C815   C     0.65409   0.83333   0.51875   0.00000  Uiso   1.00
C816   C     0.54222   0.68826   0.48564   0.00000  Uiso   1.00
C817   C     0.45778   0.97840   0.51436   0.00000  Uiso   1.00
C818   C     0.54229   0.97866   0.48584   0.00000  Uiso   1.00
Cu819  Cu    0.50000   0.83334   0.54689   0.00000  Uiso   1.00
Cu820  Cu    0.50000   0.83333   0.45311   0.00000  Uiso   1.00
H821   H     0.65913   0.83340   0.44531   0.00000  Uiso   1.00
H822   H     0.37405   0.82308   0.35809   0.00000  Uiso   1.00
H823   H     0.35834   0.77357   0.38001   0.00000  Uiso   1.00
H824   H     0.62594   0.84358   0.64191   0.00000  Uiso   1.00
H825   H     0.62796   0.88968   0.34598   0.00000  Uiso   1.00
H826   H     0.64166   0.89309   0.61999   0.00000  Uiso   1.00
H827   H     0.34087   0.83327   0.55469   0.00000  Uiso   1.00
H828   H     0.44250   0.78718   0.61492   0.00000  Uiso   1.00
H829   H     0.55750   0.87949   0.38508   0.00000  Uiso   1.00
H830   H     0.58624   0.73724   0.48229   0.00000  Uiso   1.00
H831   H     0.41376   0.92943   0.51770   0.00000  Uiso   1.00
H832   H     0.58652   0.93012   0.48305   0.00000  Uiso   1.00
H833   H     0.41348   0.73654   0.51694   0.00000  Uiso   1.00
H834   H     0.37204   0.77697   0.65402   0.00000  Uiso   1.00
N835   N     0.50001   0.83334   0.61736   0.00000  Uiso   1.00
N836   N     0.49999   0.83332   0.38264   0.00000  Uiso   1.00
O837   O     0.50000   0.77322   0.53958   0.00000  Uiso   1.00
O838   O     0.41483   0.95879   0.52743   0.00000  Uiso   1.00
O839   O     0.58527   0.95930   0.47289   0.00000  Uiso   1.00
O840   O     0.41473   0.70737   0.52711   0.00000  Uiso   1.00
O841   O     0.43503   0.78128   0.37406   0.00000  Uiso   1.00
O842   O     0.56497   0.88538   0.62594   0.00000  Uiso   1.00
O843   O     0.50000   0.89345   0.46042   0.00000  Uiso   1.00
O844   O     0.50000   0.77321   0.46039   0.00000  Uiso   1.00
O845   O     0.50000   0.89346   0.53961   0.00000  Uiso   1.00
O846   O     0.42495   0.83334   0.53046   0.00000  Uiso   1.00
O847   O     0.57505   0.83333   0.46954   0.00000  Uiso   1.00
O848   O     0.42494   0.83333   0.45127   0.00000  Uiso   1.00
O849   O     0.57506   0.83334   0.54873   0.00000  Uiso   1.00
O850   O     0.58517   0.70788   0.47257   0.00000  Uiso   1.00
C851   C     0.83331   0.75422   0.49992   0.00000  Uiso   1.00
C852   C     0.79105   0.68801   0.51416   0.00000  Uiso   1.00
C853   C     0.83341   0.95702   0.50020   0.00000  Uiso   1.00
C854   C     0.83326   0.70964   0.49980   0.00000  Uiso   1.00
C855   C     0.80003   0.80824   0.35381   0.00000  Uiso   1.00
C856   C     0.86664   0.85842   0.64619   0.00000  Uiso   1.00
C857   C     0.80085   0.80797   0.63741   0.00000  Uiso   1.00
C858   C     0.86581   0.85869   0.36259   0.00000  Uiso   1.00
C859   C     0.71619   0.78947   0.35694   0.00000  Uiso   1.00
C860   C     0.95048   0.87719   0.64306   0.00000  Uiso   1.00
C861   C     0.83336   0.91245   0.50008   0.00000  Uiso   1.00
C862   C     0.73458   0.83330   0.48788   0.00000  Uiso   1.00
C863   C     0.93209   0.83336   0.51212   0.00000  Uiso   1.00
C864   C     0.67924   0.83334   0.48125   0.00000  Uiso   1.00
C865   C     0.98742   0.83333   0.51875   0.00000  Uiso   1.00
C866   C     0.87555   0.68826   0.48564   0.00000  Uiso   1.00
C867   C     0.79112   0.97840   0.51436   0.00000  Uiso   1.00
C868   C     0.87562   0.97866   0.48584   0.00000  Uiso   1.00
Cu869  Cu    0.83333   0.83334   0.54689   0.00000  Uiso   1.00
Cu870  Cu    0.83333   0.83333   0.45311   0.00000  Uiso   1.00
H871   H     0.99247   0.83340   0.44531   0.00000  Uiso   1.00
H872   H     0.70739   0.82308   0.35809   0.00000  Uiso   1.00
H873   H     0.69167   0.77357   0.38001   0.00000  Uiso   1.00
H874   H     0.95928   0.84358   0.64191   0.00000  Uiso   1.00
H875   H     0.96130   0.88968   0.34598   0.00000  Uiso   1.00
H876   H     0.97500   0.89309   0.61999   0.00000  Uiso   1.00
H877   H     0.67420   0.83327   0.55469   0.00000  Uiso   1.00
H878   H     0.77583   0.78718   0.61492   0.00000  Uiso   1.00
H879   H     0.89083   0.87949   0.38508   0.00000  Uiso   1.00
H880   H     0.91957   0.73724   0.48229   0.00000  Uiso   1.00
H881   H     0.74710   0.92943   0.51770   0.00000  Uiso   1.00
H882   H     0.91985   0.93012   0.48305   0.00000  Uiso   1.00
H883   H     0.74682   0.73654   0.51694   0.00000  Uiso   1.00
H884   H     0.70538   0.77697   0.65402   0.00000  Uiso   1.00
N885   N     0.83335   0.83334   0.61736   0.00000  Uiso   1.00
N886   N     0.83332   0.83332   0.38264   0.00000  Uiso   1.00
O887   O     0.83333   0.77322   0.53958   0.00000  Uiso   1.00
O888   O     0.74816   0.95879   0.52743   0.00000  Uiso   1.00
O889   O     0.91860   0.95930   0.47289   0.00000  Uiso   1.00
O890   O     0.74807   0.70737   0.52711   0.00000  Uiso   1.00
O891   O     0.76837   0.78128   0.37406   0.00000  Uiso   1.00
O892   O     0.89830   0.88538   0.62594   0.00000  Uiso   1.00
O893   O     0.83334   0.89345   0.46042   0.00000  Uiso   1.00
O894   O     0.83333   0.77321   0.46039   0.00000  Uiso   1.00
O895   O     0.83334   0.89346   0.53961   0.00000  Uiso   1.00
O896   O     0.75828   0.83334   0.53046   0.00000  Uiso   1.00
O897   O     0.90839   0.83333   0.46954   0.00000  Uiso   1.00
O898   O     0.75828   0.83333   0.45127   0.00000  Uiso   1.00
O899   O     0.90839   0.83334   0.54873   0.00000  Uiso   1.00
O900   O     0.91851   0.70788   0.47257   0.00000  Uiso   1.00
C901   C     0.16664   0.08755   0.83325   0.00000  Uiso   1.00
C902   C     0.12438   0.02134   0.84750   0.00000  Uiso   1.00
C903   C     0.16674   0.29036   0.83353   0.00000  Uiso   1.00
C904   C     0.16660   0.04298   0.83314   0.00000  Uiso   1.00
C905   C     0.13336   0.14158   0.68714   0.00000  Uiso   1.00
C906   C     0.19997   0.19176   0.97952   0.00000  Uiso   1.00
C907   C     0.13419   0.14131   0.97075   0.00000  Uiso   1.00
C908   C     0.19915   0.19203   0.69592   0.00000  Uiso   1.00
C909   C     0.04952   0.12280   0.69028   0.00000  Uiso   1.00
C910   C     0.28382   0.21052   0.97639   0.00000  Uiso   1.00
C911   C     0.16670   0.24578   0.83342   0.00000  Uiso   1.00
C912   C     0.06792   0.16664   0.82121   0.00000  Uiso   1.00
C913   C     0.26542   0.16670   0.84545   0.00000  Uiso   1.00
C914   C     0.01258   0.16667   0.81458   0.00000  Uiso   1.00
C915   C     0.32076   0.16666   0.85209   0.00000  Uiso   1.00
C916   C     0.20889   0.02160   0.81897   0.00000  Uiso   1.00
C917   C     0.12445   0.31174   0.84770   0.00000  Uiso   1.00
C918   C     0.20895   0.31199   0.81917   0.00000  Uiso   1.00
Cu919  Cu    0.16667   0.16667   0.88022   0.00000  Uiso   1.00
Cu920  Cu    0.16667   0.16666   0.78645   0.00000  Uiso   1.00
H921   H     0.32580   0.16673   0.77865   0.00000  Uiso   1.00
H922   H     0.04072   0.15641   0.69142   0.00000  Uiso   1.00
H923   H     0.02501   0.10690   0.71334   0.00000  Uiso   1.00
H924   H     0.29261   0.17691   0.97524   0.00000  Uiso   1.00
H925   H     0.29463   0.22302   0.67931   0.00000  Uiso   1.00
H926   H     0.30833   0.22643   0.95332   0.00000  Uiso   1.00
H927   H     0.00753   0.16660   0.88802   0.00000  Uiso   1.00
H928   H     0.10917   0.12051   0.94826   0.00000  Uiso   1.00
H929   H     0.22417   0.21282   0.71841   0.00000  Uiso   1.00
H930   H     0.25290   0.07058   0.81563   0.00000  Uiso   1.00
H931   H     0.08043   0.26276   0.85104   0.00000  Uiso   1.00
H932   H     0.25318   0.26345   0.81639   0.00000  Uiso   1.00
H933   H     0.08015   0.06988   0.85027   0.00000  Uiso   1.00
H934   H     0.03871   0.11031   0.98735   0.00000  Uiso   1.00
N935   N     0.16668   0.16668   0.95069   0.00000  Uiso   1.00
N936   N     0.16665   0.16666   0.71597   0.00000  Uiso   1.00
O937   O     0.16666   0.10655   0.87291   0.00000  Uiso   1.00
O938   O     0.08150   0.29212   0.86076   0.00000  Uiso   1.00
O939   O     0.25193   0.29263   0.80623   0.00000  Uiso   1.00
O940   O     0.08140   0.04070   0.86044   0.00000  Uiso   1.00
O941   O     0.10170   0.11461   0.70739   0.00000  Uiso   1.00
O942   O     0.23163   0.21872   0.95927   0.00000  Uiso   1.00
O943   O     0.16667   0.22678   0.79375   0.00000  Uiso   1.00
O944   O     0.16666   0.10654   0.79372   0.00000  Uiso   1.00
O945   O     0.16667   0.22679   0.87294   0.00000  Uiso   1.00
O946   O     0.09161   0.16667   0.86379   0.00000  Uiso   1.00
O947   O     0.24172   0.16666   0.80288   0.00000  Uiso   1.00
O948   O     0.09161   0.16666   0.78460   0.00000  Uiso   1.00
O949   O     0.24172   0.16667   0.88207   0.00000  Uiso   1.00
O950   O     0.25184   0.04121   0.80591   0.00000  Uiso   1.00
C951   C     0.49997   0.08755   0.83325   0.00000  Uiso   1.00
C952   C     0.45771   0.02134   0.84750   0.00000  Uiso   1.00
C953   C     0.50007   0.29036   0.83353   0.00000  Uiso   1.00
C954   C     0.49993   0.04298   0.83314   0.00000  Uiso   1.00
C955   C     0.46669   0.14158   0.68714   0.00000  Uiso   1.00
C956   C     0.53331   0.19176   0.97952   0.00000  Uiso   1.00
C957   C     0.46752   0.14131   0.97075   0.00000  Uiso   1.00
C958   C     0.53248   0.19203   0.69592   0.00000  Uiso   1.00
C959   C     0.38285   0.12280   0.69028   0.00000  Uiso   1.00
C960   C     0.61715   0.21052   0.97639   0.00000  Uiso   1.00
C961   C     0.50003   0.24578   0.83342   0.00000  Uiso   1.00
C962   C     0.40125   0.16664   0.82121   0.00000  Uiso   1.00
C963   C     0.59875   0.16670   0.84545   0.00000  Uiso   1.00
C964   C     0.34591   0.16667   0.81458   0.00000  Uiso   1.00
C965   C     0.65409   0.16666   0.85209   0.00000  Uiso   1.00
C966   C     0.54222   0.02160   0.81897   0.00000  Uiso   1.00
C967   C     0.45778   0.31174   0.84770   0.00000  Uiso   1.00
C968   C     0.54229   0.31199   0.81917   0.00000  Uiso   1.00
Cu969  Cu    0.50000   0.16667   0.88022   0.00000  Uiso   1.00
Cu970  Cu    0.50000   0.16666   0.78645   0.00000  Uiso   1.00
H971   H     0.65913   0.16673   0.77865   0.00000  Uiso   1.00
H972   H     0.37405   0.15641   0.69142   0.00000  Uiso   1.00
H973   H     0.35834   0.10690   0.71334   0.00000  Uiso   1.00
H974   H     0.62594   0.17691   0.97524   0.00000  Uiso   1.00
H975   H     0.62796   0.22302   0.67931   0.00000  Uiso   1.00
H976   H     0.64166   0.22643   0.95332   0.00000  Uiso   1.00
H977   H     0.34087   0.16660   0.88802   0.00000  Uiso   1.00
H978   H     0.44250   0.12051   0.94826   0.00000  Uiso   1.00
H979   H     0.55750   0.21282   0.71841   0.00000  Uiso   1.00
H980   H     0.58624   0.07058   0.81563   0.00000  Uiso   1.00
H981   H     0.41376   0.26276   0.85104   0.00000  Uiso   1.00
H982   H     0.58652   0.26345   0.81639   0.00000  Uiso   1.00
H983   H     0.41348   0.06988   0.85027   0.00000  Uiso   1.00
H984   H     0.37204   0.11031   0.98735   0.00000  Uiso   1.00
N985   N     0.50001   0.16668   0.95069   0.00000  Uiso   1.00
N986   N     0.49999   0.16666   0.71597   0.00000  Uiso   1.00
O987   O     0.50000   0.10655   0.87291   0.00000  Uiso   1.00
O988   O     0.41483   0.29212   0.86076   0.00000  Uiso   1.00
O989   O     0.58527   0.29263   0.80623   0.00000  Uiso   1.00
O990   O     0.41473   0.04070   0.86044   0.00000  Uiso   1.00
O991   O     0.43503   0.11461   0.70739   0.00000  Uiso   1.00
O992   O     0.56497   0.21872   0.95927   0.00000  Uiso   1.00
O993   O     0.50000   0.22678   0.79375   0.00000  Uiso   1.00
O994   O     0.50000   0.10654   0.79372   0.00000  Uiso   1.00
O995   O     0.50000   0.22679   0.87294   0.00000  Uiso   1.00
O996   O     0.42495   0.16667   0.86379   0.00000  Uiso   1.00
O997   O     0.57505   0.16666   0.80288   0.00000  Uiso   1.00
O998   O     0.42494   0.16666   0.78460   0.00000  Uiso   1.00
O999   O     0.57506   0.16667   0.88207   0.00000  Uiso   1.00
O1000  O     0.58517   0.04121   0.80591   0.00000  Uiso   1.00
C1001  C     0.83331   0.08755   0.83325   0.00000  Uiso   1.00
C1002  C     0.79105   0.02134   0.84750   0.00000  Uiso   1.00
C1003  C     0.83341   0.29036   0.83353   0.00000  Uiso   1.00
C1004  C     0.83326   0.04298   0.83314   0.00000  Uiso   1.00
C1005  C     0.80003   0.14158   0.68714   0.00000  Uiso   1.00
C1006  C     0.86664   0.19176   0.97952   0.00000  Uiso   1.00
C1007  C     0.80085   0.14131   0.97075   0.00000  Uiso   1.00
C1008  C     0.86581   0.19203   0.69592   0.00000  Uiso   1.00
C1009  C     0.71619   0.12280   0.69028   0.00000  Uiso   1.00
C1010  C     0.95048   0.21052   0.97639   0.00000  Uiso   1.00
C1011  C     0.83336   0.24578   0.83342   0.00000  Uiso   1.00
C1012  C     0.73458   0.16664   0.82121   0.00000  Uiso   1.00
C1013  C     0.93209   0.16670   0.84545   0.00000  Uiso   1.00
C1014  C     0.67924   0.16667   0.81458   0.00000  Uiso   1.00
C1015  C     0.98742   0.16666   0.85209   0.00000  Uiso   1.00
C1016  C     0.87555   0.02160   0.81897   0.00000  Uiso   1.00
C1017  C     0.79112   0.31174   0.84770   0.00000  Uiso   1.00
C1018  C     0.87562   0.31199   0.81917   0.00000  Uiso   1.00
Cu1019 Cu    0.83333   0.16667   0.88022   0.00000  Uiso   1.00
Cu1020 Cu    0.83333   0.16666   0.78645   0.00000  Uiso   1.00
H1021  H     0.99247   0.16673   0.77865   0.00000  Uiso   1.00
H1022  H     0.70739   0.15641   0.69142   0.00000  Uiso   1.00
H1023  H     0.69167   0.10690   0.71334   0.00000  Uiso   1.00
H1024  H     0.95928   0.17691   0.97524   0.00000  Uiso   1.00
H1025  H     0.96130   0.22302   0.67931   0.00000  Uiso   1.00
H1026  H     0.97500   0.22643   0.95332   0.00000  Uiso   1.00
H1027  H     0.67420   0.16660   0.88802   0.00000  Uiso   1.00
H1028  H     0.77583   0.12051   0.94826   0.00000  Uiso   1.00
H1029  H     0.89083   0.21282   0.71841   0.00000  Uiso   1.00
H1030  H     0.91957   0.07058   0.81563   0.00000  Uiso   1.00
H1031  H     0.74710   0.26276   0.85104   0.00000  Uiso   1.00
H1032  H     0.91985   0.26345   0.81639   0.00000  Uiso   1.00
H1033  H     0.74682   0.06988   0.85027   0.00000  Uiso   1.00
H1034  H     0.70538   0.11031   0.98735   0.00000  Uiso   1.00
N1035  N     0.83335   0.16668   0.95069   0.00000  Uiso   1.00
N1036  N     0.83332   0.16666   0.71597   0.00000  Uiso   1.00
O1037  O     0.83333   0.10655   0.87291   0.00000  Uiso   1.00
O1038  O     0.74816   0.29212   0.86076   0.00000  Uiso   1.00
O1039  O     0.91860   0.29263   0.80623   0.00000  Uiso   1.00
O1040  O     0.74807   0.04070   0.86044   0.00000  Uiso   1.00
O1041  O     0.76837   0.11461   0.70739   0.00000  Uiso   1.00
O1042  O     0.89830   0.21872   0.95927   0.00000  Uiso   1.00
O1043  O     0.83334   0.22678   0.79375   0.00000  Uiso   1.00
O1044  O     0.83333   0.10654   0.79372   0.00000  Uiso   1.00
O1045  O     0.83334   0.22679   0.87294   0.00000  Uiso   1.00
O1046  O     0.75828   0.16667   0.86379   0.00000  Uiso   1.00
O1047  O     0.90839   0.16666   0.80288   0.00000  Uiso   1.00
O1048  O     0.75828   0.16666   0.78460   0.00000  Uiso   1.00
O1049  O     0.90839   0.16667   0.88207   0.00000  Uiso   1.00
O1050  O     0.91851   0.04121   0.80591   0.00000  Uiso   1.00
C1051  C     0.16664   0.42089   0.83325   0.00000  Uiso   1.00
C1052  C     0.12438   0.35467   0.84750   0.00000  Uiso   1.00
C1053  C     0.16674   0.62369   0.83353   0.00000  Uiso   1.00
C1054  C     0.16660   0.37631   0.83314   0.00000  Uiso   1.00
C1055  C     0.13336   0.47491   0.68714   0.00000  Uiso   1.00
C1056  C     0.19997   0.52509   0.97952   0.00000  Uiso   1.00
C1057  C     0.13419   0.47464   0.97075   0.00000  Uiso   1.00
C1058  C     0.19915   0.52536   0.69592   0.00000  Uiso   1.00
C1059  C     0.04952   0.45614   0.69028   0.00000  Uiso   1.00
C1060  C     0.28382   0.54386   0.97639   0.00000  Uiso   1.00
C1061  C     0.16670   0.57911   0.83342   0.00000  Uiso   1.00
C1062  C     0.06792   0.49997   0.82121   0.00000  Uiso   1.00
C1063  C     0.26542   0.50003   0.84545   0.00000  Uiso   1.00
C1064  C     0.01258   0.50000   0.81458   0.00000  Uiso   1.00
C1065  C     0.32076   0.50000   0.85209   0.00000  Uiso   1.00
C1066  C     0.20889   0.35493   0.81897   0.00000  Uiso   1.00
C1067  C     0.12445   0.64507   0.84770   0.00000  Uiso   1.00
C1068  C     0.20895   0.64533   0.81917   0.00000  Uiso   1.00
Cu1069 Cu    0.16667   0.50001   0.88022   0.00000  Uiso   1.00
Cu1070 Cu    0.16667   0.49999   0.78645   0.00000  Uiso   1.00
H1071  H     0.32580   0.50006   0.77865   0.00000  Uiso   1.00
H1072  H     0.04072   0.48975   0.69142   0.00000  Uiso   1.00
H1073  H     0.02501   0.44023   0.71334   0.00000  Uiso   1.00
H1074  H     0.29261   0.51024   0.97524   0.00000  Uiso   1.00
H1075  H     0.29463   0.55635   0.67931   0.00000  Uiso   1.00
H1076  H     0.30833   0.55976   0.95332   0.00000  Uiso   1.00
H1077  H     0.00753   0.49994   0.88802   0.00000  Uiso   1.00
H1078  H     0.10917   0.45384   0.94826   0.00000  Uiso   1.00
H1079  H     0.22417   0.54616   0.71841   0.00000  Uiso   1.00
H1080  H     0.25290   0.40391   0.81563   0.00000  Uiso   1.00
H1081  H     0.08043   0.59609   0.85104   0.00000  Uiso   1.00
H1082  H     0.25318   0.59679   0.81639   0.00000  Uiso   1.00
H1083  H     0.08015   0.40321   0.85027   0.00000  Uiso   1.00
H1084  H     0.03871   0.44364   0.98735   0.00000  Uiso   1.00
N1085  N     0.16668   0.50001   0.95069   0.00000  Uiso   1.00
N1086  N     0.16665   0.49999   0.71597   0.00000  Uiso   1.00
O1087  O     0.16666   0.43989   0.87291   0.00000  Uiso   1.00
O1088  O     0.08150   0.62546   0.86076   0.00000  Uiso   1.00
O1089  O     0.25193   0.62597   0.80623   0.00000  Uiso   1.00
O1090  O     0.08140   0.37403   0.86044   0.00000  Uiso   1.00
O1091  O     0.10170   0.44795   0.70739   0.00000  Uiso   1.00
O1092  O     0.23163   0.55205   0.95927   0.00000  Uiso   1.00
O1093  O     0.16667   0.56011   0.79375   0.00000  Uiso   1.00
O1094  O     0.16666   0.43988   0.79372   0.00000  Uiso   1.00
O1095  O     0.16667   0.56012   0.87294   0.00000  Uiso   1.00
O1096  O     0.09161   0.50000   0.86379   0.00000  Uiso   1.00
O1097  O     0.24172   0.50000   0.80288   0.00000  Uiso   1.00
O1098  O     0.09161   0.49999   0.78460   0.00000  Uiso   1.00
O1099  O     0.24172   0.50001   0.88207   0.00000  Uiso   1.00
O1100  O     0.25184   0.37454   0.80591   0.00000  Uiso   1.00
C1101  C     0.49997   0.42089   0.83325   0.00000  Uiso   1.00
C1102  C     0.45771   0.35467   0.84750   0.00000  Uiso   1.00
C1103  C     0.50007   0.62369   0.83353   0.00000  Uiso   1.00
C1104  C     0.49993   0.37631   0.83314   0.00000  Uiso   1.00
C1105  C     0.46669   0.47491   0.68714   0.00000  Uiso   1.00
C1106  C     0.53331   0.52509   0.97952   0.00000  Uiso   1.00
C1107  C     0.46752   0.47464   0.97075   0.00000  Uiso   1.00
C1108  C     0.53248   0.52536   0.69592   0.00000  Uiso   1.00
C1109  C     0.38285   0.45614   0.69028   0.00000  Uiso   1.00
C1110  C     0.61715   0.54386   0.97639   0.00000  Uiso   1.00
C1111  C     0.50003   0.57911   0.83342   0.00000  Uiso   1.00
C1112  C     0.40125   0.49997   0.82121   0.00000  Uiso   1.00
C1113  C     0.59875   0.50003   0.84545   0.00000  Uiso   1.00
C1114  C     0.34591   0.50000   0.81458   0.00000  Uiso   1.00
C1115  C     0.65409   0.50000   0.85209   0.00000  Uiso   1.00
C1116  C     0.54222   0.35493   0.81897   0.00000  Uiso   1.00
C1117  C     0.45778   0.64507   0.84770   0.00000  Uiso   1.00
C1118  C     0.54229   0.64533   0.81917   0.00000  Uiso   1.00
Cu1119 Cu    0.50000   0.50001   0.88022   0.00000  Uiso   1.00
Cu1120 Cu    0.50000   0.49999   0.78645   0.00000  Uiso   1.00
H1121  H     0.65913   0.50006   0.77865   0.00000  Uiso   1.00
H1122  H     0.37405   0.48975   0.69142   0.00000  Uiso   1.00
H1123  H     0.35834   0.44023   0.71334   0.00000  Uiso   1.00
H1124  H     0.62594   0.51024   0.97524   0.00000  Uiso   1.00
H1125  H     0.62796   0.55635   0.67931   0.00000  Uiso   1.00
H1126  H     0.64166   0.55976   0.95332   0.00000  Uiso   1.00
H1127  H     0.34087   0.49994   0.88802   0.00000  Uiso   1.00
H1128  H     0.44250   0.45384   0.94826   0.00000  Uiso   1.00
H1129  H     0.55750   0.54616   0.71841   0.00000  Uiso   1.00
H1130  H     0.58624   0.40391   0.81563   0.00000  Uiso   1.00
H1131  H     0.41376   0.59609   0.85104   0.00000  Uiso   1.00
H1132  H     0.58652   0.59679   0.81639   0.00000  Uiso   1.00
H1133  H     0.41348   0.40321   0.85027   0.00000  Uiso   1.00
H1134  H     0.37204   0.44364   0.98735   0.00000  Uiso   1.00
N1135  N     0.50001   0.50001   0.95069   0.00000  Uiso   1.00
N1136  N     0.49999   0.49999   0.71597   0.00000  Uiso   1.00
O1137  O     0.50000   0.43989   0.87291   0.00000  Uiso   1.00
O1138  O     0.41483   0.62546   0.86076   0.00000  Uiso   1.00
O1139  O     0.58527   0.62597   0.80623   0.00000  Uiso   1.00
O1140  O     0.41473   0.37403   0.86044   0.00000  Uiso   1.00
O1141  O     0.43503   0.44795   0.70739   0.00000  Uiso   1.00
O1142  O     0.56497   0.55205   0.95927   0.00000  Uiso   1.00
O1143  O     0.50000   0.56011   0.79375   0.00000  Uiso   1.00
O1144  O     0.50000   0.43988   0.79372   0.00000  Uiso   1.00
O1145  O     0.50000   0.56012   0.87294   0.00000  Uiso   1.00
O1146  O     0.42495   0.50000   0.86379   0.00000  Uiso   1.00
O1147  O     0.57505   0.50000   0.80288   0.00000  Uiso   1.00
O1148  O     0.42494   0.49999   0.78460   0.00000  Uiso   1.00
O1149  O     0.57506   0.50001   0.88207   0.00000  Uiso   1.00
O1150  O     0.58517   0.37454   0.80591   0.00000  Uiso   1.00
C1151  C     0.83331   0.42089   0.83325   0.00000  Uiso   1.00
C1152  C     0.79105   0.35467   0.84750   0.00000  Uiso   1.00
C1153  C     0.83341   0.62369   0.83353   0.00000  Uiso   1.00
C1154  C     0.83326   0.37631   0.83314   0.00000  Uiso   1.00
C1155  C     0.80003   0.47491   0.68714   0.00000  Uiso   1.00
C1156  C     0.86664   0.52509   0.97952   0.00000  Uiso   1.00
C1157  C     0.80085   0.47464   0.97075   0.00000  Uiso   1.00
C1158  C     0.86581   0.52536   0.69592   0.00000  Uiso   1.00
C1159  C     0.71619   0.45614   0.69028   0.00000  Uiso   1.00
C1160  C     0.95048   0.54386   0.97639   0.00000  Uiso   1.00
C1161  C     0.83336   0.57911   0.83342   0.00000  Uiso   1.00
C1162  C     0.73458   0.49997   0.82121   0.00000  Uiso   1.00
C1163  C     0.93209   0.50003   0.84545   0.00000  Uiso   1.00
C1164  C     0.67924   0.50000   0.81458   0.00000  Uiso   1.00
C1165  C     0.98742   0.50000   0.85209   0.00000  Uiso   1.00
C1166  C     0.87555   0.35493   0.81897   0.00000  Uiso   1.00
C1167  C     0.79112   0.64507   0.84770   0.00000  Uiso   1.00
C1168  C     0.87562   0.64533   0.81917   0.00000  Uiso   1.00
Cu1169 Cu    0.83333   0.50001   0.88022   0.00000  Uiso   1.00
Cu1170 Cu    0.83333   0.49999   0.78645   0.00000  Uiso   1.00
H1171  H     0.99247   0.50006   0.77865   0.00000  Uiso   1.00
H1172  H     0.70739   0.48975   0.69142   0.00000  Uiso   1.00
H1173  H     0.69167   0.44023   0.71334   0.00000  Uiso   1.00
H1174  H     0.95928   0.51024   0.97524   0.00000  Uiso   1.00
H1175  H     0.96130   0.55635   0.67931   0.00000  Uiso   1.00
H1176  H     0.97500   0.55976   0.95332   0.00000  Uiso   1.00
H1177  H     0.67420   0.49994   0.88802   0.00000  Uiso   1.00
H1178  H     0.77583   0.45384   0.94826   0.00000  Uiso   1.00
H1179  H     0.89083   0.54616   0.71841   0.00000  Uiso   1.00
H1180  H     0.91957   0.40391   0.81563   0.00000  Uiso   1.00
H1181  H     0.74710   0.59609   0.85104   0.00000  Uiso   1.00
H1182  H     0.91985   0.59679   0.81639   0.00000  Uiso   1.00
H1183  H     0.74682   0.40321   0.85027   0.00000  Uiso   1.00
H1184  H     0.70538   0.44364   0.98735   0.00000  Uiso   1.00
N1185  N     0.83335   0.50001   0.95069   0.00000  Uiso   1.00
N1186  N     0.83332   0.49999   0.71597   0.00000  Uiso   1.00
O1187  O     0.83333   0.43989   0.87291   0.00000  Uiso   1.00
O1188  O     0.74816   0.62546   0.86076   0.00000  Uiso   1.00
O1189  O     0.91860   0.62597   0.80623   0.00000  Uiso   1.00
O1190  O     0.74807   0.37403   0.86044   0.00000  Uiso   1.00
O1191  O     0.76837   0.44795   0.70739   0.00000  Uiso   1.00
O1192  O     0.89830   0.55205   0.95927   0.00000  Uiso   1.00
O1193  O     0.83334   0.56011   0.79375   0.00000  Uiso   1.00
O1194  O     0.83333   0.43988   0.79372   0.00000  Uiso   1.00
O1195  O     0.83334   0.56012   0.87294   0.00000  Uiso   1.00
O1196  O     0.75828   0.50000   0.86379   0.00000  Uiso   1.00
O1197  O     0.90839   0.50000   0.80288   0.00000  Uiso   1.00
O1198  O     0.75828   0.49999   0.78460   0.00000  Uiso   1.00
O1199  O     0.90839   0.50001   0.88207   0.00000  Uiso   1.00
O1200  O     0.91851   0.37454   0.80591   0.00000  Uiso   1.00
C1201  C     0.16664   0.75422   0.83325   0.00000  Uiso   1.00
C1202  C     0.12438   0.68801   0.84750   0.00000  Uiso   1.00
C1203  C     0.16674   0.95702   0.83353   0.00000  Uiso   1.00
C1204  C     0.16660   0.70964   0.83314   0.00000  Uiso   1.00
C1205  C     0.13336   0.80824   0.68714   0.00000  Uiso   1.00
C1206  C     0.19997   0.85842   0.97952   0.00000  Uiso   1.00
C1207  C     0.13419   0.80797   0.97075   0.00000  Uiso   1.00
C1208  C     0.19915   0.85869   0.69592   0.00000  Uiso   1.00
C1209  C     0.04952   0.78947   0.69028   0.00000  Uiso   1.00
C1210  C     0.28382   0.87719   0.97639   0.00000  Uiso   1.00
C1211  C     0.16670   0.91245   0.83342   0.00000  Uiso   1.00
C1212  C     0.06792   0.83330   0.82121   0.00000  Uiso   1.00
C1213  C     0.26542   0.83336   0.84545   0.00000  Uiso   1.00
C1214  C     0.01258   0.83334   0.81458   0.00000  Uiso   1.00
C1215  C     0.32076   0.83333   0.85209   0.00000  Uiso   1.00
C1216  C     0.20889   0.68826   0.81897   0.00000  Uiso   1.00
C1217  C     0.12445   0.97840   0.84770   0.00000  Uiso   1.00
C1218  C     0.20895   0.97866   0.81917   0.00000  Uiso   1.00
Cu1219 Cu    0.16667   0.83334   0.88022   0.00000  Uiso   1.00
Cu1220 Cu    0.16667   0.83333   0.78645   0.00000  Uiso   1.00
H1221  H     0.32580   0.83340   0.77865   0.00000  Uiso   1.00
H1222  H     0.04072   0.82308   0.69142   0.00000  Uiso   1.00
H1223  H     0.02501   0.77357   0.71334   0.00000  Uiso   1.00
H1224  H     0.29261   0.84358   0.97524   0.00000  Uiso   1.00
H1225  H     0.29463   0.88968   0.67931   0.00000  Uiso   1.00
H1226  H     0.30833   0.89309   0.95332   0.00000  Uiso   1.00
H1227  H     0.00753   0.83327   0.88802   0.00000  Uiso   1.00
H1228  H     0.10917   0.78718   0.94826   0.00000  Uiso   1.00
H1229  H     0.22417   0.87949   0.71841   0.00000  Uiso   1.00
H1230  H     0.25290   0.73724   0.81563   0.00000  Uiso   1.00
H1231  H     0.08043   0.92943   0.85104   0.00000  Uiso   1.00
H1232  H     0.25318   0.93012   0.81639   0.00000  Uiso   1.00
H1233  H     0.08015   0.73654   0.85027   0.00000  Uiso   1.00
H1234  H     0.03871   0.77697   0.98735   0.00000  Uiso   1.00
N1235  N     0.16668   0.83334   0.95069   0.00000  Uiso   1.00
N1236  N     0.16665   0.83332   0.71597   0.00000  Uiso   1.00
O1237  O     0.16666   0.77322   0.87291   0.00000  Uiso   1.00
O1238  O     0.08150   0.95879   0.86076   0.00000  Uiso   1.00
O1239  O     0.25193   0.95930   0.80623   0.00000  Uiso   1.00
O1240  O     0.08140   0.70737   0.86044   0.00000  Uiso   1.00
O1241  O     0.10170   0.78128   0.70739   0.00000  Uiso   1.00
O1242  O     0.23163   0.88538   0.95927   0.00000  Uiso   1.00
O1243  O     0.16667   0.89345   0.79375   0.00000  Uiso   1.00
O1244  O     0.16666   0.77321   0.79372   0.00000  Uiso   1.00
O1245  O     0.16667   0.89346   0.87294   0.00000  Uiso   1.00
O1246  O     0.09161   0.83334   0.86379   0.00000  Uiso   1.00
O1247  O     0.24172   0.83333   0.80288   0.00000  Uiso   1.00
O1248  O     0.09161   0.83333   0.78460   0.00000  Uiso   1.00
O1249  O     0.24172   0.83334   0.88207   0.00000  Uiso   1.00
O1250  O     0.25184   0.70788   0.80591   0.00000  Uiso   1.00
C1251  C     0.49997   0.75422   0.83325   0.00000  Uiso   1.00
C1252  C     0.45771   0.68801   0.84750   0.00000  Uiso   1.00
C1253  C     0.50007   0.95702   0.83353   0.00000  Uiso   1.00
C1254  C     0.49993   0.70964   0.83314   0.00000  Uiso   1.00
C1255  C     0.46669   0.80824   0.68714   0.00000  Uiso   1.00
C1256  C     0.53331   0.85842   0.97952   0.00000  Uiso   1.00
C1257  C     0.46752   0.80797   0.97075   0.00000  Uiso   1.00
C1258  C     0.53248   0.85869   0.69592   0.00000  Uiso   1.00
C1259  C     0.38285   0.78947   0.69028   0.00000  Uiso   1.00
C1260  C     0.61715   0.87719   0.97639   0.00000  Uiso   1.00
C1261  C     0.50003   0.91245   0.83342   0.00000  Uiso   1.00
C1262  C     0.40125   0.83330   0.82121   0.00000  Uiso   1.00
C1263  C     0.59875   0.83336   0.84545   0.00000  Uiso   1.00
C1264  C     0.34591   0.83334   0.81458   0.00000  Uiso   1.00
C1265  C     0.65409   0.83333   0.85209   0.00000  Uiso   1.00
C1266  C     0.54222   0.68826   0.81897   0.00000  Uiso   1.00
C1267  C     0.45778   0.97840   0.84770   0.00000  Uiso   1.00
C1268  C     0.54229   0.97866   0.81917   0.00000  Uiso   1.00
Cu1269 Cu    0.50000   0.83334   0.88022   0.00000  Uiso   1.00
Cu1270 Cu    0.50000   0.83333   0.78645   0.00000  Uiso   1.00
H1271  H     0.65913   0.83340   0.77865   0.00000  Uiso   1.00
H1272  H     0.37405   0.82308   0.69142   0.00000  Uiso   1.00
H1273  H     0.35834   0.77357   0.71334   0.00000  Uiso   1.00
H1274  H     0.62594   0.84358   0.97524   0.00000  Uiso   1.00
H1275  H     0.62796   0.88968   0.67931   0.00000  Uiso   1.00
H1276  H     0.64166   0.89309   0.95332   0.00000  Uiso   1.00
H1277  H     0.34087   0.83327   0.88802   0.00000  Uiso   1.00
H1278  H     0.44250   0.78718   0.94826   0.00000  Uiso   1.00
H1279  H     0.55750   0.87949   0.71841   0.00000  Uiso   1.00
H1280  H     0.58624   0.73724   0.81563   0.00000  Uiso   1.00
H1281  H     0.41376   0.92943   0.85104   0.00000  Uiso   1.00
H1282  H     0.58652   0.93012   0.81639   0.00000  Uiso   1.00
H1283  H     0.41348   0.73654   0.85027   0.00000  Uiso   1.00
H1284  H     0.37204   0.77697   0.98735   0.00000  Uiso   1.00
N1285  N     0.50001   0.83334   0.95069   0.00000  Uiso   1.00
N1286  N     0.49999   0.83332   0.71597   0.00000  Uiso   1.00
O1287  O     0.50000   0.77322   0.87291   0.00000  Uiso   1.00
O1288  O     0.41483   0.95879   0.86076   0.00000  Uiso   1.00
O1289  O     0.58527   0.95930   0.80623   0.00000  Uiso   1.00
O1290  O     0.41473   0.70737   0.86044   0.00000  Uiso   1.00
O1291  O     0.43503   0.78128   0.70739   0.00000  Uiso   1.00
O1292  O     0.56497   0.88538   0.95927   0.00000  Uiso   1.00
O1293  O     0.50000   0.89345   0.79375   0.00000  Uiso   1.00
O1294  O     0.50000   0.77321   0.79372   0.00000  Uiso   1.00
O1295  O     0.50000   0.89346   0.87294   0.00000  Uiso   1.00
O1296  O     0.42495   0.83334   0.86379   0.00000  Uiso   1.00
O1297  O     0.57505   0.83333   0.80288   0.00000  Uiso   1.00
O1298  O     0.42494   0.83333   0.78460   0.00000  Uiso   1.00
O1299  O     0.57506   0.83334   0.88207   0.00000  Uiso   1.00
O1300  O     0.58517   0.70788   0.80591   0.00000  Uiso   1.00
C1301  C     0.83331   0.75422   0.83325   0.00000  Uiso   1.00
C1302  C     0.79105   0.68801   0.84750   0.00000  Uiso   1.00
C1303  C     0.83341   0.95702   0.83353   0.00000  Uiso   1.00
C1304  C     0.83326   0.70964   0.83314   0.00000  Uiso   1.00
C1305  C     0.80003   0.80824   0.68714   0.00000  Uiso   1.00
C1306  C     0.86664   0.85842   0.97952   0.00000  Uiso   1.00
C1307  C     0.80085   0.80797   0.97075   0.00000  Uiso   1.00
C1308  C     0.86581   0.85869   0.69592   0.00000  Uiso   1.00
C1309  C     0.71619   0.78947   0.69028   0.00000  Uiso   1.00
C1310  C     0.95048   0.87719   0.97639   0.00000  Uiso   1.00
C1311  C     0.83336   0.91245   0.83342   0.00000  Uiso   1.00
C1312  C     0.73458   0.83330   0.82121   0.00000  Uiso   1.00
C1313  C     0.93209   0.83336   0.84545   0.00000  Uiso   1.00
C1314  C     0.67924   0.83334   0.81458   0.00000  Uiso   1.00
C1315  C     0.98742   0.83333   0.85209   0.00000  Uiso   1.00
C1316  C     0.87555   0.68826   0.81897   0.00000  Uiso   1.00
C1317  C     0.79112   0.97840   0.84770   0.00000  Uiso   1.00
C1318  C     0.87562   0.97866   0.81917   0.00000  Uiso   1.00
Cu1319 Cu    0.83333   0.83334   0.88022   0.00000  Uiso   1.00
Cu1320 Cu    0.83333   0.83333   0.78645   0.00000  Uiso   1.00
H1321  H     0.99247   0.83340   0.77865   0.00000  Uiso   1.00
H1322  H     0.70739   0.82308   0.69142   0.00000  Uiso   1.00
H1323  H     0.69167   0.77357   0.71334   0.00000  Uiso   1.00
H1324  H     0.95928   0.84358   0.97524   0.00000  Uiso   1.00
H1325  H     0.96130   0.88968   0.67931   0.00000  Uiso   1.00
H1326  H     0.97500   0.89309   0.95332   0.00000  Uiso   1.00
H1327  H     0.67420   0.83327   0.88802   0.00000  Uiso   1.00
H1328  H     0.77583   0.78718   0.94826   0.00000  Uiso   1.00
H1329  H     0.89083   0.87949   0.71841   0.00000  Uiso   1.00
H1330  H     0.91957   0.73724   0.81563   0.00000  Uiso   1.00
H1331  H     0.74710   0.92943   0.85104   0.00000  Uiso   1.00
H1332  H     0.91985   0.93012   0.81639   0.00000  Uiso   1.00
H1333  H     0.74682   0.73654   0.85027   0.00000  Uiso   1.00
H1334  H     0.70538   0.77697   0.98735   0.00000  Uiso   1.00
N1335  N     0.83335   0.83334   0.95069   0.00000  Uiso   1.00
N1336  N     0.83332   0.83332   0.71597   0.00000  Uiso   1.00
O1337  O     0.83333   0.77322   0.87291   0.00000  Uiso   1.00
O1338  O     0.74816   0.95879   0.86076   0.00000  Uiso   1.00
O1339  O     0.91860   0.95930   0.80623   0.00000  Uiso   1.00
O1340  O     0.74807   0.70737   0.86044   0.00000  Uiso   1.00
O1341  O     0.76837   0.78128   0.70739   0.00000  Uiso   1.00
O1342  O     0.89830   0.88538   0.95927   0.00000  Uiso   1.00
O1343  O     0.83334   0.89345   0.79375   0.00000  Uiso   1.00
O1344  O     0.83333   0.77321   0.79372   0.00000  Uiso   1.00
O1345  O     0.83334   0.89346   0.87294   0.00000  Uiso   1.00
O1346  O     0.75828   0.83334   0.86379   0.00000  Uiso   1.00
O1347  O     0.90839   0.83333   0.80288   0.00000  Uiso   1.00
O1348  O     0.75828   0.83333   0.78460   0.00000  Uiso   1.00
O1349  O     0.90839   0.83334   0.88207   0.00000  Uiso   1.00
O1350  O     0.91851   0.70788   0.80591   0.00000  Uiso   1.00
loop_
_geom_bond_atom_site_label_1
_geom_bond_atom_site_label_2
_geom_bond_distance
_geom_bond_site_symmetry_2
_ccdc_geom_bond_type
C1     O44     1.290   .     A
C1     O37     1.289   .     A
C1     C4      1.442   .     S
C2     C4      1.415   .     A
C2     O40     1.386   .     S
C2     C317    1.389   1_545 S
C3     C17     1.415   .     A
C3     C11     1.442   .     S
C3     C18     1.415   .     A
C4     C16     1.415   .     A
C5     N36     1.372   .     A
C5     O41     1.384   .     S
C5     C907    1.427   1_554 S
C6     O42     1.384   .     S
C6     N35     1.372   .     A
C6     C458    1.427   .     S
C7     N35     1.364   .     A
C7     H28     1.081   .     S
C7     C455    1.427   .     S
C8     H29     1.081   .     S
C8     N36     1.364   .     A
C8     C906    1.427   1_554 S
C9     O41     1.412   .     S
C9     H22     1.114   .     S
C9     H23     1.109   .     S
C9     H934    1.111   1_554 S
C10    O42     1.412   .     S
C10    H26     1.109   .     S
C10    H24     1.114   .     S
C10    H475    1.111   .     S
C11    O43     1.289   .     A
C11    O45     1.290   .     A
C12    O48     1.291   .     A
C12    O46     1.287   .     A
C12    C14     1.434   .     S
C13    O49     1.291   .     A
C13    C15     1.434   .     S
C13    O47     1.287   .     A
C14    C115    1.336   1_455 S
C14    H121    1.087   1_455 S
C15    C64     1.336   .     S
C15    H77     1.087   .     S
C16    O50     1.385   .     S
C16    C318    1.389   1_545 S
C17    O38     1.385   .     S
C17    C152    1.389   .     S
C18    O39     1.386   .     S
C18    C166    1.389   .     S
Cu19   O45     1.957   .     S
Cu19   O49     1.958   .     S
Cu19   Cu20    2.685   .     S
Cu19   O46     1.955   .     S
Cu19   N35     2.018   .     S
Cu19   O37     1.956   .     S
Cu20   O48     1.958   .     S
Cu20   O44     1.957   .     S
Cu20   O47     1.955   .     S
Cu20   O43     1.956   .     S
Cu20   N36     2.018   .     S
H21    C64     1.087   .     S
H25    C910    1.111   1_554 S
H27    C115    1.087   1_455 S
H30    O50     0.988   .     S
H31    O38     0.988   .     S
H32    O39     0.988   .     S
H33    O40     0.988   .     S
H34    C459    1.111   .     S
C51    O94     1.290   .     A
C51    O87     1.289   .     A
C51    C54     1.442   .     S
C52    C54     1.415   .     A
C52    O90     1.386   .     S
C52    C367    1.389   1_545 S
C53    C67     1.415   .     A
C53    C61     1.442   .     S
C53    C68     1.415   .     A
C54    C66     1.415   .     A
C55    N86     1.372   .     A
C55    O91     1.384   .     S
C55    C957    1.427   1_554 S
C56    O92     1.384   .     S
C56    N85     1.372   .     A
C56    C508    1.427   .     S
C57    N85     1.364   .     A
C57    H78     1.081   .     S
C57    C505    1.427   .     S
C58    H79     1.081   .     S
C58    N86     1.364   .     A
C58    C956    1.427   1_554 S
C59    O91     1.412   .     S
C59    H72     1.114   .     S
C59    H73     1.109   .     S
C59    H984    1.111   1_554 S
C60    O92     1.412   .     S
C60    H76     1.109   .     S
C60    H74     1.114   .     S
C60    H525    1.111   .     S
C61    O93     1.289   .     A
C61    O95     1.290   .     A
C62    O98     1.291   .     A
C62    O96     1.287   .     A
C62    C64     1.434   .     S
C63    O99     1.291   .     A
C63    C65     1.434   .     S
C63    O97     1.287   .     A
C65    C114    1.336   .     S
C65    H127    1.087   .     S
C66    O100    1.385   .     S
C66    C368    1.389   1_545 S
C67    O88     1.385   .     S
C67    C202    1.389   .     S
C68    O89     1.386   .     S
C68    C216    1.389   .     S
Cu69   O95     1.957   .     S
Cu69   O99     1.958   .     S
Cu69   Cu70    2.685   .     S
Cu69   O96     1.955   .     S
Cu69   N85     2.018   .     S
Cu69   O87     1.956   .     S
Cu70   O98     1.958   .     S
Cu70   O94     1.957   .     S
Cu70   O97     1.955   .     S
Cu70   O93     1.956   .     S
Cu70   N86     2.018   .     S
H71    C114    1.087   .     S
H75    C960    1.111   1_554 S
H80    O100    0.988   .     S
H81    O88     0.988   .     S
H82    O89     0.988   .     S
H83    O90     0.988   .     S
H84    C509    1.111   .     S
C101   O144    1.290   .     A
C101   O137    1.289   .     A
C101   C104    1.442   .     S
C102   C104    1.415   .     A
C102   O140    1.386   .     S
C102   C417    1.389   1_545 S
C103   C117    1.415   .     A
C103   C111    1.442   .     S
C103   C118    1.415   .     A
C104   C116    1.415   .     A
C105   N136    1.372   .     A
C105   O141    1.384   .     S
C105   C1007   1.427   1_554 S
C106   O142    1.384   .     S
C106   N135    1.372   .     A
C106   C558    1.427   .     S
C107   N135    1.364   .     A
C107   H128    1.081   .     S
C107   C555    1.427   .     S
C108   H129    1.081   .     S
C108   N136    1.364   .     A
C108   C1006   1.427   1_554 S
C109   O141    1.412   .     S
C109   H122    1.114   .     S
C109   H123    1.109   .     S
C109   H1034   1.111   1_554 S
C110   O142    1.412   .     S
C110   H126    1.109   .     S
C110   H124    1.114   .     S
C110   H575    1.111   .     S
C111   O143    1.289   .     A
C111   O145    1.290   .     A
C112   O148    1.291   .     A
C112   O146    1.287   .     A
C112   C114    1.434   .     S
C113   O149    1.291   .     A
C113   C115    1.434   .     S
C113   O147    1.287   .     A
C115   C14     1.336   1_655 S
C115   H27     1.087   1_655 S
C116   O150    1.385   .     S
C116   C418    1.389   1_545 S
C117   O138    1.385   .     S
C117   C252    1.389   .     S
C118   O139    1.386   .     S
C118   C266    1.389   .     S
Cu119  O145    1.957   .     S
Cu119  O149    1.958   .     S
Cu119  Cu120   2.685   .     S
Cu119  O146    1.955   .     S
Cu119  N135    2.018   .     S
Cu119  O137    1.956   .     S
Cu120  O148    1.958   .     S
Cu120  O144    1.957   .     S
Cu120  O147    1.955   .     S
Cu120  O143    1.956   .     S
Cu120  N136    2.018   .     S
H121   C14     1.087   1_655 S
H125   C1010   1.111   1_554 S
H130   O150    0.988   .     S
H131   O138    0.988   .     S
H132   O139    0.988   .     S
H133   O140    0.988   .     S
H134   C559    1.111   .     S
C151   O194    1.290   .     A
C151   O187    1.289   .     A
C151   C154    1.442   .     S
C152   C154    1.415   .     A
C152   O190    1.386   .     S
C153   C167    1.415   .     A
C153   C161    1.442   .     S
C153   C168    1.415   .     A
C154   C166    1.415   .     A
C155   N186    1.372   .     A
C155   O191    1.384   .     S
C155   C1057   1.427   1_554 S
C156   O192    1.384   .     S
C156   N185    1.372   .     A
C156   C608    1.427   .     S
C157   N185    1.364   .     A
C157   H178    1.081   .     S
C157   C605    1.427   .     S
C158   H179    1.081   .     S
C158   N186    1.364   .     A
C158   C1056   1.427   1_554 S
C159   O191    1.412   .     S
C159   H172    1.114   .     S
C159   H173    1.109   .     S
C159   H1084   1.111   1_554 S
C160   O192    1.412   .     S
C160   H176    1.109   .     S
C160   H174    1.114   .     S
C160   H625    1.111   .     S
C161   O193    1.289   .     A
C161   O195    1.290   .     A
C162   O198    1.291   .     A
C162   O196    1.287   .     A
C162   C164    1.434   .     S
C163   O199    1.291   .     A
C163   C165    1.434   .     S
C163   O197    1.287   .     A
C164   C265    1.336   1_455 S
C164   H271    1.087   1_455 S
C165   C214    1.336   .     S
C165   H227    1.087   .     S
C166   O200    1.385   .     S
C167   O188    1.385   .     S
C167   C302    1.389   .     S
C168   O189    1.386   .     S
C168   C316    1.389   .     S
Cu169  O195    1.957   .     S
Cu169  O199    1.958   .     S
Cu169  Cu170   2.685   .     S
Cu169  O196    1.955   .     S
Cu169  N185    2.018   .     S
Cu169  O187    1.956   .     S
Cu170  O198    1.958   .     S
Cu170  O194    1.957   .     S
Cu170  O197    1.955   .     S
Cu170  O193    1.956   .     S
Cu170  N186    2.018   .     S
H171   C214    1.087   .     S
H175   C1060   1.111   1_554 S
H177   C265    1.087   1_455 S
H180   O200    0.988   .     S
H181   O188    0.988   .     S
H182   O189    0.988   .     S
H183   O190    0.988   .     S
H184   C609    1.111   .     S
C201   O244    1.290   .     A
C201   O237    1.289   .     A
C201   C204    1.442   .     S
C202   C204    1.415   .     A
C202   O240    1.386   .     S
C203   C217    1.415   .     A
C203   C211    1.442   .     S
C203   C218    1.415   .     A
C204   C216    1.415   .     A
C205   N236    1.372   .     A
C205   O241    1.384   .     S
C205   C1107   1.427   1_554 S
C206   O242    1.384   .     S
C206   N235    1.372   .     A
C206   C658    1.427   .     S
C207   N235    1.364   .     A
C207   H228    1.081   .     S
C207   C655    1.427   .     S
C208   H229    1.081   .     S
C208   N236    1.364   .     A
C208   C1106   1.427   1_554 S
C209   O241    1.412   .     S
C209   H222    1.114   .     S
C209   H223    1.109   .     S
C209   H1134   1.111   1_554 S
C210   O242    1.412   .     S
C210   H226    1.109   .     S
C210   H224    1.114   .     S
C210   H675    1.111   .     S
C211   O243    1.289   .     A
C211   O245    1.290   .     A
C212   O248    1.291   .     A
C212   O246    1.287   .     A
C212   C214    1.434   .     S
C213   O249    1.291   .     A
C213   C215    1.434   .     S
C213   O247    1.287   .     A
C215   C264    1.336   .     S
C215   H277    1.087   .     S
C216   O250    1.385   .     S
C217   O238    1.385   .     S
C217   C352    1.389   .     S
C218   O239    1.386   .     S
C218   C366    1.389   .     S
Cu219  O245    1.957   .     S
Cu219  O249    1.958   .     S
Cu219  Cu220   2.685   .     S
Cu219  O246    1.955   .     S
Cu219  N235    2.018   .     S
Cu219  O237    1.956   .     S
Cu220  O248    1.958   .     S
Cu220  O244    1.957   .     S
Cu220  O247    1.955   .     S
Cu220  O243    1.956   .     S
Cu220  N236    2.018   .     S
H221   C264    1.087   .     S
H225   C1110   1.111   1_554 S
H230   O250    0.988   .     S
H231   O238    0.988   .     S
H232   O239    0.988   .     S
H233   O240    0.988   .     S
H234   C659    1.111   .     S
C251   O294    1.290   .     A
C251   O287    1.289   .     A
C251   C254    1.442   .     S
C252   C254    1.415   .     A
C252   O290    1.386   .     S
C253   C267    1.415   .     A
C253   C261    1.442   .     S
C253   C268    1.415   .     A
C254   C266    1.415   .     A
C255   N286    1.372   .     A
C255   O291    1.384   .     S
C255   C1157   1.427   1_554 S
C256   O292    1.384   .     S
C256   N285    1.372   .     A
C256   C708    1.427   .     S
C257   N285    1.364   .     A
C257   H278    1.081   .     S
C257   C705    1.427   .     S
C258   H279    1.081   .     S
C258   N286    1.364   .     A
C258   C1156   1.427   1_554 S
C259   O291    1.412   .     S
C259   H272    1.114   .     S
C259   H273    1.109   .     S
C259   H1184   1.111   1_554 S
C260   O292    1.412   .     S
C260   H276    1.109   .     S
C260   H274    1.114   .     S
C260   H725    1.111   .     S
C261   O293    1.289   .     A
C261   O295    1.290   .     A
C262   O298    1.291   .     A
C262   O296    1.287   .     A
C262   C264    1.434   .     S
C263   O299    1.291   .     A
C263   C265    1.434   .     S
C263   O297    1.287   .     A
C265   C164    1.336   1_655 S
C265   H177    1.087   1_655 S
C266   O300    1.385   .     S
C267   O288    1.385   .     S
C267   C402    1.389   .     S
C268   O289    1.386   .     S
C268   C416    1.389   .     S
Cu269  O295    1.957   .     S
Cu269  O299    1.958   .     S
Cu269  Cu270   2.685   .     S
Cu269  O296    1.955   .     S
Cu269  N285    2.018   .     S
Cu269  O287    1.956   .     S
Cu270  O298    1.958   .     S
Cu270  O294    1.957   .     S
Cu270  O297    1.955   .     S
Cu270  O293    1.956   .     S
Cu270  N286    2.018   .     S
H271   C164    1.087   1_655 S
H275   C1160   1.111   1_554 S
H280   O300    0.988   .     S
H281   O288    0.988   .     S
H282   O289    0.988   .     S
H283   O290    0.988   .     S
H284   C709    1.111   .     S
C301   O344    1.290   .     A
C301   O337    1.289   .     A
C301   C304    1.442   .     S
C302   C304    1.415   .     A
C302   O340    1.386   .     S
C303   C317    1.415   .     A
C303   C311    1.442   .     S
C303   C318    1.415   .     A
C304   C316    1.415   .     A
C305   N336    1.372   .     A
C305   O341    1.384   .     S
C305   C1207   1.427   1_554 S
C306   O342    1.384   .     S
C306   N335    1.372   .     A
C306   C758    1.427   .     S
C307   N335    1.364   .     A
C307   H328    1.081   .     S
C307   C755    1.427   .     S
C308   H329    1.081   .     S
C308   N336    1.364   .     A
C308   C1206   1.427   1_554 S
C309   O341    1.412   .     S
C309   H322    1.114   .     S
C309   H323    1.109   .     S
C309   H1234   1.111   1_554 S
C310   O342    1.412   .     S
C310   H326    1.109   .     S
C310   H324    1.114   .     S
C310   H775    1.111   .     S
C311   O343    1.289   .     A
C311   O345    1.290   .     A
C312   O348    1.291   .     A
C312   O346    1.287   .     A
C312   C314    1.434   .     S
C313   O349    1.291   .     A
C313   C315    1.434   .     S
C313   O347    1.287   .     A
C314   C415    1.336   1_455 S
C314   H421    1.087   1_455 S
C315   C364    1.336   .     S
C315   H377    1.087   .     S
C316   O350    1.385   .     S
C317   O338    1.385   .     S
C317   C2      1.389   1_565 S
C318   O339    1.386   .     S
C318   C16     1.389   1_565 S
Cu319  O345    1.957   .     S
Cu319  O349    1.958   .     S
Cu319  Cu320   2.685   .     S
Cu319  O346    1.955   .     S
Cu319  N335    2.018   .     S
Cu319  O337    1.956   .     S
Cu320  O348    1.958   .     S
Cu320  O344    1.957   .     S
Cu320  O347    1.955   .     S
Cu320  O343    1.956   .     S
Cu320  N336    2.018   .     S
H321   C364    1.087   .     S
H325   C1210   1.111   1_554 S
H327   C415    1.087   1_455 S
H330   O350    0.988   .     S
H331   O338    0.988   .     S
H332   O339    0.988   .     S
H333   O340    0.988   .     S
H334   C759    1.111   .     S
C351   O394    1.290   .     A
C351   O387    1.289   .     A
C351   C354    1.442   .     S
C352   C354    1.415   .     A
C352   O390    1.386   .     S
C353   C367    1.415   .     A
C353   C361    1.442   .     S
C353   C368    1.415   .     A
C354   C366    1.415   .     A
C355   N386    1.372   .     A
C355   O391    1.384   .     S
C355   C1257   1.427   1_554 S
C356   O392    1.384   .     S
C356   N385    1.372   .     A
C356   C808    1.427   .     S
C357   N385    1.364   .     A
C357   H378    1.081   .     S
C357   C805    1.427   .     S
C358   H379    1.081   .     S
C358   N386    1.364   .     A
C358   C1256   1.427   1_554 S
C359   O391    1.412   .     S
C359   H372    1.114   .     S
C359   H373    1.109   .     S
C359   H1284   1.111   1_554 S
C360   O392    1.412   .     S
C360   H376    1.109   .     S
C360   H374    1.114   .     S
C360   H825    1.111   .     S
C361   O393    1.289   .     A
C361   O395    1.290   .     A
C362   O398    1.291   .     A
C362   O396    1.287   .     A
C362   C364    1.434   .     S
C363   O399    1.291   .     A
C363   C365    1.434   .     S
C363   O397    1.287   .     A
C365   C414    1.336   .     S
C365   H427    1.087   .     S
C366   O400    1.385   .     S
C367   O388    1.385   .     S
C367   C52     1.389   1_565 S
C368   O389    1.386   .     S
C368   C66     1.389   1_565 S
Cu369  O395    1.957   .     S
Cu369  O399    1.958   .     S
Cu369  Cu370   2.685   .     S
Cu369  O396    1.955   .     S
Cu369  N385    2.018   .     S
Cu369  O387    1.956   .     S
Cu370  O398    1.958   .     S
Cu370  O394    1.957   .     S
Cu370  O397    1.955   .     S
Cu370  O393    1.956   .     S
Cu370  N386    2.018   .     S
H371   C414    1.087   .     S
H375   C1260   1.111   1_554 S
H380   O400    0.988   .     S
H381   O388    0.988   .     S
H382   O389    0.988   .     S
H383   O390    0.988   .     S
H384   C809    1.111   .     S
C401   O444    1.290   .     A
C401   O437    1.289   .     A
C401   C404    1.442   .     S
C402   C404    1.415   .     A
C402   O440    1.386   .     S
C403   C417    1.415   .     A
C403   C411    1.442   .     S
C403   C418    1.415   .     A
C404   C416    1.415   .     A
C405   N436    1.372   .     A
C405   O441    1.384   .     S
C405   C1307   1.427   1_554 S
C406   O442    1.384   .     S
C406   N435    1.372   .     A
C406   C858    1.427   .     S
C407   N435    1.364   .     A
C407   H428    1.081   .     S
C407   C855    1.427   .     S
C408   H429    1.081   .     S
C408   N436    1.364   .     A
C408   C1306   1.427   1_554 S
C409   O441    1.412   .     S
C409   H422    1.114   .     S
C409   H423    1.109   .     S
C409   H1334   1.111   1_554 S
C410   O442    1.412   .     S
C410   H426    1.109   .     S
C410   H424    1.114   .     S
C410   H875    1.111   .     S
C411   O443    1.289   .     A
C411   O445    1.290   .     A
C412   O448    1.291   .     A
C412   O446    1.287   .     A
C412   C414    1.434   .     S
C413   O449    1.291   .     A
C413   C415    1.434   .     S
C413   O447    1.287   .     A
C415   C314    1.336   1_655 S
C415   H327    1.087   1_655 S
C416   O450    1.385   .     S
C417   O438    1.385   .     S
C417   C102    1.389   1_565 S
C418   O439    1.386   .     S
C418   C116    1.389   1_565 S
Cu419  O445    1.957   .     S
Cu419  O449    1.958   .     S
Cu419  Cu420   2.685   .     S
Cu419  O446    1.955   .     S
Cu419  N435    2.018   .     S
Cu419  O437    1.956   .     S
Cu420  O448    1.958   .     S
Cu420  O444    1.957   .     S
Cu420  O447    1.955   .     S
Cu420  O443    1.956   .     S
Cu420  N436    2.018   .     S
H421   C314    1.087   1_655 S
H425   C1310   1.111   1_554 S
H430   O450    0.988   .     S
H431   O438    0.988   .     S
H432   O439    0.988   .     S
H433   O440    0.988   .     S
H434   C859    1.111   .     S
C451   O494    1.290   .     A
C451   O487    1.289   .     A
C451   C454    1.442   .     S
C452   C454    1.415   .     A
C452   O490    1.386   .     S
C452   C767    1.389   1_545 S
C453   C467    1.415   .     A
C453   C461    1.442   .     S
C453   C468    1.415   .     A
C454   C466    1.415   .     A
C455   N486    1.372   .     A
C455   O491    1.384   .     S
C456   O492    1.384   .     S
C456   N485    1.372   .     A
C456   C908    1.427   .     S
C457   N485    1.364   .     A
C457   H478    1.081   .     S
C457   C905    1.427   .     S
C458   H479    1.081   .     S
C458   N486    1.364   .     A
C459   O491    1.412   .     S
C459   H472    1.114   .     S
C459   H473    1.109   .     S
C460   O492    1.412   .     S
C460   H476    1.109   .     S
C460   H474    1.114   .     S
C460   H925    1.111   .     S
C461   O493    1.289   .     A
C461   O495    1.290   .     A
C462   O498    1.291   .     A
C462   O496    1.287   .     A
C462   C464    1.434   .     S
C463   O499    1.291   .     A
C463   C465    1.434   .     S
C463   O497    1.287   .     A
C464   C565    1.336   1_455 S
C464   H571    1.087   1_455 S
C465   C514    1.336   .     S
C465   H527    1.087   .     S
C466   O500    1.385   .     S
C466   C768    1.389   1_545 S
C467   O488    1.385   .     S
C467   C602    1.389   .     S
C468   O489    1.386   .     S
C468   C616    1.389   .     S
Cu469  O495    1.957   .     S
Cu469  O499    1.958   .     S
Cu469  Cu470   2.685   .     S
Cu469  O496    1.955   .     S
Cu469  N485    2.018   .     S
Cu469  O487    1.956   .     S
Cu470  O498    1.958   .     S
Cu470  O494    1.957   .     S
Cu470  O497    1.955   .     S
Cu470  O493    1.956   .     S
Cu470  N486    2.018   .     S
H471   C514    1.087   .     S
H477   C565    1.087   1_455 S
H480   O500    0.988   .     S
H481   O488    0.988   .     S
H482   O489    0.988   .     S
H483   O490    0.988   .     S
H484   C909    1.111   .     S
C501   O544    1.290   .     A
C501   O537    1.289   .     A
C501   C504    1.442   .     S
C502   C504    1.415   .     A
C502   O540    1.386   .     S
C502   C817    1.389   1_545 S
C503   C517    1.415   .     A
C503   C511    1.442   .     S
C503   C518    1.415   .     A
C504   C516    1.415   .     A
C505   N536    1.372   .     A
C505   O541    1.384   .     S
C506   O542    1.384   .     S
C506   N535    1.372   .     A
C506   C958    1.427   .     S
C507   N535    1.364   .     A
C507   H528    1.081   .     S
C507   C955    1.427   .     S
C508   H529    1.081   .     S
C508   N536    1.364   .     A
C509   O541    1.412   .     S
C509   H522    1.114   .     S
C509   H523    1.109   .     S
C510   O542    1.412   .     S
C510   H526    1.109   .     S
C510   H524    1.114   .     S
C510   H975    1.111   .     S
C511   O543    1.289   .     A
C511   O545    1.290   .     A
C512   O548    1.291   .     A
C512   O546    1.287   .     A
C512   C514    1.434   .     S
C513   O549    1.291   .     A
C513   C515    1.434   .     S
C513   O547    1.287   .     A
C515   C564    1.336   .     S
C515   H577    1.087   .     S
C516   O550    1.385   .     S
C516   C818    1.389   1_545 S
C517   O538    1.385   .     S
C517   C652    1.389   .     S
C518   O539    1.386   .     S
C518   C666    1.389   .     S
Cu519  O545    1.957   .     S
Cu519  O549    1.958   .     S
Cu519  Cu520   2.685   .     S
Cu519  O546    1.955   .     S
Cu519  N535    2.018   .     S
Cu519  O537    1.956   .     S
Cu520  O548    1.958   .     S
Cu520  O544    1.957   .     S
Cu520  O547    1.955   .     S
Cu520  O543    1.956   .     S
Cu520  N536    2.018   .     S
H521   C564    1.087   .     S
H530   O550    0.988   .     S
H531   O538    0.988   .     S
H532   O539    0.988   .     S
H533   O540    0.988   .     S
H534   C959    1.111   .     S
C551   O594    1.290   .     A
C551   O587    1.289   .     A
C551   C554    1.442   .     S
C552   C554    1.415   .     A
C552   O590    1.386   .     S
C552   C867    1.389   1_545 S
C553   C567    1.415   .     A
C553   C561    1.442   .     S
C553   C568    1.415   .     A
C554   C566    1.415   .     A
C555   N586    1.372   .     A
C555   O591    1.384   .     S
C556   O592    1.384   .     S
C556   N585    1.372   .     A
C556   C1008   1.427   .     S
C557   N585    1.364   .     A
C557   H578    1.081   .     S
C557   C1005   1.427   .     S
C558   H579    1.081   .     S
C558   N586    1.364   .     A
C559   O591    1.412   .     S
C559   H572    1.114   .     S
C559   H573    1.109   .     S
C560   O592    1.412   .     S
C560   H576    1.109   .     S
C560   H574    1.114   .     S
C560   H1025   1.111   .     S
C561   O593    1.289   .     A
C561   O595    1.290   .     A
C562   O598    1.291   .     A
C562   O596    1.287   .     A
C562   C564    1.434   .     S
C563   O599    1.291   .     A
C563   C565    1.434   .     S
C563   O597    1.287   .     A
C565   C464    1.336   1_655 S
C565   H477    1.087   1_655 S
C566   O600    1.385   .     S
C566   C868    1.389   1_545 S
C567   O588    1.385   .     S
C567   C702    1.389   .     S
C568   O589    1.386   .     S
C568   C716    1.389   .     S
Cu569  O595    1.957   .     S
Cu569  O599    1.958   .     S
Cu569  Cu570   2.685   .     S
Cu569  O596    1.955   .     S
Cu569  N585    2.018   .     S
Cu569  O587    1.956   .     S
Cu570  O598    1.958   .     S
Cu570  O594    1.957   .     S
Cu570  O597    1.955   .     S
Cu570  O593    1.956   .     S
Cu570  N586    2.018   .     S
H571   C464    1.087   1_655 S
H580   O600    0.988   .     S
H581   O588    0.988   .     S
H582   O589    0.988   .     S
H583   O590    0.988   .     S
H584   C1009   1.111   .     S
C601   O644    1.290   .     A
C601   O637    1.289   .     A
C601   C604    1.442   .     S
C602   C604    1.415   .     A
C602   O640    1.386   .     S
C603   C617    1.415   .     A
C603   C611    1.442   .     S
C603   C618    1.415   .     A
C604   C616    1.415   .     A
C605   N636    1.372   .     A
C605   O641    1.384   .     S
C606   O642    1.384   .     S
C606   N635    1.372   .     A
C606   C1058   1.427   .     S
C607   N635    1.364   .     A
C607   H628    1.081   .     S
C607   C1055   1.427   .     S
C608   H629    1.081   .     S
C608   N636    1.364   .     A
C609   O641    1.412   .     S
C609   H622    1.114   .     S
C609   H623    1.109   .     S
C610   O642    1.412   .     S
C610   H626    1.109   .     S
C610   H624    1.114   .     S
C610   H1075   1.111   .     S
C611   O643    1.289   .     A
C611   O645    1.290   .     A
C612   O648    1.291   .     A
C612   O646    1.287   .     A
C612   C614    1.434   .     S
C613   O649    1.291   .     A
C613   C615    1.434   .     S
C613   O647    1.287   .     A
C614   C715    1.336   1_455 S
C614   H721    1.087   1_455 S
C615   C664    1.336   .     S
C615   H677    1.087   .     S
C616   O650    1.385   .     S
C617   O638    1.385   .     S
C617   C752    1.389   .     S
C618   O639    1.386   .     S
C618   C766    1.389   .     S
Cu619  O645    1.957   .     S
Cu619  O649    1.958   .     S
Cu619  Cu620   2.685   .     S
Cu619  O646    1.955   .     S
Cu619  N635    2.018   .     S
Cu619  O637    1.956   .     S
Cu620  O648    1.958   .     S
Cu620  O644    1.957   .     S
Cu620  O647    1.955   .     S
Cu620  O643    1.956   .     S
Cu620  N636    2.018   .     S
H621   C664    1.087   .     S
H627   C715    1.087   1_455 S
H630   O650    0.988   .     S
H631   O638    0.988   .     S
H632   O639    0.988   .     S
H633   O640    0.988   .     S
H634   C1059   1.111   .     S
C651   O694    1.290   .     A
C651   O687    1.289   .     A
C651   C654    1.442   .     S
C652   C654    1.415   .     A
C652   O690    1.386   .     S
C653   C667    1.415   .     A
C653   C661    1.442   .     S
C653   C668    1.415   .     A
C654   C666    1.415   .     A
C655   N686    1.372   .     A
C655   O691    1.384   .     S
C656   O692    1.384   .     S
C656   N685    1.372   .     A
C656   C1108   1.427   .     S
C657   N685    1.364   .     A
C657   H678    1.081   .     S
C657   C1105   1.427   .     S
C658   H679    1.081   .     S
C658   N686    1.364   .     A
C659   O691    1.412   .     S
C659   H672    1.114   .     S
C659   H673    1.109   .     S
C660   O692    1.412   .     S
C660   H676    1.109   .     S
C660   H674    1.114   .     S
C660   H1125   1.111   .     S
C661   O693    1.289   .     A
C661   O695    1.290   .     A
C662   O698    1.291   .     A
C662   O696    1.287   .     A
C662   C664    1.434   .     S
C663   O699    1.291   .     A
C663   C665    1.434   .     S
C663   O697    1.287   .     A
C665   C714    1.336   .     S
C665   H727    1.087   .     S
C666   O700    1.385   .     S
C667   O688    1.385   .     S
C667   C802    1.389   .     S
C668   O689    1.386   .     S
C668   C816    1.389   .     S
Cu669  O695    1.957   .     S
Cu669  O699    1.958   .     S
Cu669  Cu670   2.685   .     S
Cu669  O696    1.955   .     S
Cu669  N685    2.018   .     S
Cu669  O687    1.956   .     S
Cu670  O698    1.958   .     S
Cu670  O694    1.957   .     S
Cu670  O697    1.955   .     S
Cu670  O693    1.956   .     S
Cu670  N686    2.018   .     S
H671   C714    1.087   .     S
H680   O700    0.988   .     S
H681   O688    0.988   .     S
H682   O689    0.988   .     S
H683   O690    0.988   .     S
H684   C1109   1.111   .     S
C701   O744    1.290   .     A
C701   O737    1.289   .     A
C701   C704    1.442   .     S
C702   C704    1.415   .     A
C702   O740    1.386   .     S
C703   C717    1.415   .     A
C703   C711    1.442   .     S
C703   C718    1.415   .     A
C704   C716    1.415   .     A
C705   N736    1.372   .     A
C705   O741    1.384   .     S
C706   O742    1.384   .     S
C706   N735    1.372   .     A
C706   C1158   1.427   .     S
C707   N735    1.364   .     A
C707   H728    1.081   .     S
C707   C1155   1.427   .     S
C708   H729    1.081   .     S
C708   N736    1.364   .     A
C709   O741    1.412   .     S
C709   H722    1.114   .     S
C709   H723    1.109   .     S
C710   O742    1.412   .     S
C710   H726    1.109   .     S
C710   H724    1.114   .     S
C710   H1175   1.111   .     S
C711   O743    1.289   .     A
C711   O745    1.290   .     A
C712   O748    1.291   .     A
C712   O746    1.287   .     A
C712   C714    1.434   .     S
C713   O749    1.291   .     A
C713   C715    1.434   .     S
C713   O747    1.287   .     A
C715   C614    1.336   1_655 S
C715   H627    1.087   1_655 S
C716   O750    1.385   .     S
C717   O738    1.385   .     S
C717   C852    1.389   .     S
C718   O739    1.386   .     S
C718   C866    1.389   .     S
Cu719  O745    1.957   .     S
Cu719  O749    1.958   .     S
Cu719  Cu720   2.685   .     S
Cu719  O746    1.955   .     S
Cu719  N735    2.018   .     S
Cu719  O737    1.956   .     S
Cu720  O748    1.958   .     S
Cu720  O744    1.957   .     S
Cu720  O747    1.955   .     S
Cu720  O743    1.956   .     S
Cu720  N736    2.018   .     S
H721   C614    1.087   1_655 S
H730   O750    0.988   .     S
H731   O738    0.988   .     S
H732   O739    0.988   .     S
H733   O740    0.988   .     S
H734   C1159   1.111   .     S
C751   O794    1.290   .     A
C751   O787    1.289   .     A
C751   C754    1.442   .     S
C752   C754    1.415   .     A
C752   O790    1.386   .     S
C753   C767    1.415   .     A
C753   C761    1.442   .     S
C753   C768    1.415   .     A
C754   C766    1.415   .     A
C755   N786    1.372   .     A
C755   O791    1.384   .     S
C756   O792    1.384   .     S
C756   N785    1.372   .     A
C756   C1208   1.427   .     S
C757   N785    1.364   .     A
C757   H778    1.081   .     S
C757   C1205   1.427   .     S
C758   H779    1.081   .     S
C758   N786    1.364   .     A
C759   O791    1.412   .     S
C759   H772    1.114   .     S
C759   H773    1.109   .     S
C760   O792    1.412   .     S
C760   H776    1.109   .     S
C760   H774    1.114   .     S
C760   H1225   1.111   .     S
C761   O793    1.289   .     A
C761   O795    1.290   .     A
C762   O798    1.291   .     A
C762   O796    1.287   .     A
C762   C764    1.434   .     S
C763   O799    1.291   .     A
C763   C765    1.434   .     S
C763   O797    1.287   .     A
C764   C865    1.336   1_455 S
C764   H871    1.087   1_455 S
C765   C814    1.336   .     S
C765   H827    1.087   .     S
C766   O800    1.385   .     S
C767   O788    1.385   .     S
C767   C452    1.389   1_565 S
C768   O789    1.386   .     S
C768   C466    1.389   1_565 S
Cu769  O795    1.957   .     S
Cu769  O799    1.958   .     S
Cu769  Cu770   2.685   .     S
Cu769  O796    1.955   .     S
Cu769  N785    2.018   .     S
Cu769  O787    1.956   .     S
Cu770  O798    1.958   .     S
Cu770  O794    1.957   .     S
Cu770  O797    1.955   .     S
Cu770  O793    1.956   .     S
Cu770  N786    2.018   .     S
H771   C814    1.087   .     S
H777   C865    1.087   1_455 S
H780   O800    0.988   .     S
H781   O788    0.988   .     S
H782   O789    0.988   .     S
H783   O790    0.988   .     S
H784   C1209   1.111   .     S
C801   O844    1.290   .     A
C801   O837    1.289   .     A
C801   C804    1.442   .     S
C802   C804    1.415   .     A
C802   O840    1.386   .     S
C803   C817    1.415   .     A
C803   C811    1.442   .     S
C803   C818    1.415   .     A
C804   C816    1.415   .     A
C805   N836    1.372   .     A
C805   O841    1.384   .     S
C806   O842    1.384   .     S
C806   N835    1.372   .     A
C806   C1258   1.427   .     S
C807   N835    1.364   .     A
C807   H828    1.081   .     S
C807   C1255   1.427   .     S
C808   H829    1.081   .     S
C808   N836    1.364   .     A
C809   O841    1.412   .     S
C809   H822    1.114   .     S
C809   H823    1.109   .     S
C810   O842    1.412   .     S
C810   H826    1.109   .     S
C810   H824    1.114   .     S
C810   H1275   1.111   .     S
C811   O843    1.289   .     A
C811   O845    1.290   .     A
C812   O848    1.291   .     A
C812   O846    1.287   .     A
C812   C814    1.434   .     S
C813   O849    1.291   .     A
C813   C815    1.434   .     S
C813   O847    1.287   .     A
C815   C864    1.336   .     S
C815   H877    1.087   .     S
C816   O850    1.385   .     S
C817   O838    1.385   .     S
C817   C502    1.389   1_565 S
C818   O839    1.386   .     S
C818   C516    1.389   1_565 S
Cu819  O845    1.957   .     S
Cu819  O849    1.958   .     S
Cu819  Cu820   2.685   .     S
Cu819  O846    1.955   .     S
Cu819  N835    2.018   .     S
Cu819  O837    1.956   .     S
Cu820  O848    1.958   .     S
Cu820  O844    1.957   .     S
Cu820  O847    1.955   .     S
Cu820  O843    1.956   .     S
Cu820  N836    2.018   .     S
H821   C864    1.087   .     S
H830   O850    0.988   .     S
H831   O838    0.988   .     S
H832   O839    0.988   .     S
H833   O840    0.988   .     S
H834   C1259   1.111   .     S
C851   O894    1.290   .     A
C851   O887    1.289   .     A
C851   C854    1.442   .     S
C852   C854    1.415   .     A
C852   O890    1.386   .     S
C853   C867    1.415   .     A
C853   C861    1.442   .     S
C853   C868    1.415   .     A
C854   C866    1.415   .     A
C855   N886    1.372   .     A
C855   O891    1.384   .     S
C856   O892    1.384   .     S
C856   N885    1.372   .     A
C856   C1308   1.427   .     S
C857   N885    1.364   .     A
C857   H878    1.081   .     S
C857   C1305   1.427   .     S
C858   H879    1.081   .     S
C858   N886    1.364   .     A
C859   O891    1.412   .     S
C859   H872    1.114   .     S
C859   H873    1.109   .     S
C860   O892    1.412   .     S
C860   H876    1.109   .     S
C860   H874    1.114   .     S
C860   H1325   1.111   .     S
C861   O893    1.289   .     A
C861   O895    1.290   .     A
C862   O898    1.291   .     A
C862   O896    1.287   .     A
C862   C864    1.434   .     S
C863   O899    1.291   .     A
C863   C865    1.434   .     S
C863   O897    1.287   .     A
C865   C764    1.336   1_655 S
C865   H777    1.087   1_655 S
C866   O900    1.385   .     S
C867   O888    1.385   .     S
C867   C552    1.389   1_565 S
C868   O889    1.386   .     S
C868   C566    1.389   1_565 S
Cu869  O895    1.957   .     S
Cu869  O899    1.958   .     S
Cu869  Cu870   2.685   .     S
Cu869  O896    1.955   .     S
Cu869  N885    2.018   .     S
Cu869  O887    1.956   .     S
Cu870  O898    1.958   .     S
Cu870  O894    1.957   .     S
Cu870  O897    1.955   .     S
Cu870  O893    1.956   .     S
Cu870  N886    2.018   .     S
H871   C764    1.087   1_655 S
H880   O900    0.988   .     S
H881   O888    0.988   .     S
H882   O889    0.988   .     S
H883   O890    0.988   .     S
H884   C1309   1.111   .     S
C901   O944    1.290   .     A
C901   O937    1.289   .     A
C901   C904    1.442   .     S
C902   C904    1.415   .     A
C902   O940    1.386   .     S
C902   C1217   1.389   1_545 S
C903   C917    1.415   .     A
C903   C911    1.442   .     S
C903   C918    1.415   .     A
C904   C916    1.415   .     A
C905   N936    1.372   .     A
C905   O941    1.384   .     S
C906   O942    1.384   .     S
C906   N935    1.372   .     A
C906   C8      1.427   1_556 S
C907   N935    1.364   .     A
C907   H928    1.081   .     S
C907   C5      1.427   1_556 S
C908   H929    1.081   .     S
C908   N936    1.364   .     A
C909   O941    1.412   .     S
C909   H922    1.114   .     S
C909   H923    1.109   .     S
C910   O942    1.412   .     S
C910   H926    1.109   .     S
C910   H924    1.114   .     S
C910   H25     1.111   1_556 S
C911   O943    1.289   .     A
C911   O945    1.290   .     A
C912   O948    1.291   .     A
C912   O946    1.287   .     A
C912   C914    1.434   .     S
C913   O949    1.291   .     A
C913   C915    1.434   .     S
C913   O947    1.287   .     A
C914   C1015   1.336   1_455 S
C914   H1021   1.087   1_455 S
C915   C964    1.336   .     S
C915   H977    1.087   .     S
C916   O950    1.385   .     S
C916   C1218   1.389   1_545 S
C917   O938    1.385   .     S
C917   C1052   1.389   .     S
C918   O939    1.386   .     S
C918   C1066   1.389   .     S
Cu919  O945    1.957   .     S
Cu919  O949    1.958   .     S
Cu919  Cu920   2.685   .     S
Cu919  O946    1.955   .     S
Cu919  N935    2.018   .     S
Cu919  O937    1.956   .     S
Cu920  O948    1.958   .     S
Cu920  O944    1.957   .     S
Cu920  O947    1.955   .     S
Cu920  O943    1.956   .     S
Cu920  N936    2.018   .     S
H921   C964    1.087   .     S
H927   C1015   1.087   1_455 S
H930   O950    0.988   .     S
H931   O938    0.988   .     S
H932   O939    0.988   .     S
H933   O940    0.988   .     S
H934   C9      1.111   1_556 S
C951   O994    1.290   .     A
C951   O987    1.289   .     A
C951   C954    1.442   .     S
C952   C954    1.415   .     A
C952   O990    1.386   .     S
C952   C1267   1.389   1_545 S
C953   C967    1.415   .     A
C953   C961    1.442   .     S
C953   C968    1.415   .     A
C954   C966    1.415   .     A
C955   N986    1.372   .     A
C955   O991    1.384   .     S
C956   O992    1.384   .     S
C956   N985    1.372   .     A
C956   C58     1.427   1_556 S
C957   N985    1.364   .     A
C957   H978    1.081   .     S
C957   C55     1.427   1_556 S
C958   H979    1.081   .     S
C958   N986    1.364   .     A
C959   O991    1.412   .     S
C959   H972    1.114   .     S
C959   H973    1.109   .     S
C960   O992    1.412   .     S
C960   H976    1.109   .     S
C960   H974    1.114   .     S
C960   H75     1.111   1_556 S
C961   O993    1.289   .     A
C961   O995    1.290   .     A
C962   O998    1.291   .     A
C962   O996    1.287   .     A
C962   C964    1.434   .     S
C963   O999    1.291   .     A
C963   C965    1.434   .     S
C963   O997    1.287   .     A
C965   C1014   1.336   .     S
C965   H1027   1.087   .     S
C966   O1000   1.385   .     S
C966   C1268   1.389   1_545 S
C967   O988    1.385   .     S
C967   C1102   1.389   .     S
C968   O989    1.386   .     S
C968   C1116   1.389   .     S
Cu969  O995    1.957   .     S
Cu969  O999    1.958   .     S
Cu969  Cu970   2.685   .     S
Cu969  O996    1.955   .     S
Cu969  N985    2.018   .     S
Cu969  O987    1.956   .     S
Cu970  O998    1.958   .     S
Cu970  O994    1.957   .     S
Cu970  O997    1.955   .     S
Cu970  O993    1.956   .     S
Cu970  N986    2.018   .     S
H971   C1014   1.087   .     S
H980   O1000   0.988   .     S
H981   O988    0.988   .     S
H982   O989    0.988   .     S
H983   O990    0.988   .     S
H984   C59     1.111   1_556 S
C1001  O1044   1.290   .     A
C1001  O1037   1.289   .     A
C1001  C1004   1.442   .     S
C1002  C1004   1.415   .     A
C1002  O1040   1.386   .     S
C1002  C1317   1.389   1_545 S
C1003  C1017   1.415   .     A
C1003  C1011   1.442   .     S
C1003  C1018   1.415   .     A
C1004  C1016   1.415   .     A
C1005  N1036   1.372   .     A
C1005  O1041   1.384   .     S
C1006  O1042   1.384   .     S
C1006  N1035   1.372   .     A
C1006  C108    1.427   1_556 S
C1007  N1035   1.364   .     A
C1007  H1028   1.081   .     S
C1007  C105    1.427   1_556 S
C1008  H1029   1.081   .     S
C1008  N1036   1.364   .     A
C1009  O1041   1.412   .     S
C1009  H1022   1.114   .     S
C1009  H1023   1.109   .     S
C1010  O1042   1.412   .     S
C1010  H1026   1.109   .     S
C1010  H1024   1.114   .     S
C1010  H125    1.111   1_556 S
C1011  O1043   1.289   .     A
C1011  O1045   1.290   .     A
C1012  O1048   1.291   .     A
C1012  O1046   1.287   .     A
C1012  C1014   1.434   .     S
C1013  O1049   1.291   .     A
C1013  C1015   1.434   .     S
C1013  O1047   1.287   .     A
C1015  C914    1.336   1_655 S
C1015  H927    1.087   1_655 S
C1016  O1050   1.385   .     S
C1016  C1318   1.389   1_545 S
C1017  O1038   1.385   .     S
C1017  C1152   1.389   .     S
C1018  O1039   1.386   .     S
C1018  C1166   1.389   .     S
Cu1019 O1045   1.957   .     S
Cu1019 O1049   1.958   .     S
Cu1019 Cu1020  2.685   .     S
Cu1019 O1046   1.955   .     S
Cu1019 N1035   2.018   .     S
Cu1019 O1037   1.956   .     S
Cu1020 O1048   1.958   .     S
Cu1020 O1044   1.957   .     S
Cu1020 O1047   1.955   .     S
Cu1020 O1043   1.956   .     S
Cu1020 N1036   2.018   .     S
H1021  C914    1.087   1_655 S
H1030  O1050   0.988   .     S
H1031  O1038   0.988   .     S
H1032  O1039   0.988   .     S
H1033  O1040   0.988   .     S
H1034  C109    1.111   1_556 S
C1051  O1094   1.290   .     A
C1051  O1087   1.289   .     A
C1051  C1054   1.442   .     S
C1052  C1054   1.415   .     A
C1052  O1090   1.386   .     S
C1053  C1067   1.415   .     A
C1053  C1061   1.442   .     S
C1053  C1068   1.415   .     A
C1054  C1066   1.415   .     A
C1055  N1086   1.372   .     A
C1055  O1091   1.384   .     S
C1056  O1092   1.384   .     S
C1056  N1085   1.372   .     A
C1056  C158    1.427   1_556 S
C1057  N1085   1.364   .     A
C1057  H1078   1.081   .     S
C1057  C155    1.427   1_556 S
C1058  H1079   1.081   .     S
C1058  N1086   1.364   .     A
C1059  O1091   1.412   .     S
C1059  H1072   1.114   .     S
C1059  H1073   1.109   .     S
C1060  O1092   1.412   .     S
C1060  H1076   1.109   .     S
C1060  H1074   1.114   .     S
C1060  H175    1.111   1_556 S
C1061  O1093   1.289   .     A
C1061  O1095   1.290   .     A
C1062  O1098   1.291   .     A
C1062  O1096   1.287   .     A
C1062  C1064   1.434   .     S
C1063  O1099   1.291   .     A
C1063  C1065   1.434   .     S
C1063  O1097   1.287   .     A
C1064  C1165   1.336   1_455 S
C1064  H1171   1.087   1_455 S
C1065  C1114   1.336   .     S
C1065  H1127   1.087   .     S
C1066  O1100   1.385   .     S
C1067  O1088   1.385   .     S
C1067  C1202   1.389   .     S
C1068  O1089   1.386   .     S
C1068  C1216   1.389   .     S
Cu1069 O1095   1.957   .     S
Cu1069 O1099   1.958   .     S
Cu1069 Cu1070  2.685   .     S
Cu1069 O1096   1.955   .     S
Cu1069 N1085   2.018   .     S
Cu1069 O1087   1.956   .     S
Cu1070 O1098   1.958   .     S
Cu1070 O1094   1.957   .     S
Cu1070 O1097   1.955   .     S
Cu1070 O1093   1.956   .     S
Cu1070 N1086   2.018   .     S
H1071  C1114   1.087   .     S
H1077  C1165   1.087   1_455 S
H1080  O1100   0.988   .     S
H1081  O1088   0.988   .     S
H1082  O1089   0.988   .     S
H1083  O1090   0.988   .     S
H1084  C159    1.111   1_556 S
C1101  O1144   1.290   .     A
C1101  O1137   1.289   .     A
C1101  C1104   1.442   .     S
C1102  C1104   1.415   .     A
C1102  O1140   1.386   .     S
C1103  C1117   1.415   .     A
C1103  C1111   1.442   .     S
C1103  C1118   1.415   .     A
C1104  C1116   1.415   .     A
C1105  N1136   1.372   .     A
C1105  O1141   1.384   .     S
C1106  O1142   1.384   .     S
C1106  N1135   1.372   .     A
C1106  C208    1.427   1_556 S
C1107  N1135   1.364   .     A
C1107  H1128   1.081   .     S
C1107  C205    1.427   1_556 S
C1108  H1129   1.081   .     S
C1108  N1136   1.364   .     A
C1109  O1141   1.412   .     S
C1109  H1122   1.114   .     S
C1109  H1123   1.109   .     S
C1110  O1142   1.412   .     S
C1110  H1126   1.109   .     S
C1110  H1124   1.114   .     S
C1110  H225    1.111   1_556 S
C1111  O1143   1.289   .     A
C1111  O1145   1.290   .     A
C1112  O1148   1.291   .     A
C1112  O1146   1.287   .     A
C1112  C1114   1.434   .     S
C1113  O1149   1.291   .     A
C1113  C1115   1.434   .     S
C1113  O1147   1.287   .     A
C1115  C1164   1.336   .     S
C1115  H1177   1.087   .     S
C1116  O1150   1.385   .     S
C1117  O1138   1.385   .     S
C1117  C1252   1.389   .     S
C1118  O1139   1.386   .     S
C1118  C1266   1.389   .     S
Cu1119 O1145   1.957   .     S
Cu1119 O1149   1.958   .     S
Cu1119 Cu1120  2.685   .     S
Cu1119 O1146   1.955   .     S
Cu1119 N1135   2.018   .     S
Cu1119 O1137   1.956   .     S
Cu1120 O1148   1.958   .     S
Cu1120 O1144   1.957   .     S
Cu1120 O1147   1.955   .     S
Cu1120 O1143   1.956   .     S
Cu1120 N1136   2.018   .     S
H1121  C1164   1.087   .     S
H1130  O1150   0.988   .     S
H1131  O1138   0.988   .     S
H1132  O1139   0.988   .     S
H1133  O1140   0.988   .     S
H1134  C209    1.111   1_556 S
C1151  O1194   1.290   .     A
C1151  O1187   1.289   .     A
C1151  C1154   1.442   .     S
C1152  C1154   1.415   .     A
C1152  O1190   1.386   .     S
C1153  C1167   1.415   .     A
C1153  C1161   1.442   .     S
C1153  C1168   1.415   .     A
C1154  C1166   1.415   .     A
C1155  N1186   1.372   .     A
C1155  O1191   1.384   .     S
C1156  O1192   1.384   .     S
C1156  N1185   1.372   .     A
C1156  C258    1.427   1_556 S
C1157  N1185   1.364   .     A
C1157  H1178   1.081   .     S
C1157  C255    1.427   1_556 S
C1158  H1179   1.081   .     S
C1158  N1186   1.364   .     A
C1159  O1191   1.412   .     S
C1159  H1172   1.114   .     S
C1159  H1173   1.109   .     S
C1160  O1192   1.412   .     S
C1160  H1176   1.109   .     S
C1160  H1174   1.114   .     S
C1160  H275    1.111   1_556 S
C1161  O1193   1.289   .     A
C1161  O1195   1.290   .     A
C1162  O1198   1.291   .     A
C1162  O1196   1.287   .     A
C1162  C1164   1.434   .     S
C1163  O1199   1.291   .     A
C1163  C1165   1.434   .     S
C1163  O1197   1.287   .     A
C1165  C1064   1.336   1_655 S
C1165  H1077   1.087   1_655 S
C1166  O1200   1.385   .     S
C1167  O1188   1.385   .     S
C1167  C1302   1.389   .     S
C1168  O1189   1.386   .     S
C1168  C1316   1.389   .     S
Cu1169 O1195   1.957   .     S
Cu1169 O1199   1.958   .     S
Cu1169 Cu1170  2.685   .     S
Cu1169 O1196   1.955   .     S
Cu1169 N1185   2.018   .     S
Cu1169 O1187   1.956   .     S
Cu1170 O1198   1.958   .     S
Cu1170 O1194   1.957   .     S
Cu1170 O1197   1.955   .     S
Cu1170 O1193   1.956   .     S
Cu1170 N1186   2.018   .     S
H1171  C1064   1.087   1_655 S
H1180  O1200   0.988   .     S
H1181  O1188   0.988   .     S
H1182  O1189   0.988   .     S
H1183  O1190   0.988   .     S
H1184  C259    1.111   1_556 S
C1201  O1244   1.290   .     A
C1201  O1237   1.289   .     A
C1201  C1204   1.442   .     S
C1202  C1204   1.415   .     A
C1202  O1240   1.386   .     S
C1203  C1217   1.415   .     A
C1203  C1211   1.442   .     S
C1203  C1218   1.415   .     A
C1204  C1216   1.415   .     A
C1205  N1236   1.372   .     A
C1205  O1241   1.384   .     S
C1206  O1242   1.384   .     S
C1206  N1235   1.372   .     A
C1206  C308    1.427   1_556 S
C1207  N1235   1.364   .     A
C1207  H1228   1.081   .     S
C1207  C305    1.427   1_556 S
C1208  H1229   1.081   .     S
C1208  N1236   1.364   .     A
C1209  O1241   1.412   .     S
C1209  H1222   1.114   .     S
C1209  H1223   1.109   .     S
C1210  O1242   1.412   .     S
C1210  H1226   1.109   .     S
C1210  H1224   1.114   .     S
C1210  H325    1.111   1_556 S
C1211  O1243   1.289   .     A
C1211  O1245   1.290   .     A
C1212  O1248   1.291   .     A
C1212  O1246   1.287   .     A
C1212  C1214   1.434   .     S
C1213  O1249   1.291   .     A
C1213  C1215   1.434   .     S
C1213  O1247   1.287   .     A
C1214  C1315   1.336   1_455 S
C1214  H1321   1.087   1_455 S
C1215  C1264   1.336   .     S
C1215  H1277   1.087   .     S
C1216  O1250   1.385   .     S
C1217  O1238   1.385   .     S
C1217  C902    1.389   1_565 S
C1218  O1239   1.386   .     S
C1218  C916    1.389   1_565 S
Cu1219 O1245   1.957   .     S
Cu1219 O1249   1.958   .     S
Cu1219 Cu1220  2.685   .     S
Cu1219 O1246   1.955   .     S
Cu1219 N1235   2.018   .     S
Cu1219 O1237   1.956   .     S
Cu1220 O1248   1.958   .     S
Cu1220 O1244   1.957   .     S
Cu1220 O1247   1.955   .     S
Cu1220 O1243   1.956   .     S
Cu1220 N1236   2.018   .     S
H1221  C1264   1.087   .     S
H1227  C1315   1.087   1_455 S
H1230  O1250   0.988   .     S
H1231  O1238   0.988   .     S
H1232  O1239   0.988   .     S
H1233  O1240   0.988   .     S
H1234  C309    1.111   1_556 S
C1251  O1294   1.290   .     A
C1251  O1287   1.289   .     A
C1251  C1254   1.442   .     S
C1252  C1254   1.415   .     A
C1252  O1290   1.386   .     S
C1253  C1267   1.415   .     A
C1253  C1261   1.442   .     S
C1253  C1268   1.415   .     A
C1254  C1266   1.415   .     A
C1255  N1286   1.372   .     A
C1255  O1291   1.384   .     S
C1256  O1292   1.384   .     S
C1256  N1285   1.372   .     A
C1256  C358    1.427   1_556 S
C1257  N1285   1.364   .     A
C1257  H1278   1.081   .     S
C1257  C355    1.427   1_556 S
C1258  H1279   1.081   .     S
C1258  N1286   1.364   .     A
C1259  O1291   1.412   .     S
C1259  H1272   1.114   .     S
C1259  H1273   1.109   .     S
C1260  O1292   1.412   .     S
C1260  H1276   1.109   .     S
C1260  H1274   1.114   .     S
C1260  H375    1.111   1_556 S
C1261  O1293   1.289   .     A
C1261  O1295   1.290   .     A
C1262  O1298   1.291   .     A
C1262  O1296   1.287   .     A
C1262  C1264   1.434   .     S
C1263  O1299   1.291   .     A
C1263  C1265   1.434   .     S
C1263  O1297   1.287   .     A
C1265  C1314   1.336   .     S
C1265  H1327   1.087   .     S
C1266  O1300   1.385   .     S
C1267  O1288   1.385   .     S
C1267  C952    1.389   1_565 S
C1268  O1289   1.386   .     S
C1268  C966    1.389   1_565 S
Cu1269 O1295   1.957   .     S
Cu1269 O1299   1.958   .     S
Cu1269 Cu1270  2.685   .     S
Cu1269 O1296   1.955   .     S
Cu1269 N1285   2.018   .     S
Cu1269 O1287   1.956   .     S
Cu1270 O1298   1.958   .     S
Cu1270 O1294   1.957   .     S
Cu1270 O1297   1.955   .     S
Cu1270 O1293   1.956   .     S
Cu1270 N1286   2.018   .     S
H1271  C1314   1.087   .     S
H1280  O1300   0.988   .     S
H1281  O1288   0.988   .     S
H1282  O1289   0.988   .     S
H1283  O1290   0.988   .     S
H1284  C359    1.111   1_556 S
C1301  O1344   1.290   .     A
C1301  O1337   1.289   .     A
C1301  C1304   1.442   .     S
C1302  C1304   1.415   .     A
C1302  O1340   1.386   .     S
C1303  C1317   1.415   .     A
C1303  C1311   1.442   .     S
C1303  C1318   1.415   .     A
C1304  C1316   1.415   .     A
C1305  N1336   1.372   .     A
C1305  O1341   1.384   .     S
C1306  O1342   1.384   .     S
C1306  N1335   1.372   .     A
C1306  C408    1.427   1_556 S
C1307  N1335   1.364   .     A
C1307  H1328   1.081   .     S
C1307  C405    1.427   1_556 S
C1308  H1329   1.081   .     S
C1308  N1336   1.364   .     A
C1309  O1341   1.412   .     S
C1309  H1322   1.114   .     S
C1309  H1323   1.109   .     S
C1310  O1342   1.412   .     S
C1310  H1326   1.109   .     S
C1310  H1324   1.114   .     S
C1310  H425    1.111   1_556 S
C1311  O1343   1.289   .     A
C1311  O1345   1.290   .     A
C1312  O1348   1.291   .     A
C1312  O1346   1.287   .     A
C1312  C1314   1.434   .     S
C1313  O1349   1.291   .     A
C1313  C1315   1.434   .     S
C1313  O1347   1.287   .     A
C1315  C1214   1.336   1_655 S
C1315  H1227   1.087   1_655 S
C1316  O1350   1.385   .     S
C1317  O1338   1.385   .     S
C1317  C1002   1.389   1_565 S
C1318  O1339   1.386   .     S
C1318  C1016   1.389   1_565 S
Cu1319 O1345   1.957   .     S
Cu1319 O1349   1.958   .     S
Cu1319 Cu1320  2.685   .     S
Cu1319 O1346   1.955   .     S
Cu1319 N1335   2.018   .     S
Cu1319 O1337   1.956   .     S
Cu1320 O1348   1.958   .     S
Cu1320 O1344   1.957   .     S
Cu1320 O1347   1.955   .     S
Cu1320 O1343   1.956   .     S
Cu1320 N1336   2.018   .     S
H1321  C1214   1.087   1_655 S
H1330  O1350   0.988   .     S
H1331  O1338   0.988   .     S
H1332  O1339   0.988   .     S
H1333  O1340   0.988   .     S
H1334  C409    1.111   1_556 S
