data_str_m2_o1_o10_pcu_sym.40
_audit_creation_date              2020-01-03
_audit_creation_method            'Materials Studio'
_symmetry_space_group_name_H-M    'P1'
_symmetry_Int_Tables_number       1
_symmetry_cell_setting            triclinic
loop_
_symmetry_equiv_pos_as_xyz
  x,y,z
_cell_length_a                    26.1979
_cell_length_b                    32.4966
_cell_length_c                    28.6207
_cell_angle_alpha                 89.2776
_cell_angle_beta                  98.1622
_cell_angle_gamma                 90.5830
loop_
_atom_site_label
_atom_site_type_symbol
_atom_site_fract_x
_atom_site_fract_y
_atom_site_fract_z
_atom_site_U_iso_or_equiv
_atom_site_adp_type
_atom_site_occupancy
C1     C     0.16608   0.08742   0.16694   0.00000  Uiso   1.00
C2     C     0.14164   0.01999   0.20033   0.00000  Uiso   1.00
C3     C     0.16706   0.29052   0.16566   0.00000  Uiso   1.00
C4     C     0.16627   0.04281   0.16768   0.00000  Uiso   1.00
C5     C     0.13104   0.14380   0.02059   0.00000  Uiso   1.00
C6     C     0.20229   0.18954   0.31274   0.00000  Uiso   1.00
C7     C     0.13111   0.14418   0.30408   0.00000  Uiso   1.00
C8     C     0.20222   0.18915   0.02926   0.00000  Uiso   1.00
C9     C     0.19267   0.29607   0.05176   0.00000  Uiso   1.00
C10    C     0.14072   0.03729   0.28157   0.00000  Uiso   1.00
C11    C     0.16726   0.24591   0.16639   0.00000  Uiso   1.00
C12    C     0.06791   0.16664   0.15454   0.00000  Uiso   1.00
C13    C     0.26542   0.16669   0.17880   0.00000  Uiso   1.00
C14    C     0.01257   0.16668   0.14791   0.00000  Uiso   1.00
C15    C     0.32076   0.16666   0.18543   0.00000  Uiso   1.00
C16    C     0.19138   0.02274   0.13463   0.00000  Uiso   1.00
C17    C     0.14195   0.31059   0.19870   0.00000  Uiso   1.00
C18    C     0.19170   0.31334   0.13300   0.00000  Uiso   1.00
Cu19   Cu    0.16667   0.16667   0.21355   0.00000  Uiso   1.00
Cu20   Cu    0.16667   0.16666   0.11978   0.00000  Uiso   1.00
H21    H     0.32577   0.16674   0.11197   0.00000  Uiso   1.00
H22    H     0.21558   0.27986   0.02806   0.00000  Uiso   1.00
H23    H     0.07682   0.03000   0.23111   0.00000  Uiso   1.00
H24    H     0.14475   0.00469   0.29353   0.00000  Uiso   1.00
H25    H     0.11781   0.05349   0.30529   0.00000  Uiso   1.00
H26    H     0.17945   0.05206   0.28423   0.00000  Uiso   1.00
H27    H     0.07230   0.10634   0.01555   0.00000  Uiso   1.00
H28    H     0.26103   0.22700   0.31779   0.00000  Uiso   1.00
H29    H     0.00756   0.16660   0.22137   0.00000  Uiso   1.00
H30    H     0.21117   0.04032   0.11008   0.00000  Uiso   1.00
H31    H     0.12217   0.29302   0.22325   0.00000  Uiso   1.00
H32    H     0.10276   0.12639   0.28144   0.00000  Uiso   1.00
H33    H     0.23057   0.20695   0.05189   0.00000  Uiso   1.00
H34    H     0.25654   0.30331   0.10227   0.00000  Uiso   1.00
H35    H     0.18871   0.32867   0.03982   0.00000  Uiso   1.00
H36    H     0.15392   0.28135   0.04907   0.00000  Uiso   1.00
N37    N     0.16668   0.16668   0.28403   0.00000  Uiso   1.00
N38    N     0.16665   0.16666   0.04931   0.00000  Uiso   1.00
N39    N     0.21862   0.29368   0.09982   0.00000  Uiso   1.00
N40    N     0.11473   0.03965   0.23352   0.00000  Uiso   1.00
O41    O     0.16666   0.10655   0.20625   0.00000  Uiso   1.00
O42    O     0.23762   0.21299   0.29252   0.00000  Uiso   1.00
O43    O     0.16667   0.22678   0.12709   0.00000  Uiso   1.00
O44    O     0.16666   0.10654   0.12706   0.00000  Uiso   1.00
O45    O     0.16667   0.22679   0.20628   0.00000  Uiso   1.00
O46    O     0.09161   0.16667   0.19712   0.00000  Uiso   1.00
O47    O     0.24172   0.16666   0.13621   0.00000  Uiso   1.00
O48    O     0.09161   0.16666   0.11793   0.00000  Uiso   1.00
O49    O     0.24172   0.16667   0.21540   0.00000  Uiso   1.00
O50    O     0.09571   0.12034   0.04082   0.00000  Uiso   1.00
C51    C     0.49941   0.08742   0.16694   0.00000  Uiso   1.00
C52    C     0.47497   0.01999   0.20033   0.00000  Uiso   1.00
C53    C     0.50040   0.29052   0.16566   0.00000  Uiso   1.00
C54    C     0.49960   0.04281   0.16768   0.00000  Uiso   1.00
C55    C     0.46437   0.14380   0.02059   0.00000  Uiso   1.00
C56    C     0.53563   0.18954   0.31274   0.00000  Uiso   1.00
C57    C     0.46444   0.14418   0.30408   0.00000  Uiso   1.00
C58    C     0.53555   0.18915   0.02926   0.00000  Uiso   1.00
C59    C     0.52601   0.29607   0.05176   0.00000  Uiso   1.00
C60    C     0.47405   0.03729   0.28157   0.00000  Uiso   1.00
C61    C     0.50059   0.24591   0.16639   0.00000  Uiso   1.00
C62    C     0.40124   0.16664   0.15454   0.00000  Uiso   1.00
C63    C     0.59876   0.16669   0.17880   0.00000  Uiso   1.00
C64    C     0.34590   0.16668   0.14791   0.00000  Uiso   1.00
C65    C     0.65410   0.16666   0.18543   0.00000  Uiso   1.00
C66    C     0.52472   0.02274   0.13463   0.00000  Uiso   1.00
C67    C     0.47529   0.31059   0.19870   0.00000  Uiso   1.00
C68    C     0.52503   0.31334   0.13300   0.00000  Uiso   1.00
Cu69   Cu    0.50000   0.16667   0.21355   0.00000  Uiso   1.00
Cu70   Cu    0.50000   0.16666   0.11978   0.00000  Uiso   1.00
H71    H     0.65911   0.16674   0.11197   0.00000  Uiso   1.00
H72    H     0.54892   0.27986   0.02806   0.00000  Uiso   1.00
H73    H     0.41016   0.03000   0.23111   0.00000  Uiso   1.00
H74    H     0.47808   0.00469   0.29353   0.00000  Uiso   1.00
H75    H     0.45114   0.05349   0.30529   0.00000  Uiso   1.00
H76    H     0.51279   0.05206   0.28423   0.00000  Uiso   1.00
H77    H     0.40564   0.10634   0.01555   0.00000  Uiso   1.00
H78    H     0.59436   0.22700   0.31779   0.00000  Uiso   1.00
H79    H     0.34089   0.16660   0.22137   0.00000  Uiso   1.00
H80    H     0.54451   0.04032   0.11008   0.00000  Uiso   1.00
H81    H     0.45550   0.29302   0.22325   0.00000  Uiso   1.00
H82    H     0.43609   0.12639   0.28144   0.00000  Uiso   1.00
H83    H     0.56391   0.20695   0.05189   0.00000  Uiso   1.00
H84    H     0.58987   0.30331   0.10227   0.00000  Uiso   1.00
H85    H     0.52205   0.32867   0.03982   0.00000  Uiso   1.00
H86    H     0.48725   0.28135   0.04907   0.00000  Uiso   1.00
N87    N     0.50001   0.16668   0.28403   0.00000  Uiso   1.00
N88    N     0.49999   0.16666   0.04931   0.00000  Uiso   1.00
N89    N     0.55195   0.29368   0.09982   0.00000  Uiso   1.00
N90    N     0.44807   0.03965   0.23352   0.00000  Uiso   1.00
O91    O     0.50000   0.10655   0.20625   0.00000  Uiso   1.00
O92    O     0.57095   0.21299   0.29252   0.00000  Uiso   1.00
O93    O     0.50000   0.22678   0.12709   0.00000  Uiso   1.00
O94    O     0.50000   0.10654   0.12706   0.00000  Uiso   1.00
O95    O     0.50000   0.22679   0.20628   0.00000  Uiso   1.00
O96    O     0.42495   0.16667   0.19712   0.00000  Uiso   1.00
O97    O     0.57505   0.16666   0.13621   0.00000  Uiso   1.00
O98    O     0.42494   0.16666   0.11793   0.00000  Uiso   1.00
O99    O     0.57506   0.16667   0.21540   0.00000  Uiso   1.00
O100   O     0.42905   0.12034   0.04082   0.00000  Uiso   1.00
C101   C     0.83275   0.08742   0.16694   0.00000  Uiso   1.00
C102   C     0.80830   0.01999   0.20033   0.00000  Uiso   1.00
C103   C     0.83373   0.29052   0.16566   0.00000  Uiso   1.00
C104   C     0.83294   0.04281   0.16768   0.00000  Uiso   1.00
C105   C     0.79771   0.14380   0.02059   0.00000  Uiso   1.00
C106   C     0.86896   0.18954   0.31274   0.00000  Uiso   1.00
C107   C     0.79778   0.14418   0.30408   0.00000  Uiso   1.00
C108   C     0.86889   0.18915   0.02926   0.00000  Uiso   1.00
C109   C     0.85934   0.29607   0.05176   0.00000  Uiso   1.00
C110   C     0.80739   0.03729   0.28157   0.00000  Uiso   1.00
C111   C     0.83392   0.24591   0.16639   0.00000  Uiso   1.00
C112   C     0.73458   0.16664   0.15454   0.00000  Uiso   1.00
C113   C     0.93209   0.16669   0.17880   0.00000  Uiso   1.00
C114   C     0.67923   0.16668   0.14791   0.00000  Uiso   1.00
C115   C     0.98743   0.16666   0.18543   0.00000  Uiso   1.00
C116   C     0.85805   0.02274   0.13463   0.00000  Uiso   1.00
C117   C     0.80862   0.31059   0.19870   0.00000  Uiso   1.00
C118   C     0.85837   0.31334   0.13300   0.00000  Uiso   1.00
Cu119  Cu    0.83333   0.16667   0.21355   0.00000  Uiso   1.00
Cu120  Cu    0.83333   0.16666   0.11978   0.00000  Uiso   1.00
H121   H     0.99244   0.16674   0.11197   0.00000  Uiso   1.00
H122   H     0.88225   0.27986   0.02806   0.00000  Uiso   1.00
H123   H     0.74349   0.03000   0.23111   0.00000  Uiso   1.00
H124   H     0.81141   0.00469   0.29353   0.00000  Uiso   1.00
H125   H     0.78447   0.05349   0.30529   0.00000  Uiso   1.00
H126   H     0.84612   0.05206   0.28423   0.00000  Uiso   1.00
H127   H     0.73897   0.10634   0.01555   0.00000  Uiso   1.00
H128   H     0.92770   0.22700   0.31779   0.00000  Uiso   1.00
H129   H     0.67423   0.16660   0.22137   0.00000  Uiso   1.00
H130   H     0.87784   0.04032   0.11008   0.00000  Uiso   1.00
H131   H     0.78883   0.29302   0.22325   0.00000  Uiso   1.00
H132   H     0.76943   0.12639   0.28144   0.00000  Uiso   1.00
H133   H     0.89724   0.20695   0.05189   0.00000  Uiso   1.00
H134   H     0.92320   0.30331   0.10227   0.00000  Uiso   1.00
H135   H     0.85538   0.32867   0.03982   0.00000  Uiso   1.00
H136   H     0.82058   0.28135   0.04907   0.00000  Uiso   1.00
N137   N     0.83335   0.16668   0.28403   0.00000  Uiso   1.00
N138   N     0.83332   0.16666   0.04931   0.00000  Uiso   1.00
N139   N     0.88528   0.29368   0.09982   0.00000  Uiso   1.00
N140   N     0.78140   0.03965   0.23352   0.00000  Uiso   1.00
O141   O     0.83333   0.10655   0.20625   0.00000  Uiso   1.00
O142   O     0.90429   0.21299   0.29252   0.00000  Uiso   1.00
O143   O     0.83334   0.22678   0.12709   0.00000  Uiso   1.00
O144   O     0.83333   0.10654   0.12706   0.00000  Uiso   1.00
O145   O     0.83334   0.22679   0.20628   0.00000  Uiso   1.00
O146   O     0.75828   0.16667   0.19712   0.00000  Uiso   1.00
O147   O     0.90839   0.16666   0.13621   0.00000  Uiso   1.00
O148   O     0.75828   0.16666   0.11793   0.00000  Uiso   1.00
O149   O     0.90839   0.16667   0.21540   0.00000  Uiso   1.00
O150   O     0.76238   0.12034   0.04082   0.00000  Uiso   1.00
C151   C     0.16608   0.42076   0.16694   0.00000  Uiso   1.00
C152   C     0.14164   0.35333   0.20033   0.00000  Uiso   1.00
C153   C     0.16706   0.62386   0.16566   0.00000  Uiso   1.00
C154   C     0.16627   0.37614   0.16768   0.00000  Uiso   1.00
C155   C     0.13104   0.47713   0.02059   0.00000  Uiso   1.00
C156   C     0.20229   0.52287   0.31274   0.00000  Uiso   1.00
C157   C     0.13111   0.47752   0.30408   0.00000  Uiso   1.00
C158   C     0.20222   0.52248   0.02926   0.00000  Uiso   1.00
C159   C     0.19267   0.62940   0.05176   0.00000  Uiso   1.00
C160   C     0.14072   0.37063   0.28157   0.00000  Uiso   1.00
C161   C     0.16726   0.57924   0.16639   0.00000  Uiso   1.00
C162   C     0.06791   0.49998   0.15454   0.00000  Uiso   1.00
C163   C     0.26542   0.50002   0.17880   0.00000  Uiso   1.00
C164   C     0.01257   0.50001   0.14791   0.00000  Uiso   1.00
C165   C     0.32076   0.49999   0.18543   0.00000  Uiso   1.00
C166   C     0.19138   0.35608   0.13463   0.00000  Uiso   1.00
C167   C     0.14195   0.64392   0.19870   0.00000  Uiso   1.00
C168   C     0.19170   0.64667   0.13300   0.00000  Uiso   1.00
Cu169  Cu    0.16667   0.50001   0.21355   0.00000  Uiso   1.00
Cu170  Cu    0.16667   0.49999   0.11978   0.00000  Uiso   1.00
H171   H     0.32577   0.50007   0.11197   0.00000  Uiso   1.00
H172   H     0.21558   0.61319   0.02806   0.00000  Uiso   1.00
H173   H     0.07682   0.36333   0.23111   0.00000  Uiso   1.00
H174   H     0.14475   0.33803   0.29353   0.00000  Uiso   1.00
H175   H     0.11781   0.38682   0.30529   0.00000  Uiso   1.00
H176   H     0.17945   0.38539   0.28423   0.00000  Uiso   1.00
H177   H     0.07230   0.43967   0.01555   0.00000  Uiso   1.00
H178   H     0.26103   0.56033   0.31779   0.00000  Uiso   1.00
H179   H     0.00756   0.49993   0.22137   0.00000  Uiso   1.00
H180   H     0.21117   0.37365   0.11008   0.00000  Uiso   1.00
H181   H     0.12217   0.62635   0.22325   0.00000  Uiso   1.00
H182   H     0.10276   0.45972   0.28144   0.00000  Uiso   1.00
H183   H     0.23057   0.54028   0.05189   0.00000  Uiso   1.00
H184   H     0.25654   0.63664   0.10227   0.00000  Uiso   1.00
H185   H     0.18871   0.66201   0.03982   0.00000  Uiso   1.00
H186   H     0.15392   0.61468   0.04907   0.00000  Uiso   1.00
N187   N     0.16668   0.50001   0.28403   0.00000  Uiso   1.00
N188   N     0.16665   0.49999   0.04931   0.00000  Uiso   1.00
N189   N     0.21862   0.62701   0.09982   0.00000  Uiso   1.00
N190   N     0.11473   0.37299   0.23352   0.00000  Uiso   1.00
O191   O     0.16666   0.43989   0.20625   0.00000  Uiso   1.00
O192   O     0.23762   0.54633   0.29252   0.00000  Uiso   1.00
O193   O     0.16667   0.56011   0.12709   0.00000  Uiso   1.00
O194   O     0.16666   0.43988   0.12706   0.00000  Uiso   1.00
O195   O     0.16667   0.56012   0.20628   0.00000  Uiso   1.00
O196   O     0.09161   0.50000   0.19712   0.00000  Uiso   1.00
O197   O     0.24172   0.50000   0.13621   0.00000  Uiso   1.00
O198   O     0.09161   0.49999   0.11793   0.00000  Uiso   1.00
O199   O     0.24172   0.50001   0.21540   0.00000  Uiso   1.00
O200   O     0.09571   0.45367   0.04082   0.00000  Uiso   1.00
C201   C     0.49941   0.42076   0.16694   0.00000  Uiso   1.00
C202   C     0.47497   0.35333   0.20033   0.00000  Uiso   1.00
C203   C     0.50040   0.62386   0.16566   0.00000  Uiso   1.00
C204   C     0.49960   0.37614   0.16768   0.00000  Uiso   1.00
C205   C     0.46437   0.47713   0.02059   0.00000  Uiso   1.00
C206   C     0.53563   0.52287   0.31274   0.00000  Uiso   1.00
C207   C     0.46444   0.47752   0.30408   0.00000  Uiso   1.00
C208   C     0.53555   0.52248   0.02926   0.00000  Uiso   1.00
C209   C     0.52601   0.62940   0.05176   0.00000  Uiso   1.00
C210   C     0.47405   0.37063   0.28157   0.00000  Uiso   1.00
C211   C     0.50059   0.57924   0.16639   0.00000  Uiso   1.00
C212   C     0.40124   0.49998   0.15454   0.00000  Uiso   1.00
C213   C     0.59876   0.50002   0.17880   0.00000  Uiso   1.00
C214   C     0.34590   0.50001   0.14791   0.00000  Uiso   1.00
C215   C     0.65410   0.49999   0.18543   0.00000  Uiso   1.00
C216   C     0.52472   0.35608   0.13463   0.00000  Uiso   1.00
C217   C     0.47529   0.64392   0.19870   0.00000  Uiso   1.00
C218   C     0.52503   0.64667   0.13300   0.00000  Uiso   1.00
Cu219  Cu    0.50000   0.50001   0.21355   0.00000  Uiso   1.00
Cu220  Cu    0.50000   0.49999   0.11978   0.00000  Uiso   1.00
H221   H     0.65911   0.50007   0.11197   0.00000  Uiso   1.00
H222   H     0.54892   0.61319   0.02806   0.00000  Uiso   1.00
H223   H     0.41016   0.36333   0.23111   0.00000  Uiso   1.00
H224   H     0.47808   0.33803   0.29353   0.00000  Uiso   1.00
H225   H     0.45114   0.38682   0.30529   0.00000  Uiso   1.00
H226   H     0.51279   0.38539   0.28423   0.00000  Uiso   1.00
H227   H     0.40564   0.43967   0.01555   0.00000  Uiso   1.00
H228   H     0.59436   0.56033   0.31779   0.00000  Uiso   1.00
H229   H     0.34089   0.49993   0.22137   0.00000  Uiso   1.00
H230   H     0.54451   0.37365   0.11008   0.00000  Uiso   1.00
H231   H     0.45550   0.62635   0.22325   0.00000  Uiso   1.00
H232   H     0.43609   0.45972   0.28144   0.00000  Uiso   1.00
H233   H     0.56391   0.54028   0.05189   0.00000  Uiso   1.00
H234   H     0.58987   0.63664   0.10227   0.00000  Uiso   1.00
H235   H     0.52205   0.66201   0.03982   0.00000  Uiso   1.00
H236   H     0.48725   0.61468   0.04907   0.00000  Uiso   1.00
N237   N     0.50001   0.50001   0.28403   0.00000  Uiso   1.00
N238   N     0.49999   0.49999   0.04931   0.00000  Uiso   1.00
N239   N     0.55195   0.62701   0.09982   0.00000  Uiso   1.00
N240   N     0.44807   0.37299   0.23352   0.00000  Uiso   1.00
O241   O     0.50000   0.43989   0.20625   0.00000  Uiso   1.00
O242   O     0.57095   0.54633   0.29252   0.00000  Uiso   1.00
O243   O     0.50000   0.56011   0.12709   0.00000  Uiso   1.00
O244   O     0.50000   0.43988   0.12706   0.00000  Uiso   1.00
O245   O     0.50000   0.56012   0.20628   0.00000  Uiso   1.00
O246   O     0.42495   0.50000   0.19712   0.00000  Uiso   1.00
O247   O     0.57505   0.50000   0.13621   0.00000  Uiso   1.00
O248   O     0.42494   0.49999   0.11793   0.00000  Uiso   1.00
O249   O     0.57506   0.50001   0.21540   0.00000  Uiso   1.00
O250   O     0.42905   0.45367   0.04082   0.00000  Uiso   1.00
C251   C     0.83275   0.42076   0.16694   0.00000  Uiso   1.00
C252   C     0.80830   0.35333   0.20033   0.00000  Uiso   1.00
C253   C     0.83373   0.62386   0.16566   0.00000  Uiso   1.00
C254   C     0.83294   0.37614   0.16768   0.00000  Uiso   1.00
C255   C     0.79771   0.47713   0.02059   0.00000  Uiso   1.00
C256   C     0.86896   0.52287   0.31274   0.00000  Uiso   1.00
C257   C     0.79778   0.47752   0.30408   0.00000  Uiso   1.00
C258   C     0.86889   0.52248   0.02926   0.00000  Uiso   1.00
C259   C     0.85934   0.62940   0.05176   0.00000  Uiso   1.00
C260   C     0.80739   0.37063   0.28157   0.00000  Uiso   1.00
C261   C     0.83392   0.57924   0.16639   0.00000  Uiso   1.00
C262   C     0.73458   0.49998   0.15454   0.00000  Uiso   1.00
C263   C     0.93209   0.50002   0.17880   0.00000  Uiso   1.00
C264   C     0.67923   0.50001   0.14791   0.00000  Uiso   1.00
C265   C     0.98743   0.49999   0.18543   0.00000  Uiso   1.00
C266   C     0.85805   0.35608   0.13463   0.00000  Uiso   1.00
C267   C     0.80862   0.64392   0.19870   0.00000  Uiso   1.00
C268   C     0.85837   0.64667   0.13300   0.00000  Uiso   1.00
Cu269  Cu    0.83333   0.50001   0.21355   0.00000  Uiso   1.00
Cu270  Cu    0.83333   0.49999   0.11978   0.00000  Uiso   1.00
H271   H     0.99244   0.50007   0.11197   0.00000  Uiso   1.00
H272   H     0.88225   0.61319   0.02806   0.00000  Uiso   1.00
H273   H     0.74349   0.36333   0.23111   0.00000  Uiso   1.00
H274   H     0.81141   0.33803   0.29353   0.00000  Uiso   1.00
H275   H     0.78447   0.38682   0.30529   0.00000  Uiso   1.00
H276   H     0.84612   0.38539   0.28423   0.00000  Uiso   1.00
H277   H     0.73897   0.43967   0.01555   0.00000  Uiso   1.00
H278   H     0.92770   0.56033   0.31779   0.00000  Uiso   1.00
H279   H     0.67423   0.49993   0.22137   0.00000  Uiso   1.00
H280   H     0.87784   0.37365   0.11008   0.00000  Uiso   1.00
H281   H     0.78883   0.62635   0.22325   0.00000  Uiso   1.00
H282   H     0.76943   0.45972   0.28144   0.00000  Uiso   1.00
H283   H     0.89724   0.54028   0.05189   0.00000  Uiso   1.00
H284   H     0.92320   0.63664   0.10227   0.00000  Uiso   1.00
H285   H     0.85538   0.66201   0.03982   0.00000  Uiso   1.00
H286   H     0.82058   0.61468   0.04907   0.00000  Uiso   1.00
N287   N     0.83335   0.50001   0.28403   0.00000  Uiso   1.00
N288   N     0.83332   0.49999   0.04931   0.00000  Uiso   1.00
N289   N     0.88528   0.62701   0.09982   0.00000  Uiso   1.00
N290   N     0.78140   0.37299   0.23352   0.00000  Uiso   1.00
O291   O     0.83333   0.43989   0.20625   0.00000  Uiso   1.00
O292   O     0.90429   0.54633   0.29252   0.00000  Uiso   1.00
O293   O     0.83334   0.56011   0.12709   0.00000  Uiso   1.00
O294   O     0.83333   0.43988   0.12706   0.00000  Uiso   1.00
O295   O     0.83334   0.56012   0.20628   0.00000  Uiso   1.00
O296   O     0.75828   0.50000   0.19712   0.00000  Uiso   1.00
O297   O     0.90839   0.50000   0.13621   0.00000  Uiso   1.00
O298   O     0.75828   0.49999   0.11793   0.00000  Uiso   1.00
O299   O     0.90839   0.50001   0.21540   0.00000  Uiso   1.00
O300   O     0.76238   0.45367   0.04082   0.00000  Uiso   1.00
C301   C     0.16608   0.75409   0.16694   0.00000  Uiso   1.00
C302   C     0.14164   0.68666   0.20033   0.00000  Uiso   1.00
C303   C     0.16706   0.95719   0.16566   0.00000  Uiso   1.00
C304   C     0.16627   0.70948   0.16768   0.00000  Uiso   1.00
C305   C     0.13104   0.81046   0.02059   0.00000  Uiso   1.00
C306   C     0.20229   0.85620   0.31274   0.00000  Uiso   1.00
C307   C     0.13111   0.81085   0.30408   0.00000  Uiso   1.00
C308   C     0.20222   0.85582   0.02926   0.00000  Uiso   1.00
C309   C     0.19267   0.96274   0.05176   0.00000  Uiso   1.00
C310   C     0.14072   0.70396   0.28157   0.00000  Uiso   1.00
C311   C     0.16726   0.91258   0.16639   0.00000  Uiso   1.00
C312   C     0.06791   0.83331   0.15454   0.00000  Uiso   1.00
C313   C     0.26542   0.83336   0.17880   0.00000  Uiso   1.00
C314   C     0.01257   0.83334   0.14791   0.00000  Uiso   1.00
C315   C     0.32076   0.83332   0.18543   0.00000  Uiso   1.00
C316   C     0.19138   0.68941   0.13463   0.00000  Uiso   1.00
C317   C     0.14195   0.97726   0.19870   0.00000  Uiso   1.00
C318   C     0.19170   0.98001   0.13300   0.00000  Uiso   1.00
Cu319  Cu    0.16667   0.83334   0.21355   0.00000  Uiso   1.00
Cu320  Cu    0.16667   0.83333   0.11978   0.00000  Uiso   1.00
H321   H     0.32577   0.83340   0.11197   0.00000  Uiso   1.00
H322   H     0.21558   0.94652   0.02806   0.00000  Uiso   1.00
H323   H     0.07682   0.69666   0.23111   0.00000  Uiso   1.00
H324   H     0.14475   0.67136   0.29353   0.00000  Uiso   1.00
H325   H     0.11781   0.72015   0.30529   0.00000  Uiso   1.00
H326   H     0.17945   0.71872   0.28423   0.00000  Uiso   1.00
H327   H     0.07230   0.77300   0.01555   0.00000  Uiso   1.00
H328   H     0.26103   0.89366   0.31779   0.00000  Uiso   1.00
H329   H     0.00756   0.83326   0.22137   0.00000  Uiso   1.00
H330   H     0.21117   0.70698   0.11008   0.00000  Uiso   1.00
H331   H     0.12217   0.95968   0.22325   0.00000  Uiso   1.00
H332   H     0.10276   0.79305   0.28144   0.00000  Uiso   1.00
H333   H     0.23057   0.87362   0.05189   0.00000  Uiso   1.00
H334   H     0.25654   0.96997   0.10227   0.00000  Uiso   1.00
H335   H     0.18871   0.99534   0.03982   0.00000  Uiso   1.00
H336   H     0.15392   0.94801   0.04907   0.00000  Uiso   1.00
N337   N     0.16668   0.83334   0.28403   0.00000  Uiso   1.00
N338   N     0.16665   0.83332   0.04931   0.00000  Uiso   1.00
N339   N     0.21862   0.96034   0.09982   0.00000  Uiso   1.00
N340   N     0.11473   0.70632   0.23352   0.00000  Uiso   1.00
O341   O     0.16666   0.77322   0.20625   0.00000  Uiso   1.00
O342   O     0.23762   0.87966   0.29252   0.00000  Uiso   1.00
O343   O     0.16667   0.89345   0.12709   0.00000  Uiso   1.00
O344   O     0.16666   0.77321   0.12706   0.00000  Uiso   1.00
O345   O     0.16667   0.89346   0.20628   0.00000  Uiso   1.00
O346   O     0.09161   0.83334   0.19712   0.00000  Uiso   1.00
O347   O     0.24172   0.83333   0.13621   0.00000  Uiso   1.00
O348   O     0.09161   0.83333   0.11793   0.00000  Uiso   1.00
O349   O     0.24172   0.83334   0.21540   0.00000  Uiso   1.00
O350   O     0.09571   0.78701   0.04082   0.00000  Uiso   1.00
C351   C     0.49941   0.75409   0.16694   0.00000  Uiso   1.00
C352   C     0.47497   0.68666   0.20033   0.00000  Uiso   1.00
C353   C     0.50040   0.95719   0.16566   0.00000  Uiso   1.00
C354   C     0.49960   0.70948   0.16768   0.00000  Uiso   1.00
C355   C     0.46437   0.81046   0.02059   0.00000  Uiso   1.00
C356   C     0.53563   0.85620   0.31274   0.00000  Uiso   1.00
C357   C     0.46444   0.81085   0.30408   0.00000  Uiso   1.00
C358   C     0.53555   0.85582   0.02926   0.00000  Uiso   1.00
C359   C     0.52601   0.96274   0.05176   0.00000  Uiso   1.00
C360   C     0.47405   0.70396   0.28157   0.00000  Uiso   1.00
C361   C     0.50059   0.91258   0.16639   0.00000  Uiso   1.00
C362   C     0.40124   0.83331   0.15454   0.00000  Uiso   1.00
C363   C     0.59876   0.83336   0.17880   0.00000  Uiso   1.00
C364   C     0.34590   0.83334   0.14791   0.00000  Uiso   1.00
C365   C     0.65410   0.83332   0.18543   0.00000  Uiso   1.00
C366   C     0.52472   0.68941   0.13463   0.00000  Uiso   1.00
C367   C     0.47529   0.97726   0.19870   0.00000  Uiso   1.00
C368   C     0.52503   0.98001   0.13300   0.00000  Uiso   1.00
Cu369  Cu    0.50000   0.83334   0.21355   0.00000  Uiso   1.00
Cu370  Cu    0.50000   0.83333   0.11978   0.00000  Uiso   1.00
H371   H     0.65911   0.83340   0.11197   0.00000  Uiso   1.00
H372   H     0.54892   0.94652   0.02806   0.00000  Uiso   1.00
H373   H     0.41016   0.69666   0.23111   0.00000  Uiso   1.00
H374   H     0.47808   0.67136   0.29353   0.00000  Uiso   1.00
H375   H     0.45114   0.72015   0.30529   0.00000  Uiso   1.00
H376   H     0.51279   0.71872   0.28423   0.00000  Uiso   1.00
H377   H     0.40564   0.77300   0.01555   0.00000  Uiso   1.00
H378   H     0.59436   0.89366   0.31779   0.00000  Uiso   1.00
H379   H     0.34089   0.83326   0.22137   0.00000  Uiso   1.00
H380   H     0.54451   0.70698   0.11008   0.00000  Uiso   1.00
H381   H     0.45550   0.95968   0.22325   0.00000  Uiso   1.00
H382   H     0.43609   0.79305   0.28144   0.00000  Uiso   1.00
H383   H     0.56391   0.87362   0.05189   0.00000  Uiso   1.00
H384   H     0.58987   0.96997   0.10227   0.00000  Uiso   1.00
H385   H     0.52205   0.99534   0.03982   0.00000  Uiso   1.00
H386   H     0.48725   0.94801   0.04907   0.00000  Uiso   1.00
N387   N     0.50001   0.83334   0.28403   0.00000  Uiso   1.00
N388   N     0.49999   0.83332   0.04931   0.00000  Uiso   1.00
N389   N     0.55195   0.96034   0.09982   0.00000  Uiso   1.00
N390   N     0.44807   0.70632   0.23352   0.00000  Uiso   1.00
O391   O     0.50000   0.77322   0.20625   0.00000  Uiso   1.00
O392   O     0.57095   0.87966   0.29252   0.00000  Uiso   1.00
O393   O     0.50000   0.89345   0.12709   0.00000  Uiso   1.00
O394   O     0.50000   0.77321   0.12706   0.00000  Uiso   1.00
O395   O     0.50000   0.89346   0.20628   0.00000  Uiso   1.00
O396   O     0.42495   0.83334   0.19712   0.00000  Uiso   1.00
O397   O     0.57505   0.83333   0.13621   0.00000  Uiso   1.00
O398   O     0.42494   0.83333   0.11793   0.00000  Uiso   1.00
O399   O     0.57506   0.83334   0.21540   0.00000  Uiso   1.00
O400   O     0.42905   0.78701   0.04082   0.00000  Uiso   1.00
C401   C     0.83275   0.75409   0.16694   0.00000  Uiso   1.00
C402   C     0.80830   0.68666   0.20033   0.00000  Uiso   1.00
C403   C     0.83373   0.95719   0.16566   0.00000  Uiso   1.00
C404   C     0.83294   0.70948   0.16768   0.00000  Uiso   1.00
C405   C     0.79771   0.81046   0.02059   0.00000  Uiso   1.00
C406   C     0.86896   0.85620   0.31274   0.00000  Uiso   1.00
C407   C     0.79778   0.81085   0.30408   0.00000  Uiso   1.00
C408   C     0.86889   0.85582   0.02926   0.00000  Uiso   1.00
C409   C     0.85934   0.96274   0.05176   0.00000  Uiso   1.00
C410   C     0.80739   0.70396   0.28157   0.00000  Uiso   1.00
C411   C     0.83392   0.91258   0.16639   0.00000  Uiso   1.00
C412   C     0.73458   0.83331   0.15454   0.00000  Uiso   1.00
C413   C     0.93209   0.83336   0.17880   0.00000  Uiso   1.00
C414   C     0.67923   0.83334   0.14791   0.00000  Uiso   1.00
C415   C     0.98743   0.83332   0.18543   0.00000  Uiso   1.00
C416   C     0.85805   0.68941   0.13463   0.00000  Uiso   1.00
C417   C     0.80862   0.97726   0.19870   0.00000  Uiso   1.00
C418   C     0.85837   0.98001   0.13300   0.00000  Uiso   1.00
Cu419  Cu    0.83333   0.83334   0.21355   0.00000  Uiso   1.00
Cu420  Cu    0.83333   0.83333   0.11978   0.00000  Uiso   1.00
H421   H     0.99244   0.83340   0.11197   0.00000  Uiso   1.00
H422   H     0.88225   0.94652   0.02806   0.00000  Uiso   1.00
H423   H     0.74349   0.69666   0.23111   0.00000  Uiso   1.00
H424   H     0.81141   0.67136   0.29353   0.00000  Uiso   1.00
H425   H     0.78447   0.72015   0.30529   0.00000  Uiso   1.00
H426   H     0.84612   0.71872   0.28423   0.00000  Uiso   1.00
H427   H     0.73897   0.77300   0.01555   0.00000  Uiso   1.00
H428   H     0.92770   0.89366   0.31779   0.00000  Uiso   1.00
H429   H     0.67423   0.83326   0.22137   0.00000  Uiso   1.00
H430   H     0.87784   0.70698   0.11008   0.00000  Uiso   1.00
H431   H     0.78883   0.95968   0.22325   0.00000  Uiso   1.00
H432   H     0.76943   0.79305   0.28144   0.00000  Uiso   1.00
H433   H     0.89724   0.87362   0.05189   0.00000  Uiso   1.00
H434   H     0.92320   0.96997   0.10227   0.00000  Uiso   1.00
H435   H     0.85538   0.99534   0.03982   0.00000  Uiso   1.00
H436   H     0.82058   0.94801   0.04907   0.00000  Uiso   1.00
N437   N     0.83335   0.83334   0.28403   0.00000  Uiso   1.00
N438   N     0.83332   0.83332   0.04931   0.00000  Uiso   1.00
N439   N     0.88528   0.96034   0.09982   0.00000  Uiso   1.00
N440   N     0.78140   0.70632   0.23352   0.00000  Uiso   1.00
O441   O     0.83333   0.77322   0.20625   0.00000  Uiso   1.00
O442   O     0.90429   0.87966   0.29252   0.00000  Uiso   1.00
O443   O     0.83334   0.89345   0.12709   0.00000  Uiso   1.00
O444   O     0.83333   0.77321   0.12706   0.00000  Uiso   1.00
O445   O     0.83334   0.89346   0.20628   0.00000  Uiso   1.00
O446   O     0.75828   0.83334   0.19712   0.00000  Uiso   1.00
O447   O     0.90839   0.83333   0.13621   0.00000  Uiso   1.00
O448   O     0.75828   0.83333   0.11793   0.00000  Uiso   1.00
O449   O     0.90839   0.83334   0.21540   0.00000  Uiso   1.00
O450   O     0.76238   0.78701   0.04082   0.00000  Uiso   1.00
C451   C     0.16608   0.08742   0.50027   0.00000  Uiso   1.00
C452   C     0.14164   0.01999   0.53367   0.00000  Uiso   1.00
C453   C     0.16706   0.29052   0.49899   0.00000  Uiso   1.00
C454   C     0.16627   0.04281   0.50101   0.00000  Uiso   1.00
C455   C     0.13104   0.14380   0.35392   0.00000  Uiso   1.00
C456   C     0.20229   0.18954   0.64608   0.00000  Uiso   1.00
C457   C     0.13111   0.14418   0.63741   0.00000  Uiso   1.00
C458   C     0.20222   0.18915   0.36259   0.00000  Uiso   1.00
C459   C     0.19267   0.29607   0.38510   0.00000  Uiso   1.00
C460   C     0.14072   0.03729   0.61490   0.00000  Uiso   1.00
C461   C     0.16726   0.24591   0.49973   0.00000  Uiso   1.00
C462   C     0.06791   0.16664   0.48787   0.00000  Uiso   1.00
C463   C     0.26542   0.16669   0.51213   0.00000  Uiso   1.00
C464   C     0.01257   0.16668   0.48124   0.00000  Uiso   1.00
C465   C     0.32076   0.16666   0.51876   0.00000  Uiso   1.00
C466   C     0.19138   0.02274   0.46797   0.00000  Uiso   1.00
C467   C     0.14195   0.31059   0.53204   0.00000  Uiso   1.00
C468   C     0.19170   0.31334   0.46634   0.00000  Uiso   1.00
Cu469  Cu    0.16667   0.16667   0.54689   0.00000  Uiso   1.00
Cu470  Cu    0.16667   0.16666   0.45311   0.00000  Uiso   1.00
H471   H     0.32577   0.16674   0.44530   0.00000  Uiso   1.00
H472   H     0.21558   0.27986   0.36139   0.00000  Uiso   1.00
H473   H     0.07682   0.03000   0.56444   0.00000  Uiso   1.00
H474   H     0.14475   0.00469   0.62686   0.00000  Uiso   1.00
H475   H     0.11781   0.05349   0.63863   0.00000  Uiso   1.00
H476   H     0.17945   0.05206   0.61756   0.00000  Uiso   1.00
H477   H     0.07230   0.10634   0.34888   0.00000  Uiso   1.00
H478   H     0.26103   0.22700   0.65112   0.00000  Uiso   1.00
H479   H     0.00756   0.16660   0.55470   0.00000  Uiso   1.00
H480   H     0.21117   0.04032   0.44342   0.00000  Uiso   1.00
H481   H     0.12217   0.29302   0.55659   0.00000  Uiso   1.00
H482   H     0.10276   0.12639   0.61478   0.00000  Uiso   1.00
H483   H     0.23057   0.20695   0.38522   0.00000  Uiso   1.00
H484   H     0.25654   0.30331   0.43561   0.00000  Uiso   1.00
H485   H     0.18871   0.32867   0.37315   0.00000  Uiso   1.00
H486   H     0.15392   0.28135   0.38240   0.00000  Uiso   1.00
N487   N     0.16668   0.16668   0.61736   0.00000  Uiso   1.00
N488   N     0.16665   0.16666   0.38264   0.00000  Uiso   1.00
N489   N     0.21862   0.29368   0.43316   0.00000  Uiso   1.00
N490   N     0.11473   0.03965   0.56686   0.00000  Uiso   1.00
O491   O     0.16666   0.10655   0.53958   0.00000  Uiso   1.00
O492   O     0.23762   0.21299   0.62585   0.00000  Uiso   1.00
O493   O     0.16667   0.22678   0.46042   0.00000  Uiso   1.00
O494   O     0.16666   0.10654   0.46039   0.00000  Uiso   1.00
O495   O     0.16667   0.22679   0.53961   0.00000  Uiso   1.00
O496   O     0.09161   0.16667   0.53046   0.00000  Uiso   1.00
O497   O     0.24172   0.16666   0.46954   0.00000  Uiso   1.00
O498   O     0.09161   0.16666   0.45127   0.00000  Uiso   1.00
O499   O     0.24172   0.16667   0.54873   0.00000  Uiso   1.00
O500   O     0.09571   0.12034   0.37415   0.00000  Uiso   1.00
C501   C     0.49941   0.08742   0.50027   0.00000  Uiso   1.00
C502   C     0.47497   0.01999   0.53367   0.00000  Uiso   1.00
C503   C     0.50040   0.29052   0.49899   0.00000  Uiso   1.00
C504   C     0.49960   0.04281   0.50101   0.00000  Uiso   1.00
C505   C     0.46437   0.14380   0.35392   0.00000  Uiso   1.00
C506   C     0.53563   0.18954   0.64608   0.00000  Uiso   1.00
C507   C     0.46444   0.14418   0.63741   0.00000  Uiso   1.00
C508   C     0.53555   0.18915   0.36259   0.00000  Uiso   1.00
C509   C     0.52601   0.29607   0.38510   0.00000  Uiso   1.00
C510   C     0.47405   0.03729   0.61490   0.00000  Uiso   1.00
C511   C     0.50059   0.24591   0.49973   0.00000  Uiso   1.00
C512   C     0.40124   0.16664   0.48787   0.00000  Uiso   1.00
C513   C     0.59876   0.16669   0.51213   0.00000  Uiso   1.00
C514   C     0.34590   0.16668   0.48124   0.00000  Uiso   1.00
C515   C     0.65410   0.16666   0.51876   0.00000  Uiso   1.00
C516   C     0.52472   0.02274   0.46797   0.00000  Uiso   1.00
C517   C     0.47529   0.31059   0.53204   0.00000  Uiso   1.00
C518   C     0.52503   0.31334   0.46634   0.00000  Uiso   1.00
Cu519  Cu    0.50000   0.16667   0.54689   0.00000  Uiso   1.00
Cu520  Cu    0.50000   0.16666   0.45311   0.00000  Uiso   1.00
H521   H     0.65911   0.16674   0.44530   0.00000  Uiso   1.00
H522   H     0.54892   0.27986   0.36139   0.00000  Uiso   1.00
H523   H     0.41016   0.03000   0.56444   0.00000  Uiso   1.00
H524   H     0.47808   0.00469   0.62686   0.00000  Uiso   1.00
H525   H     0.45114   0.05349   0.63863   0.00000  Uiso   1.00
H526   H     0.51279   0.05206   0.61756   0.00000  Uiso   1.00
H527   H     0.40564   0.10634   0.34888   0.00000  Uiso   1.00
H528   H     0.59436   0.22700   0.65112   0.00000  Uiso   1.00
H529   H     0.34089   0.16660   0.55470   0.00000  Uiso   1.00
H530   H     0.54451   0.04032   0.44342   0.00000  Uiso   1.00
H531   H     0.45550   0.29302   0.55659   0.00000  Uiso   1.00
H532   H     0.43609   0.12639   0.61478   0.00000  Uiso   1.00
H533   H     0.56391   0.20695   0.38522   0.00000  Uiso   1.00
H534   H     0.58987   0.30331   0.43561   0.00000  Uiso   1.00
H535   H     0.52205   0.32867   0.37315   0.00000  Uiso   1.00
H536   H     0.48725   0.28135   0.38240   0.00000  Uiso   1.00
N537   N     0.50001   0.16668   0.61736   0.00000  Uiso   1.00
N538   N     0.49999   0.16666   0.38264   0.00000  Uiso   1.00
N539   N     0.55195   0.29368   0.43316   0.00000  Uiso   1.00
N540   N     0.44807   0.03965   0.56686   0.00000  Uiso   1.00
O541   O     0.50000   0.10655   0.53958   0.00000  Uiso   1.00
O542   O     0.57095   0.21299   0.62585   0.00000  Uiso   1.00
O543   O     0.50000   0.22678   0.46042   0.00000  Uiso   1.00
O544   O     0.50000   0.10654   0.46039   0.00000  Uiso   1.00
O545   O     0.50000   0.22679   0.53961   0.00000  Uiso   1.00
O546   O     0.42495   0.16667   0.53046   0.00000  Uiso   1.00
O547   O     0.57505   0.16666   0.46954   0.00000  Uiso   1.00
O548   O     0.42494   0.16666   0.45127   0.00000  Uiso   1.00
O549   O     0.57506   0.16667   0.54873   0.00000  Uiso   1.00
O550   O     0.42905   0.12034   0.37415   0.00000  Uiso   1.00
C551   C     0.83275   0.08742   0.50027   0.00000  Uiso   1.00
C552   C     0.80830   0.01999   0.53367   0.00000  Uiso   1.00
C553   C     0.83373   0.29052   0.49899   0.00000  Uiso   1.00
C554   C     0.83294   0.04281   0.50101   0.00000  Uiso   1.00
C555   C     0.79771   0.14380   0.35392   0.00000  Uiso   1.00
C556   C     0.86896   0.18954   0.64608   0.00000  Uiso   1.00
C557   C     0.79778   0.14418   0.63741   0.00000  Uiso   1.00
C558   C     0.86889   0.18915   0.36259   0.00000  Uiso   1.00
C559   C     0.85934   0.29607   0.38510   0.00000  Uiso   1.00
C560   C     0.80739   0.03729   0.61490   0.00000  Uiso   1.00
C561   C     0.83392   0.24591   0.49973   0.00000  Uiso   1.00
C562   C     0.73458   0.16664   0.48787   0.00000  Uiso   1.00
C563   C     0.93209   0.16669   0.51213   0.00000  Uiso   1.00
C564   C     0.67923   0.16668   0.48124   0.00000  Uiso   1.00
C565   C     0.98743   0.16666   0.51876   0.00000  Uiso   1.00
C566   C     0.85805   0.02274   0.46797   0.00000  Uiso   1.00
C567   C     0.80862   0.31059   0.53204   0.00000  Uiso   1.00
C568   C     0.85837   0.31334   0.46634   0.00000  Uiso   1.00
Cu569  Cu    0.83333   0.16667   0.54689   0.00000  Uiso   1.00
Cu570  Cu    0.83333   0.16666   0.45311   0.00000  Uiso   1.00
H571   H     0.99244   0.16674   0.44530   0.00000  Uiso   1.00
H572   H     0.88225   0.27986   0.36139   0.00000  Uiso   1.00
H573   H     0.74349   0.03000   0.56444   0.00000  Uiso   1.00
H574   H     0.81141   0.00469   0.62686   0.00000  Uiso   1.00
H575   H     0.78447   0.05349   0.63863   0.00000  Uiso   1.00
H576   H     0.84612   0.05206   0.61756   0.00000  Uiso   1.00
H577   H     0.73897   0.10634   0.34888   0.00000  Uiso   1.00
H578   H     0.92770   0.22700   0.65112   0.00000  Uiso   1.00
H579   H     0.67423   0.16660   0.55470   0.00000  Uiso   1.00
H580   H     0.87784   0.04032   0.44342   0.00000  Uiso   1.00
H581   H     0.78883   0.29302   0.55659   0.00000  Uiso   1.00
H582   H     0.76943   0.12639   0.61478   0.00000  Uiso   1.00
H583   H     0.89724   0.20695   0.38522   0.00000  Uiso   1.00
H584   H     0.92320   0.30331   0.43561   0.00000  Uiso   1.00
H585   H     0.85538   0.32867   0.37315   0.00000  Uiso   1.00
H586   H     0.82058   0.28135   0.38240   0.00000  Uiso   1.00
N587   N     0.83335   0.16668   0.61736   0.00000  Uiso   1.00
N588   N     0.83332   0.16666   0.38264   0.00000  Uiso   1.00
N589   N     0.88528   0.29368   0.43316   0.00000  Uiso   1.00
N590   N     0.78140   0.03965   0.56686   0.00000  Uiso   1.00
O591   O     0.83333   0.10655   0.53958   0.00000  Uiso   1.00
O592   O     0.90429   0.21299   0.62585   0.00000  Uiso   1.00
O593   O     0.83334   0.22678   0.46042   0.00000  Uiso   1.00
O594   O     0.83333   0.10654   0.46039   0.00000  Uiso   1.00
O595   O     0.83334   0.22679   0.53961   0.00000  Uiso   1.00
O596   O     0.75828   0.16667   0.53046   0.00000  Uiso   1.00
O597   O     0.90839   0.16666   0.46954   0.00000  Uiso   1.00
O598   O     0.75828   0.16666   0.45127   0.00000  Uiso   1.00
O599   O     0.90839   0.16667   0.54873   0.00000  Uiso   1.00
O600   O     0.76238   0.12034   0.37415   0.00000  Uiso   1.00
C601   C     0.16608   0.42076   0.50027   0.00000  Uiso   1.00
C602   C     0.14164   0.35333   0.53367   0.00000  Uiso   1.00
C603   C     0.16706   0.62386   0.49899   0.00000  Uiso   1.00
C604   C     0.16627   0.37614   0.50101   0.00000  Uiso   1.00
C605   C     0.13104   0.47713   0.35392   0.00000  Uiso   1.00
C606   C     0.20229   0.52287   0.64608   0.00000  Uiso   1.00
C607   C     0.13111   0.47752   0.63741   0.00000  Uiso   1.00
C608   C     0.20222   0.52248   0.36259   0.00000  Uiso   1.00
C609   C     0.19267   0.62940   0.38510   0.00000  Uiso   1.00
C610   C     0.14072   0.37063   0.61490   0.00000  Uiso   1.00
C611   C     0.16726   0.57924   0.49973   0.00000  Uiso   1.00
C612   C     0.06791   0.49998   0.48787   0.00000  Uiso   1.00
C613   C     0.26542   0.50002   0.51213   0.00000  Uiso   1.00
C614   C     0.01257   0.50001   0.48124   0.00000  Uiso   1.00
C615   C     0.32076   0.49999   0.51876   0.00000  Uiso   1.00
C616   C     0.19138   0.35608   0.46797   0.00000  Uiso   1.00
C617   C     0.14195   0.64392   0.53204   0.00000  Uiso   1.00
C618   C     0.19170   0.64667   0.46634   0.00000  Uiso   1.00
Cu619  Cu    0.16667   0.50001   0.54689   0.00000  Uiso   1.00
Cu620  Cu    0.16667   0.49999   0.45311   0.00000  Uiso   1.00
H621   H     0.32577   0.50007   0.44530   0.00000  Uiso   1.00
H622   H     0.21558   0.61319   0.36139   0.00000  Uiso   1.00
H623   H     0.07682   0.36333   0.56444   0.00000  Uiso   1.00
H624   H     0.14475   0.33803   0.62686   0.00000  Uiso   1.00
H625   H     0.11781   0.38682   0.63863   0.00000  Uiso   1.00
H626   H     0.17945   0.38539   0.61756   0.00000  Uiso   1.00
H627   H     0.07230   0.43967   0.34888   0.00000  Uiso   1.00
H628   H     0.26103   0.56033   0.65112   0.00000  Uiso   1.00
H629   H     0.00756   0.49993   0.55470   0.00000  Uiso   1.00
H630   H     0.21117   0.37365   0.44342   0.00000  Uiso   1.00
H631   H     0.12217   0.62635   0.55659   0.00000  Uiso   1.00
H632   H     0.10276   0.45972   0.61478   0.00000  Uiso   1.00
H633   H     0.23057   0.54028   0.38522   0.00000  Uiso   1.00
H634   H     0.25654   0.63664   0.43561   0.00000  Uiso   1.00
H635   H     0.18871   0.66201   0.37315   0.00000  Uiso   1.00
H636   H     0.15392   0.61468   0.38240   0.00000  Uiso   1.00
N637   N     0.16668   0.50001   0.61736   0.00000  Uiso   1.00
N638   N     0.16665   0.49999   0.38264   0.00000  Uiso   1.00
N639   N     0.21862   0.62701   0.43316   0.00000  Uiso   1.00
N640   N     0.11473   0.37299   0.56686   0.00000  Uiso   1.00
O641   O     0.16666   0.43989   0.53958   0.00000  Uiso   1.00
O642   O     0.23762   0.54633   0.62585   0.00000  Uiso   1.00
O643   O     0.16667   0.56011   0.46042   0.00000  Uiso   1.00
O644   O     0.16666   0.43988   0.46039   0.00000  Uiso   1.00
O645   O     0.16667   0.56012   0.53961   0.00000  Uiso   1.00
O646   O     0.09161   0.50000   0.53046   0.00000  Uiso   1.00
O647   O     0.24172   0.50000   0.46954   0.00000  Uiso   1.00
O648   O     0.09161   0.49999   0.45127   0.00000  Uiso   1.00
O649   O     0.24172   0.50001   0.54873   0.00000  Uiso   1.00
O650   O     0.09571   0.45367   0.37415   0.00000  Uiso   1.00
C651   C     0.49941   0.42076   0.50027   0.00000  Uiso   1.00
C652   C     0.47497   0.35333   0.53367   0.00000  Uiso   1.00
C653   C     0.50040   0.62386   0.49899   0.00000  Uiso   1.00
C654   C     0.49960   0.37614   0.50101   0.00000  Uiso   1.00
C655   C     0.46437   0.47713   0.35392   0.00000  Uiso   1.00
C656   C     0.53563   0.52287   0.64608   0.00000  Uiso   1.00
C657   C     0.46444   0.47752   0.63741   0.00000  Uiso   1.00
C658   C     0.53555   0.52248   0.36259   0.00000  Uiso   1.00
C659   C     0.52601   0.62940   0.38510   0.00000  Uiso   1.00
C660   C     0.47405   0.37063   0.61490   0.00000  Uiso   1.00
C661   C     0.50059   0.57924   0.49973   0.00000  Uiso   1.00
C662   C     0.40124   0.49998   0.48787   0.00000  Uiso   1.00
C663   C     0.59876   0.50002   0.51213   0.00000  Uiso   1.00
C664   C     0.34590   0.50001   0.48124   0.00000  Uiso   1.00
C665   C     0.65410   0.49999   0.51876   0.00000  Uiso   1.00
C666   C     0.52472   0.35608   0.46797   0.00000  Uiso   1.00
C667   C     0.47529   0.64392   0.53204   0.00000  Uiso   1.00
C668   C     0.52503   0.64667   0.46634   0.00000  Uiso   1.00
Cu669  Cu    0.50000   0.50001   0.54689   0.00000  Uiso   1.00
Cu670  Cu    0.50000   0.49999   0.45311   0.00000  Uiso   1.00
H671   H     0.65911   0.50007   0.44530   0.00000  Uiso   1.00
H672   H     0.54892   0.61319   0.36139   0.00000  Uiso   1.00
H673   H     0.41016   0.36333   0.56444   0.00000  Uiso   1.00
H674   H     0.47808   0.33803   0.62686   0.00000  Uiso   1.00
H675   H     0.45114   0.38682   0.63863   0.00000  Uiso   1.00
H676   H     0.51279   0.38539   0.61756   0.00000  Uiso   1.00
H677   H     0.40564   0.43967   0.34888   0.00000  Uiso   1.00
H678   H     0.59436   0.56033   0.65112   0.00000  Uiso   1.00
H679   H     0.34089   0.49993   0.55470   0.00000  Uiso   1.00
H680   H     0.54451   0.37365   0.44342   0.00000  Uiso   1.00
H681   H     0.45550   0.62635   0.55659   0.00000  Uiso   1.00
H682   H     0.43609   0.45972   0.61478   0.00000  Uiso   1.00
H683   H     0.56391   0.54028   0.38522   0.00000  Uiso   1.00
H684   H     0.58987   0.63664   0.43561   0.00000  Uiso   1.00
H685   H     0.52205   0.66201   0.37315   0.00000  Uiso   1.00
H686   H     0.48725   0.61468   0.38240   0.00000  Uiso   1.00
N687   N     0.50001   0.50001   0.61736   0.00000  Uiso   1.00
N688   N     0.49999   0.49999   0.38264   0.00000  Uiso   1.00
N689   N     0.55195   0.62701   0.43316   0.00000  Uiso   1.00
N690   N     0.44807   0.37299   0.56686   0.00000  Uiso   1.00
O691   O     0.50000   0.43989   0.53958   0.00000  Uiso   1.00
O692   O     0.57095   0.54633   0.62585   0.00000  Uiso   1.00
O693   O     0.50000   0.56011   0.46042   0.00000  Uiso   1.00
O694   O     0.50000   0.43988   0.46039   0.00000  Uiso   1.00
O695   O     0.50000   0.56012   0.53961   0.00000  Uiso   1.00
O696   O     0.42495   0.50000   0.53046   0.00000  Uiso   1.00
O697   O     0.57505   0.50000   0.46954   0.00000  Uiso   1.00
O698   O     0.42494   0.49999   0.45127   0.00000  Uiso   1.00
O699   O     0.57506   0.50001   0.54873   0.00000  Uiso   1.00
O700   O     0.42905   0.45367   0.37415   0.00000  Uiso   1.00
C701   C     0.83275   0.42076   0.50027   0.00000  Uiso   1.00
C702   C     0.80830   0.35333   0.53367   0.00000  Uiso   1.00
C703   C     0.83373   0.62386   0.49899   0.00000  Uiso   1.00
C704   C     0.83294   0.37614   0.50101   0.00000  Uiso   1.00
C705   C     0.79771   0.47713   0.35392   0.00000  Uiso   1.00
C706   C     0.86896   0.52287   0.64608   0.00000  Uiso   1.00
C707   C     0.79778   0.47752   0.63741   0.00000  Uiso   1.00
C708   C     0.86889   0.52248   0.36259   0.00000  Uiso   1.00
C709   C     0.85934   0.62940   0.38510   0.00000  Uiso   1.00
C710   C     0.80739   0.37063   0.61490   0.00000  Uiso   1.00
C711   C     0.83392   0.57924   0.49973   0.00000  Uiso   1.00
C712   C     0.73458   0.49998   0.48787   0.00000  Uiso   1.00
C713   C     0.93209   0.50002   0.51213   0.00000  Uiso   1.00
C714   C     0.67923   0.50001   0.48124   0.00000  Uiso   1.00
C715   C     0.98743   0.49999   0.51876   0.00000  Uiso   1.00
C716   C     0.85805   0.35608   0.46797   0.00000  Uiso   1.00
C717   C     0.80862   0.64392   0.53204   0.00000  Uiso   1.00
C718   C     0.85837   0.64667   0.46634   0.00000  Uiso   1.00
Cu719  Cu    0.83333   0.50001   0.54689   0.00000  Uiso   1.00
Cu720  Cu    0.83333   0.49999   0.45311   0.00000  Uiso   1.00
H721   H     0.99244   0.50007   0.44530   0.00000  Uiso   1.00
H722   H     0.88225   0.61319   0.36139   0.00000  Uiso   1.00
H723   H     0.74349   0.36333   0.56444   0.00000  Uiso   1.00
H724   H     0.81141   0.33803   0.62686   0.00000  Uiso   1.00
H725   H     0.78447   0.38682   0.63863   0.00000  Uiso   1.00
H726   H     0.84612   0.38539   0.61756   0.00000  Uiso   1.00
H727   H     0.73897   0.43967   0.34888   0.00000  Uiso   1.00
H728   H     0.92770   0.56033   0.65112   0.00000  Uiso   1.00
H729   H     0.67423   0.49993   0.55470   0.00000  Uiso   1.00
H730   H     0.87784   0.37365   0.44342   0.00000  Uiso   1.00
H731   H     0.78883   0.62635   0.55659   0.00000  Uiso   1.00
H732   H     0.76943   0.45972   0.61478   0.00000  Uiso   1.00
H733   H     0.89724   0.54028   0.38522   0.00000  Uiso   1.00
H734   H     0.92320   0.63664   0.43561   0.00000  Uiso   1.00
H735   H     0.85538   0.66201   0.37315   0.00000  Uiso   1.00
H736   H     0.82058   0.61468   0.38240   0.00000  Uiso   1.00
N737   N     0.83335   0.50001   0.61736   0.00000  Uiso   1.00
N738   N     0.83332   0.49999   0.38264   0.00000  Uiso   1.00
N739   N     0.88528   0.62701   0.43316   0.00000  Uiso   1.00
N740   N     0.78140   0.37299   0.56686   0.00000  Uiso   1.00
O741   O     0.83333   0.43989   0.53958   0.00000  Uiso   1.00
O742   O     0.90429   0.54633   0.62585   0.00000  Uiso   1.00
O743   O     0.83334   0.56011   0.46042   0.00000  Uiso   1.00
O744   O     0.83333   0.43988   0.46039   0.00000  Uiso   1.00
O745   O     0.83334   0.56012   0.53961   0.00000  Uiso   1.00
O746   O     0.75828   0.50000   0.53046   0.00000  Uiso   1.00
O747   O     0.90839   0.50000   0.46954   0.00000  Uiso   1.00
O748   O     0.75828   0.49999   0.45127   0.00000  Uiso   1.00
O749   O     0.90839   0.50001   0.54873   0.00000  Uiso   1.00
O750   O     0.76238   0.45367   0.37415   0.00000  Uiso   1.00
C751   C     0.16608   0.75409   0.50027   0.00000  Uiso   1.00
C752   C     0.14164   0.68666   0.53367   0.00000  Uiso   1.00
C753   C     0.16706   0.95719   0.49899   0.00000  Uiso   1.00
C754   C     0.16627   0.70948   0.50101   0.00000  Uiso   1.00
C755   C     0.13104   0.81046   0.35392   0.00000  Uiso   1.00
C756   C     0.20229   0.85620   0.64608   0.00000  Uiso   1.00
C757   C     0.13111   0.81085   0.63741   0.00000  Uiso   1.00
C758   C     0.20222   0.85582   0.36259   0.00000  Uiso   1.00
C759   C     0.19267   0.96274   0.38510   0.00000  Uiso   1.00
C760   C     0.14072   0.70396   0.61490   0.00000  Uiso   1.00
C761   C     0.16726   0.91258   0.49973   0.00000  Uiso   1.00
C762   C     0.06791   0.83331   0.48787   0.00000  Uiso   1.00
C763   C     0.26542   0.83336   0.51213   0.00000  Uiso   1.00
C764   C     0.01257   0.83334   0.48124   0.00000  Uiso   1.00
C765   C     0.32076   0.83332   0.51876   0.00000  Uiso   1.00
C766   C     0.19138   0.68941   0.46797   0.00000  Uiso   1.00
C767   C     0.14195   0.97726   0.53204   0.00000  Uiso   1.00
C768   C     0.19170   0.98001   0.46634   0.00000  Uiso   1.00
Cu769  Cu    0.16667   0.83334   0.54689   0.00000  Uiso   1.00
Cu770  Cu    0.16667   0.83333   0.45311   0.00000  Uiso   1.00
H771   H     0.32577   0.83340   0.44530   0.00000  Uiso   1.00
H772   H     0.21558   0.94652   0.36139   0.00000  Uiso   1.00
H773   H     0.07682   0.69666   0.56444   0.00000  Uiso   1.00
H774   H     0.14475   0.67136   0.62686   0.00000  Uiso   1.00
H775   H     0.11781   0.72015   0.63863   0.00000  Uiso   1.00
H776   H     0.17945   0.71872   0.61756   0.00000  Uiso   1.00
H777   H     0.07230   0.77300   0.34888   0.00000  Uiso   1.00
H778   H     0.26103   0.89366   0.65112   0.00000  Uiso   1.00
H779   H     0.00756   0.83326   0.55470   0.00000  Uiso   1.00
H780   H     0.21117   0.70698   0.44342   0.00000  Uiso   1.00
H781   H     0.12217   0.95968   0.55659   0.00000  Uiso   1.00
H782   H     0.10276   0.79305   0.61478   0.00000  Uiso   1.00
H783   H     0.23057   0.87362   0.38522   0.00000  Uiso   1.00
H784   H     0.25654   0.96997   0.43561   0.00000  Uiso   1.00
H785   H     0.18871   0.99534   0.37315   0.00000  Uiso   1.00
H786   H     0.15392   0.94801   0.38240   0.00000  Uiso   1.00
N787   N     0.16668   0.83334   0.61736   0.00000  Uiso   1.00
N788   N     0.16665   0.83332   0.38264   0.00000  Uiso   1.00
N789   N     0.21862   0.96034   0.43316   0.00000  Uiso   1.00
N790   N     0.11473   0.70632   0.56686   0.00000  Uiso   1.00
O791   O     0.16666   0.77322   0.53958   0.00000  Uiso   1.00
O792   O     0.23762   0.87966   0.62585   0.00000  Uiso   1.00
O793   O     0.16667   0.89345   0.46042   0.00000  Uiso   1.00
O794   O     0.16666   0.77321   0.46039   0.00000  Uiso   1.00
O795   O     0.16667   0.89346   0.53961   0.00000  Uiso   1.00
O796   O     0.09161   0.83334   0.53046   0.00000  Uiso   1.00
O797   O     0.24172   0.83333   0.46954   0.00000  Uiso   1.00
O798   O     0.09161   0.83333   0.45127   0.00000  Uiso   1.00
O799   O     0.24172   0.83334   0.54873   0.00000  Uiso   1.00
O800   O     0.09571   0.78701   0.37415   0.00000  Uiso   1.00
C801   C     0.49941   0.75409   0.50027   0.00000  Uiso   1.00
C802   C     0.47497   0.68666   0.53367   0.00000  Uiso   1.00
C803   C     0.50040   0.95719   0.49899   0.00000  Uiso   1.00
C804   C     0.49960   0.70948   0.50101   0.00000  Uiso   1.00
C805   C     0.46437   0.81046   0.35392   0.00000  Uiso   1.00
C806   C     0.53563   0.85620   0.64608   0.00000  Uiso   1.00
C807   C     0.46444   0.81085   0.63741   0.00000  Uiso   1.00
C808   C     0.53555   0.85582   0.36259   0.00000  Uiso   1.00
C809   C     0.52601   0.96274   0.38510   0.00000  Uiso   1.00
C810   C     0.47405   0.70396   0.61490   0.00000  Uiso   1.00
C811   C     0.50059   0.91258   0.49973   0.00000  Uiso   1.00
C812   C     0.40124   0.83331   0.48787   0.00000  Uiso   1.00
C813   C     0.59876   0.83336   0.51213   0.00000  Uiso   1.00
C814   C     0.34590   0.83334   0.48124   0.00000  Uiso   1.00
C815   C     0.65410   0.83332   0.51876   0.00000  Uiso   1.00
C816   C     0.52472   0.68941   0.46797   0.00000  Uiso   1.00
C817   C     0.47529   0.97726   0.53204   0.00000  Uiso   1.00
C818   C     0.52503   0.98001   0.46634   0.00000  Uiso   1.00
Cu819  Cu    0.50000   0.83334   0.54689   0.00000  Uiso   1.00
Cu820  Cu    0.50000   0.83333   0.45311   0.00000  Uiso   1.00
H821   H     0.65911   0.83340   0.44530   0.00000  Uiso   1.00
H822   H     0.54892   0.94652   0.36139   0.00000  Uiso   1.00
H823   H     0.41016   0.69666   0.56444   0.00000  Uiso   1.00
H824   H     0.47808   0.67136   0.62686   0.00000  Uiso   1.00
H825   H     0.45114   0.72015   0.63863   0.00000  Uiso   1.00
H826   H     0.51279   0.71872   0.61756   0.00000  Uiso   1.00
H827   H     0.40564   0.77300   0.34888   0.00000  Uiso   1.00
H828   H     0.59436   0.89366   0.65112   0.00000  Uiso   1.00
H829   H     0.34089   0.83326   0.55470   0.00000  Uiso   1.00
H830   H     0.54451   0.70698   0.44342   0.00000  Uiso   1.00
H831   H     0.45550   0.95968   0.55659   0.00000  Uiso   1.00
H832   H     0.43609   0.79305   0.61478   0.00000  Uiso   1.00
H833   H     0.56391   0.87362   0.38522   0.00000  Uiso   1.00
H834   H     0.58987   0.96997   0.43561   0.00000  Uiso   1.00
H835   H     0.52205   0.99534   0.37315   0.00000  Uiso   1.00
H836   H     0.48725   0.94801   0.38240   0.00000  Uiso   1.00
N837   N     0.50001   0.83334   0.61736   0.00000  Uiso   1.00
N838   N     0.49999   0.83332   0.38264   0.00000  Uiso   1.00
N839   N     0.55195   0.96034   0.43316   0.00000  Uiso   1.00
N840   N     0.44807   0.70632   0.56686   0.00000  Uiso   1.00
O841   O     0.50000   0.77322   0.53958   0.00000  Uiso   1.00
O842   O     0.57095   0.87966   0.62585   0.00000  Uiso   1.00
O843   O     0.50000   0.89345   0.46042   0.00000  Uiso   1.00
O844   O     0.50000   0.77321   0.46039   0.00000  Uiso   1.00
O845   O     0.50000   0.89346   0.53961   0.00000  Uiso   1.00
O846   O     0.42495   0.83334   0.53046   0.00000  Uiso   1.00
O847   O     0.57505   0.83333   0.46954   0.00000  Uiso   1.00
O848   O     0.42494   0.83333   0.45127   0.00000  Uiso   1.00
O849   O     0.57506   0.83334   0.54873   0.00000  Uiso   1.00
O850   O     0.42905   0.78701   0.37415   0.00000  Uiso   1.00
C851   C     0.83275   0.75409   0.50027   0.00000  Uiso   1.00
C852   C     0.80830   0.68666   0.53367   0.00000  Uiso   1.00
C853   C     0.83373   0.95719   0.49899   0.00000  Uiso   1.00
C854   C     0.83294   0.70948   0.50101   0.00000  Uiso   1.00
C855   C     0.79771   0.81046   0.35392   0.00000  Uiso   1.00
C856   C     0.86896   0.85620   0.64608   0.00000  Uiso   1.00
C857   C     0.79778   0.81085   0.63741   0.00000  Uiso   1.00
C858   C     0.86889   0.85582   0.36259   0.00000  Uiso   1.00
C859   C     0.85934   0.96274   0.38510   0.00000  Uiso   1.00
C860   C     0.80739   0.70396   0.61490   0.00000  Uiso   1.00
C861   C     0.83392   0.91258   0.49973   0.00000  Uiso   1.00
C862   C     0.73458   0.83331   0.48787   0.00000  Uiso   1.00
C863   C     0.93209   0.83336   0.51213   0.00000  Uiso   1.00
C864   C     0.67923   0.83334   0.48124   0.00000  Uiso   1.00
C865   C     0.98743   0.83332   0.51876   0.00000  Uiso   1.00
C866   C     0.85805   0.68941   0.46797   0.00000  Uiso   1.00
C867   C     0.80862   0.97726   0.53204   0.00000  Uiso   1.00
C868   C     0.85837   0.98001   0.46634   0.00000  Uiso   1.00
Cu869  Cu    0.83333   0.83334   0.54689   0.00000  Uiso   1.00
Cu870  Cu    0.83333   0.83333   0.45311   0.00000  Uiso   1.00
H871   H     0.99244   0.83340   0.44530   0.00000  Uiso   1.00
H872   H     0.88225   0.94652   0.36139   0.00000  Uiso   1.00
H873   H     0.74349   0.69666   0.56444   0.00000  Uiso   1.00
H874   H     0.81141   0.67136   0.62686   0.00000  Uiso   1.00
H875   H     0.78447   0.72015   0.63863   0.00000  Uiso   1.00
H876   H     0.84612   0.71872   0.61756   0.00000  Uiso   1.00
H877   H     0.73897   0.77300   0.34888   0.00000  Uiso   1.00
H878   H     0.92770   0.89366   0.65112   0.00000  Uiso   1.00
H879   H     0.67423   0.83326   0.55470   0.00000  Uiso   1.00
H880   H     0.87784   0.70698   0.44342   0.00000  Uiso   1.00
H881   H     0.78883   0.95968   0.55659   0.00000  Uiso   1.00
H882   H     0.76943   0.79305   0.61478   0.00000  Uiso   1.00
H883   H     0.89724   0.87362   0.38522   0.00000  Uiso   1.00
H884   H     0.92320   0.96997   0.43561   0.00000  Uiso   1.00
H885   H     0.85538   0.99534   0.37315   0.00000  Uiso   1.00
H886   H     0.82058   0.94801   0.38240   0.00000  Uiso   1.00
N887   N     0.83335   0.83334   0.61736   0.00000  Uiso   1.00
N888   N     0.83332   0.83332   0.38264   0.00000  Uiso   1.00
N889   N     0.88528   0.96034   0.43316   0.00000  Uiso   1.00
N890   N     0.78140   0.70632   0.56686   0.00000  Uiso   1.00
O891   O     0.83333   0.77322   0.53958   0.00000  Uiso   1.00
O892   O     0.90429   0.87966   0.62585   0.00000  Uiso   1.00
O893   O     0.83334   0.89345   0.46042   0.00000  Uiso   1.00
O894   O     0.83333   0.77321   0.46039   0.00000  Uiso   1.00
O895   O     0.83334   0.89346   0.53961   0.00000  Uiso   1.00
O896   O     0.75828   0.83334   0.53046   0.00000  Uiso   1.00
O897   O     0.90839   0.83333   0.46954   0.00000  Uiso   1.00
O898   O     0.75828   0.83333   0.45127   0.00000  Uiso   1.00
O899   O     0.90839   0.83334   0.54873   0.00000  Uiso   1.00
O900   O     0.76238   0.78701   0.37415   0.00000  Uiso   1.00
C901   C     0.16608   0.08742   0.83361   0.00000  Uiso   1.00
C902   C     0.14164   0.01999   0.86700   0.00000  Uiso   1.00
C903   C     0.16706   0.29052   0.83232   0.00000  Uiso   1.00
C904   C     0.16627   0.04281   0.83434   0.00000  Uiso   1.00
C905   C     0.13104   0.14380   0.68726   0.00000  Uiso   1.00
C906   C     0.20229   0.18954   0.97941   0.00000  Uiso   1.00
C907   C     0.13111   0.14418   0.97074   0.00000  Uiso   1.00
C908   C     0.20222   0.18915   0.69592   0.00000  Uiso   1.00
C909   C     0.19267   0.29607   0.71843   0.00000  Uiso   1.00
C910   C     0.14072   0.03729   0.94824   0.00000  Uiso   1.00
C911   C     0.16726   0.24591   0.83306   0.00000  Uiso   1.00
C912   C     0.06791   0.16664   0.82120   0.00000  Uiso   1.00
C913   C     0.26542   0.16669   0.84546   0.00000  Uiso   1.00
C914   C     0.01257   0.16668   0.81457   0.00000  Uiso   1.00
C915   C     0.32076   0.16666   0.85209   0.00000  Uiso   1.00
C916   C     0.19138   0.02274   0.80130   0.00000  Uiso   1.00
C917   C     0.14195   0.31059   0.86537   0.00000  Uiso   1.00
C918   C     0.19170   0.31334   0.79967   0.00000  Uiso   1.00
Cu919  Cu    0.16667   0.16667   0.88022   0.00000  Uiso   1.00
Cu920  Cu    0.16667   0.16666   0.78645   0.00000  Uiso   1.00
H921   H     0.32577   0.16674   0.77863   0.00000  Uiso   1.00
H922   H     0.21558   0.27986   0.69472   0.00000  Uiso   1.00
H923   H     0.07682   0.03000   0.89778   0.00000  Uiso   1.00
H924   H     0.14475   0.00469   0.96019   0.00000  Uiso   1.00
H925   H     0.11781   0.05349   0.97196   0.00000  Uiso   1.00
H926   H     0.17945   0.05206   0.95090   0.00000  Uiso   1.00
H927   H     0.07230   0.10634   0.68221   0.00000  Uiso   1.00
H928   H     0.26103   0.22700   0.98445   0.00000  Uiso   1.00
H929   H     0.00756   0.16660   0.88803   0.00000  Uiso   1.00
H930   H     0.21117   0.04032   0.77675   0.00000  Uiso   1.00
H931   H     0.12217   0.29302   0.88992   0.00000  Uiso   1.00
H932   H     0.10276   0.12639   0.94811   0.00000  Uiso   1.00
H933   H     0.23057   0.20695   0.71856   0.00000  Uiso   1.00
H934   H     0.25654   0.30331   0.76894   0.00000  Uiso   1.00
H935   H     0.18871   0.32867   0.70648   0.00000  Uiso   1.00
H936   H     0.15392   0.28135   0.71574   0.00000  Uiso   1.00
N937   N     0.16668   0.16668   0.95069   0.00000  Uiso   1.00
N938   N     0.16665   0.16666   0.71597   0.00000  Uiso   1.00
N939   N     0.21862   0.29368   0.76649   0.00000  Uiso   1.00
N940   N     0.11473   0.03965   0.90019   0.00000  Uiso   1.00
O941   O     0.16666   0.10655   0.87291   0.00000  Uiso   1.00
O942   O     0.23762   0.21299   0.95918   0.00000  Uiso   1.00
O943   O     0.16667   0.22678   0.79375   0.00000  Uiso   1.00
O944   O     0.16666   0.10654   0.79372   0.00000  Uiso   1.00
O945   O     0.16667   0.22679   0.87294   0.00000  Uiso   1.00
O946   O     0.09161   0.16667   0.86379   0.00000  Uiso   1.00
O947   O     0.24172   0.16666   0.80288   0.00000  Uiso   1.00
O948   O     0.09161   0.16666   0.78460   0.00000  Uiso   1.00
O949   O     0.24172   0.16667   0.88207   0.00000  Uiso   1.00
O950   O     0.09571   0.12034   0.70748   0.00000  Uiso   1.00
C951   C     0.49941   0.08742   0.83361   0.00000  Uiso   1.00
C952   C     0.47497   0.01999   0.86700   0.00000  Uiso   1.00
C953   C     0.50040   0.29052   0.83232   0.00000  Uiso   1.00
C954   C     0.49960   0.04281   0.83434   0.00000  Uiso   1.00
C955   C     0.46437   0.14380   0.68726   0.00000  Uiso   1.00
C956   C     0.53563   0.18954   0.97941   0.00000  Uiso   1.00
C957   C     0.46444   0.14418   0.97074   0.00000  Uiso   1.00
C958   C     0.53555   0.18915   0.69592   0.00000  Uiso   1.00
C959   C     0.52601   0.29607   0.71843   0.00000  Uiso   1.00
C960   C     0.47405   0.03729   0.94824   0.00000  Uiso   1.00
C961   C     0.50059   0.24591   0.83306   0.00000  Uiso   1.00
C962   C     0.40124   0.16664   0.82120   0.00000  Uiso   1.00
C963   C     0.59876   0.16669   0.84546   0.00000  Uiso   1.00
C964   C     0.34590   0.16668   0.81457   0.00000  Uiso   1.00
C965   C     0.65410   0.16666   0.85209   0.00000  Uiso   1.00
C966   C     0.52472   0.02274   0.80130   0.00000  Uiso   1.00
C967   C     0.47529   0.31059   0.86537   0.00000  Uiso   1.00
C968   C     0.52503   0.31334   0.79967   0.00000  Uiso   1.00
Cu969  Cu    0.50000   0.16667   0.88022   0.00000  Uiso   1.00
Cu970  Cu    0.50000   0.16666   0.78645   0.00000  Uiso   1.00
H971   H     0.65911   0.16674   0.77863   0.00000  Uiso   1.00
H972   H     0.54892   0.27986   0.69472   0.00000  Uiso   1.00
H973   H     0.41016   0.03000   0.89778   0.00000  Uiso   1.00
H974   H     0.47808   0.00469   0.96019   0.00000  Uiso   1.00
H975   H     0.45114   0.05349   0.97196   0.00000  Uiso   1.00
H976   H     0.51279   0.05206   0.95090   0.00000  Uiso   1.00
H977   H     0.40564   0.10634   0.68221   0.00000  Uiso   1.00
H978   H     0.59436   0.22700   0.98445   0.00000  Uiso   1.00
H979   H     0.34089   0.16660   0.88803   0.00000  Uiso   1.00
H980   H     0.54451   0.04032   0.77675   0.00000  Uiso   1.00
H981   H     0.45550   0.29302   0.88992   0.00000  Uiso   1.00
H982   H     0.43609   0.12639   0.94811   0.00000  Uiso   1.00
H983   H     0.56391   0.20695   0.71856   0.00000  Uiso   1.00
H984   H     0.58987   0.30331   0.76894   0.00000  Uiso   1.00
H985   H     0.52205   0.32867   0.70648   0.00000  Uiso   1.00
H986   H     0.48725   0.28135   0.71574   0.00000  Uiso   1.00
N987   N     0.50001   0.16668   0.95069   0.00000  Uiso   1.00
N988   N     0.49999   0.16666   0.71597   0.00000  Uiso   1.00
N989   N     0.55195   0.29368   0.76649   0.00000  Uiso   1.00
N990   N     0.44807   0.03965   0.90019   0.00000  Uiso   1.00
O991   O     0.50000   0.10655   0.87291   0.00000  Uiso   1.00
O992   O     0.57095   0.21299   0.95918   0.00000  Uiso   1.00
O993   O     0.50000   0.22678   0.79375   0.00000  Uiso   1.00
O994   O     0.50000   0.10654   0.79372   0.00000  Uiso   1.00
O995   O     0.50000   0.22679   0.87294   0.00000  Uiso   1.00
O996   O     0.42495   0.16667   0.86379   0.00000  Uiso   1.00
O997   O     0.57505   0.16666   0.80288   0.00000  Uiso   1.00
O998   O     0.42494   0.16666   0.78460   0.00000  Uiso   1.00
O999   O     0.57506   0.16667   0.88207   0.00000  Uiso   1.00
O1000  O     0.42905   0.12034   0.70748   0.00000  Uiso   1.00
C1001  C     0.83275   0.08742   0.83361   0.00000  Uiso   1.00
C1002  C     0.80830   0.01999   0.86700   0.00000  Uiso   1.00
C1003  C     0.83373   0.29052   0.83232   0.00000  Uiso   1.00
C1004  C     0.83294   0.04281   0.83434   0.00000  Uiso   1.00
C1005  C     0.79771   0.14380   0.68726   0.00000  Uiso   1.00
C1006  C     0.86896   0.18954   0.97941   0.00000  Uiso   1.00
C1007  C     0.79778   0.14418   0.97074   0.00000  Uiso   1.00
C1008  C     0.86889   0.18915   0.69592   0.00000  Uiso   1.00
C1009  C     0.85934   0.29607   0.71843   0.00000  Uiso   1.00
C1010  C     0.80739   0.03729   0.94824   0.00000  Uiso   1.00
C1011  C     0.83392   0.24591   0.83306   0.00000  Uiso   1.00
C1012  C     0.73458   0.16664   0.82120   0.00000  Uiso   1.00
C1013  C     0.93209   0.16669   0.84546   0.00000  Uiso   1.00
C1014  C     0.67923   0.16668   0.81457   0.00000  Uiso   1.00
C1015  C     0.98743   0.16666   0.85209   0.00000  Uiso   1.00
C1016  C     0.85805   0.02274   0.80130   0.00000  Uiso   1.00
C1017  C     0.80862   0.31059   0.86537   0.00000  Uiso   1.00
C1018  C     0.85837   0.31334   0.79967   0.00000  Uiso   1.00
Cu1019 Cu    0.83333   0.16667   0.88022   0.00000  Uiso   1.00
Cu1020 Cu    0.83333   0.16666   0.78645   0.00000  Uiso   1.00
H1021  H     0.99244   0.16674   0.77863   0.00000  Uiso   1.00
H1022  H     0.88225   0.27986   0.69472   0.00000  Uiso   1.00
H1023  H     0.74349   0.03000   0.89778   0.00000  Uiso   1.00
H1024  H     0.81141   0.00469   0.96019   0.00000  Uiso   1.00
H1025  H     0.78447   0.05349   0.97196   0.00000  Uiso   1.00
H1026  H     0.84612   0.05206   0.95090   0.00000  Uiso   1.00
H1027  H     0.73897   0.10634   0.68221   0.00000  Uiso   1.00
H1028  H     0.92770   0.22700   0.98445   0.00000  Uiso   1.00
H1029  H     0.67423   0.16660   0.88803   0.00000  Uiso   1.00
H1030  H     0.87784   0.04032   0.77675   0.00000  Uiso   1.00
H1031  H     0.78883   0.29302   0.88992   0.00000  Uiso   1.00
H1032  H     0.76943   0.12639   0.94811   0.00000  Uiso   1.00
H1033  H     0.89724   0.20695   0.71856   0.00000  Uiso   1.00
H1034  H     0.92320   0.30331   0.76894   0.00000  Uiso   1.00
H1035  H     0.85538   0.32867   0.70648   0.00000  Uiso   1.00
H1036  H     0.82058   0.28135   0.71574   0.00000  Uiso   1.00
N1037  N     0.83335   0.16668   0.95069   0.00000  Uiso   1.00
N1038  N     0.83332   0.16666   0.71597   0.00000  Uiso   1.00
N1039  N     0.88528   0.29368   0.76649   0.00000  Uiso   1.00
N1040  N     0.78140   0.03965   0.90019   0.00000  Uiso   1.00
O1041  O     0.83333   0.10655   0.87291   0.00000  Uiso   1.00
O1042  O     0.90429   0.21299   0.95918   0.00000  Uiso   1.00
O1043  O     0.83334   0.22678   0.79375   0.00000  Uiso   1.00
O1044  O     0.83333   0.10654   0.79372   0.00000  Uiso   1.00
O1045  O     0.83334   0.22679   0.87294   0.00000  Uiso   1.00
O1046  O     0.75828   0.16667   0.86379   0.00000  Uiso   1.00
O1047  O     0.90839   0.16666   0.80288   0.00000  Uiso   1.00
O1048  O     0.75828   0.16666   0.78460   0.00000  Uiso   1.00
O1049  O     0.90839   0.16667   0.88207   0.00000  Uiso   1.00
O1050  O     0.76238   0.12034   0.70748   0.00000  Uiso   1.00
C1051  C     0.16608   0.42076   0.83361   0.00000  Uiso   1.00
C1052  C     0.14164   0.35333   0.86700   0.00000  Uiso   1.00
C1053  C     0.16706   0.62386   0.83232   0.00000  Uiso   1.00
C1054  C     0.16627   0.37614   0.83434   0.00000  Uiso   1.00
C1055  C     0.13104   0.47713   0.68726   0.00000  Uiso   1.00
C1056  C     0.20229   0.52287   0.97941   0.00000  Uiso   1.00
C1057  C     0.13111   0.47752   0.97074   0.00000  Uiso   1.00
C1058  C     0.20222   0.52248   0.69592   0.00000  Uiso   1.00
C1059  C     0.19267   0.62940   0.71843   0.00000  Uiso   1.00
C1060  C     0.14072   0.37063   0.94824   0.00000  Uiso   1.00
C1061  C     0.16726   0.57924   0.83306   0.00000  Uiso   1.00
C1062  C     0.06791   0.49998   0.82120   0.00000  Uiso   1.00
C1063  C     0.26542   0.50002   0.84546   0.00000  Uiso   1.00
C1064  C     0.01257   0.50001   0.81457   0.00000  Uiso   1.00
C1065  C     0.32076   0.49999   0.85209   0.00000  Uiso   1.00
C1066  C     0.19138   0.35608   0.80130   0.00000  Uiso   1.00
C1067  C     0.14195   0.64392   0.86537   0.00000  Uiso   1.00
C1068  C     0.19170   0.64667   0.79967   0.00000  Uiso   1.00
Cu1069 Cu    0.16667   0.50001   0.88022   0.00000  Uiso   1.00
Cu1070 Cu    0.16667   0.49999   0.78645   0.00000  Uiso   1.00
H1071  H     0.32577   0.50007   0.77863   0.00000  Uiso   1.00
H1072  H     0.21558   0.61319   0.69472   0.00000  Uiso   1.00
H1073  H     0.07682   0.36333   0.89778   0.00000  Uiso   1.00
H1074  H     0.14475   0.33803   0.96019   0.00000  Uiso   1.00
H1075  H     0.11781   0.38682   0.97196   0.00000  Uiso   1.00
H1076  H     0.17945   0.38539   0.95090   0.00000  Uiso   1.00
H1077  H     0.07230   0.43967   0.68221   0.00000  Uiso   1.00
H1078  H     0.26103   0.56033   0.98445   0.00000  Uiso   1.00
H1079  H     0.00756   0.49993   0.88803   0.00000  Uiso   1.00
H1080  H     0.21117   0.37365   0.77675   0.00000  Uiso   1.00
H1081  H     0.12217   0.62635   0.88992   0.00000  Uiso   1.00
H1082  H     0.10276   0.45972   0.94811   0.00000  Uiso   1.00
H1083  H     0.23057   0.54028   0.71856   0.00000  Uiso   1.00
H1084  H     0.25654   0.63664   0.76894   0.00000  Uiso   1.00
H1085  H     0.18871   0.66201   0.70648   0.00000  Uiso   1.00
H1086  H     0.15392   0.61468   0.71574   0.00000  Uiso   1.00
N1087  N     0.16668   0.50001   0.95069   0.00000  Uiso   1.00
N1088  N     0.16665   0.49999   0.71597   0.00000  Uiso   1.00
N1089  N     0.21862   0.62701   0.76649   0.00000  Uiso   1.00
N1090  N     0.11473   0.37299   0.90019   0.00000  Uiso   1.00
O1091  O     0.16666   0.43989   0.87291   0.00000  Uiso   1.00
O1092  O     0.23762   0.54633   0.95918   0.00000  Uiso   1.00
O1093  O     0.16667   0.56011   0.79375   0.00000  Uiso   1.00
O1094  O     0.16666   0.43988   0.79372   0.00000  Uiso   1.00
O1095  O     0.16667   0.56012   0.87294   0.00000  Uiso   1.00
O1096  O     0.09161   0.50000   0.86379   0.00000  Uiso   1.00
O1097  O     0.24172   0.50000   0.80288   0.00000  Uiso   1.00
O1098  O     0.09161   0.49999   0.78460   0.00000  Uiso   1.00
O1099  O     0.24172   0.50001   0.88207   0.00000  Uiso   1.00
O1100  O     0.09571   0.45367   0.70748   0.00000  Uiso   1.00
C1101  C     0.49941   0.42076   0.83361   0.00000  Uiso   1.00
C1102  C     0.47497   0.35333   0.86700   0.00000  Uiso   1.00
C1103  C     0.50040   0.62386   0.83232   0.00000  Uiso   1.00
C1104  C     0.49960   0.37614   0.83434   0.00000  Uiso   1.00
C1105  C     0.46437   0.47713   0.68726   0.00000  Uiso   1.00
C1106  C     0.53563   0.52287   0.97941   0.00000  Uiso   1.00
C1107  C     0.46444   0.47752   0.97074   0.00000  Uiso   1.00
C1108  C     0.53555   0.52248   0.69592   0.00000  Uiso   1.00
C1109  C     0.52601   0.62940   0.71843   0.00000  Uiso   1.00
C1110  C     0.47405   0.37063   0.94824   0.00000  Uiso   1.00
C1111  C     0.50059   0.57924   0.83306   0.00000  Uiso   1.00
C1112  C     0.40124   0.49998   0.82120   0.00000  Uiso   1.00
C1113  C     0.59876   0.50002   0.84546   0.00000  Uiso   1.00
C1114  C     0.34590   0.50001   0.81457   0.00000  Uiso   1.00
C1115  C     0.65410   0.49999   0.85209   0.00000  Uiso   1.00
C1116  C     0.52472   0.35608   0.80130   0.00000  Uiso   1.00
C1117  C     0.47529   0.64392   0.86537   0.00000  Uiso   1.00
C1118  C     0.52503   0.64667   0.79967   0.00000  Uiso   1.00
Cu1119 Cu    0.50000   0.50001   0.88022   0.00000  Uiso   1.00
Cu1120 Cu    0.50000   0.49999   0.78645   0.00000  Uiso   1.00
H1121  H     0.65911   0.50007   0.77863   0.00000  Uiso   1.00
H1122  H     0.54892   0.61319   0.69472   0.00000  Uiso   1.00
H1123  H     0.41016   0.36333   0.89778   0.00000  Uiso   1.00
H1124  H     0.47808   0.33803   0.96019   0.00000  Uiso   1.00
H1125  H     0.45114   0.38682   0.97196   0.00000  Uiso   1.00
H1126  H     0.51279   0.38539   0.95090   0.00000  Uiso   1.00
H1127  H     0.40564   0.43967   0.68221   0.00000  Uiso   1.00
H1128  H     0.59436   0.56033   0.98445   0.00000  Uiso   1.00
H1129  H     0.34089   0.49993   0.88803   0.00000  Uiso   1.00
H1130  H     0.54451   0.37365   0.77675   0.00000  Uiso   1.00
H1131  H     0.45550   0.62635   0.88992   0.00000  Uiso   1.00
H1132  H     0.43609   0.45972   0.94811   0.00000  Uiso   1.00
H1133  H     0.56391   0.54028   0.71856   0.00000  Uiso   1.00
H1134  H     0.58987   0.63664   0.76894   0.00000  Uiso   1.00
H1135  H     0.52205   0.66201   0.70648   0.00000  Uiso   1.00
H1136  H     0.48725   0.61468   0.71574   0.00000  Uiso   1.00
N1137  N     0.50001   0.50001   0.95069   0.00000  Uiso   1.00
N1138  N     0.49999   0.49999   0.71597   0.00000  Uiso   1.00
N1139  N     0.55195   0.62701   0.76649   0.00000  Uiso   1.00
N1140  N     0.44807   0.37299   0.90019   0.00000  Uiso   1.00
O1141  O     0.50000   0.43989   0.87291   0.00000  Uiso   1.00
O1142  O     0.57095   0.54633   0.95918   0.00000  Uiso   1.00
O1143  O     0.50000   0.56011   0.79375   0.00000  Uiso   1.00
O1144  O     0.50000   0.43988   0.79372   0.00000  Uiso   1.00
O1145  O     0.50000   0.56012   0.87294   0.00000  Uiso   1.00
O1146  O     0.42495   0.50000   0.86379   0.00000  Uiso   1.00
O1147  O     0.57505   0.50000   0.80288   0.00000  Uiso   1.00
O1148  O     0.42494   0.49999   0.78460   0.00000  Uiso   1.00
O1149  O     0.57506   0.50001   0.88207   0.00000  Uiso   1.00
O1150  O     0.42905   0.45367   0.70748   0.00000  Uiso   1.00
C1151  C     0.83275   0.42076   0.83361   0.00000  Uiso   1.00
C1152  C     0.80830   0.35333   0.86700   0.00000  Uiso   1.00
C1153  C     0.83373   0.62386   0.83232   0.00000  Uiso   1.00
C1154  C     0.83294   0.37614   0.83434   0.00000  Uiso   1.00
C1155  C     0.79771   0.47713   0.68726   0.00000  Uiso   1.00
C1156  C     0.86896   0.52287   0.97941   0.00000  Uiso   1.00
C1157  C     0.79778   0.47752   0.97074   0.00000  Uiso   1.00
C1158  C     0.86889   0.52248   0.69592   0.00000  Uiso   1.00
C1159  C     0.85934   0.62940   0.71843   0.00000  Uiso   1.00
C1160  C     0.80739   0.37063   0.94824   0.00000  Uiso   1.00
C1161  C     0.83392   0.57924   0.83306   0.00000  Uiso   1.00
C1162  C     0.73458   0.49998   0.82120   0.00000  Uiso   1.00
C1163  C     0.93209   0.50002   0.84546   0.00000  Uiso   1.00
C1164  C     0.67923   0.50001   0.81457   0.00000  Uiso   1.00
C1165  C     0.98743   0.49999   0.85209   0.00000  Uiso   1.00
C1166  C     0.85805   0.35608   0.80130   0.00000  Uiso   1.00
C1167  C     0.80862   0.64392   0.86537   0.00000  Uiso   1.00
C1168  C     0.85837   0.64667   0.79967   0.00000  Uiso   1.00
Cu1169 Cu    0.83333   0.50001   0.88022   0.00000  Uiso   1.00
Cu1170 Cu    0.83333   0.49999   0.78645   0.00000  Uiso   1.00
H1171  H     0.99244   0.50007   0.77863   0.00000  Uiso   1.00
H1172  H     0.88225   0.61319   0.69472   0.00000  Uiso   1.00
H1173  H     0.74349   0.36333   0.89778   0.00000  Uiso   1.00
H1174  H     0.81141   0.33803   0.96019   0.00000  Uiso   1.00
H1175  H     0.78447   0.38682   0.97196   0.00000  Uiso   1.00
H1176  H     0.84612   0.38539   0.95090   0.00000  Uiso   1.00
H1177  H     0.73897   0.43967   0.68221   0.00000  Uiso   1.00
H1178  H     0.92770   0.56033   0.98445   0.00000  Uiso   1.00
H1179  H     0.67423   0.49993   0.88803   0.00000  Uiso   1.00
H1180  H     0.87784   0.37365   0.77675   0.00000  Uiso   1.00
H1181  H     0.78883   0.62635   0.88992   0.00000  Uiso   1.00
H1182  H     0.76943   0.45972   0.94811   0.00000  Uiso   1.00
H1183  H     0.89724   0.54028   0.71856   0.00000  Uiso   1.00
H1184  H     0.92320   0.63664   0.76894   0.00000  Uiso   1.00
H1185  H     0.85538   0.66201   0.70648   0.00000  Uiso   1.00
H1186  H     0.82058   0.61468   0.71574   0.00000  Uiso   1.00
N1187  N     0.83335   0.50001   0.95069   0.00000  Uiso   1.00
N1188  N     0.83332   0.49999   0.71597   0.00000  Uiso   1.00
N1189  N     0.88528   0.62701   0.76649   0.00000  Uiso   1.00
N1190  N     0.78140   0.37299   0.90019   0.00000  Uiso   1.00
O1191  O     0.83333   0.43989   0.87291   0.00000  Uiso   1.00
O1192  O     0.90429   0.54633   0.95918   0.00000  Uiso   1.00
O1193  O     0.83334   0.56011   0.79375   0.00000  Uiso   1.00
O1194  O     0.83333   0.43988   0.79372   0.00000  Uiso   1.00
O1195  O     0.83334   0.56012   0.87294   0.00000  Uiso   1.00
O1196  O     0.75828   0.50000   0.86379   0.00000  Uiso   1.00
O1197  O     0.90839   0.50000   0.80288   0.00000  Uiso   1.00
O1198  O     0.75828   0.49999   0.78460   0.00000  Uiso   1.00
O1199  O     0.90839   0.50001   0.88207   0.00000  Uiso   1.00
O1200  O     0.76238   0.45367   0.70748   0.00000  Uiso   1.00
C1201  C     0.16608   0.75409   0.83361   0.00000  Uiso   1.00
C1202  C     0.14164   0.68666   0.86700   0.00000  Uiso   1.00
C1203  C     0.16706   0.95719   0.83232   0.00000  Uiso   1.00
C1204  C     0.16627   0.70948   0.83434   0.00000  Uiso   1.00
C1205  C     0.13104   0.81046   0.68726   0.00000  Uiso   1.00
C1206  C     0.20229   0.85620   0.97941   0.00000  Uiso   1.00
C1207  C     0.13111   0.81085   0.97074   0.00000  Uiso   1.00
C1208  C     0.20222   0.85582   0.69592   0.00000  Uiso   1.00
C1209  C     0.19267   0.96274   0.71843   0.00000  Uiso   1.00
C1210  C     0.14072   0.70396   0.94824   0.00000  Uiso   1.00
C1211  C     0.16726   0.91258   0.83306   0.00000  Uiso   1.00
C1212  C     0.06791   0.83331   0.82120   0.00000  Uiso   1.00
C1213  C     0.26542   0.83336   0.84546   0.00000  Uiso   1.00
C1214  C     0.01257   0.83334   0.81457   0.00000  Uiso   1.00
C1215  C     0.32076   0.83332   0.85209   0.00000  Uiso   1.00
C1216  C     0.19138   0.68941   0.80130   0.00000  Uiso   1.00
C1217  C     0.14195   0.97726   0.86537   0.00000  Uiso   1.00
C1218  C     0.19170   0.98001   0.79967   0.00000  Uiso   1.00
Cu1219 Cu    0.16667   0.83334   0.88022   0.00000  Uiso   1.00
Cu1220 Cu    0.16667   0.83333   0.78645   0.00000  Uiso   1.00
H1221  H     0.32577   0.83340   0.77863   0.00000  Uiso   1.00
H1222  H     0.21558   0.94652   0.69472   0.00000  Uiso   1.00
H1223  H     0.07682   0.69666   0.89778   0.00000  Uiso   1.00
H1224  H     0.14475   0.67136   0.96019   0.00000  Uiso   1.00
H1225  H     0.11781   0.72015   0.97196   0.00000  Uiso   1.00
H1226  H     0.17945   0.71872   0.95090   0.00000  Uiso   1.00
H1227  H     0.07230   0.77300   0.68221   0.00000  Uiso   1.00
H1228  H     0.26103   0.89366   0.98445   0.00000  Uiso   1.00
H1229  H     0.00756   0.83326   0.88803   0.00000  Uiso   1.00
H1230  H     0.21117   0.70698   0.77675   0.00000  Uiso   1.00
H1231  H     0.12217   0.95968   0.88992   0.00000  Uiso   1.00
H1232  H     0.10276   0.79305   0.94811   0.00000  Uiso   1.00
H1233  H     0.23057   0.87362   0.71856   0.00000  Uiso   1.00
H1234  H     0.25654   0.96997   0.76894   0.00000  Uiso   1.00
H1235  H     0.18871   0.99534   0.70648   0.00000  Uiso   1.00
H1236  H     0.15392   0.94801   0.71574   0.00000  Uiso   1.00
N1237  N     0.16668   0.83334   0.95069   0.00000  Uiso   1.00
N1238  N     0.16665   0.83332   0.71597   0.00000  Uiso   1.00
N1239  N     0.21862   0.96034   0.76649   0.00000  Uiso   1.00
N1240  N     0.11473   0.70632   0.90019   0.00000  Uiso   1.00
O1241  O     0.16666   0.77322   0.87291   0.00000  Uiso   1.00
O1242  O     0.23762   0.87966   0.95918   0.00000  Uiso   1.00
O1243  O     0.16667   0.89345   0.79375   0.00000  Uiso   1.00
O1244  O     0.16666   0.77321   0.79372   0.00000  Uiso   1.00
O1245  O     0.16667   0.89346   0.87294   0.00000  Uiso   1.00
O1246  O     0.09161   0.83334   0.86379   0.00000  Uiso   1.00
O1247  O     0.24172   0.83333   0.80288   0.00000  Uiso   1.00
O1248  O     0.09161   0.83333   0.78460   0.00000  Uiso   1.00
O1249  O     0.24172   0.83334   0.88207   0.00000  Uiso   1.00
O1250  O     0.09571   0.78701   0.70748   0.00000  Uiso   1.00
C1251  C     0.49941   0.75409   0.83361   0.00000  Uiso   1.00
C1252  C     0.47497   0.68666   0.86700   0.00000  Uiso   1.00
C1253  C     0.50040   0.95719   0.83232   0.00000  Uiso   1.00
C1254  C     0.49960   0.70948   0.83434   0.00000  Uiso   1.00
C1255  C     0.46437   0.81046   0.68726   0.00000  Uiso   1.00
C1256  C     0.53563   0.85620   0.97941   0.00000  Uiso   1.00
C1257  C     0.46444   0.81085   0.97074   0.00000  Uiso   1.00
C1258  C     0.53555   0.85582   0.69592   0.00000  Uiso   1.00
C1259  C     0.52601   0.96274   0.71843   0.00000  Uiso   1.00
C1260  C     0.47405   0.70396   0.94824   0.00000  Uiso   1.00
C1261  C     0.50059   0.91258   0.83306   0.00000  Uiso   1.00
C1262  C     0.40124   0.83331   0.82120   0.00000  Uiso   1.00
C1263  C     0.59876   0.83336   0.84546   0.00000  Uiso   1.00
C1264  C     0.34590   0.83334   0.81457   0.00000  Uiso   1.00
C1265  C     0.65410   0.83332   0.85209   0.00000  Uiso   1.00
C1266  C     0.52472   0.68941   0.80130   0.00000  Uiso   1.00
C1267  C     0.47529   0.97726   0.86537   0.00000  Uiso   1.00
C1268  C     0.52503   0.98001   0.79967   0.00000  Uiso   1.00
Cu1269 Cu    0.50000   0.83334   0.88022   0.00000  Uiso   1.00
Cu1270 Cu    0.50000   0.83333   0.78645   0.00000  Uiso   1.00
H1271  H     0.65911   0.83340   0.77863   0.00000  Uiso   1.00
H1272  H     0.54892   0.94652   0.69472   0.00000  Uiso   1.00
H1273  H     0.41016   0.69666   0.89778   0.00000  Uiso   1.00
H1274  H     0.47808   0.67136   0.96019   0.00000  Uiso   1.00
H1275  H     0.45114   0.72015   0.97196   0.00000  Uiso   1.00
H1276  H     0.51279   0.71872   0.95090   0.00000  Uiso   1.00
H1277  H     0.40564   0.77300   0.68221   0.00000  Uiso   1.00
H1278  H     0.59436   0.89366   0.98445   0.00000  Uiso   1.00
H1279  H     0.34089   0.83326   0.88803   0.00000  Uiso   1.00
H1280  H     0.54451   0.70698   0.77675   0.00000  Uiso   1.00
H1281  H     0.45550   0.95968   0.88992   0.00000  Uiso   1.00
H1282  H     0.43609   0.79305   0.94811   0.00000  Uiso   1.00
H1283  H     0.56391   0.87362   0.71856   0.00000  Uiso   1.00
H1284  H     0.58987   0.96997   0.76894   0.00000  Uiso   1.00
H1285  H     0.52205   0.99534   0.70648   0.00000  Uiso   1.00
H1286  H     0.48725   0.94801   0.71574   0.00000  Uiso   1.00
N1287  N     0.50001   0.83334   0.95069   0.00000  Uiso   1.00
N1288  N     0.49999   0.83332   0.71597   0.00000  Uiso   1.00
N1289  N     0.55195   0.96034   0.76649   0.00000  Uiso   1.00
N1290  N     0.44807   0.70632   0.90019   0.00000  Uiso   1.00
O1291  O     0.50000   0.77322   0.87291   0.00000  Uiso   1.00
O1292  O     0.57095   0.87966   0.95918   0.00000  Uiso   1.00
O1293  O     0.50000   0.89345   0.79375   0.00000  Uiso   1.00
O1294  O     0.50000   0.77321   0.79372   0.00000  Uiso   1.00
O1295  O     0.50000   0.89346   0.87294   0.00000  Uiso   1.00
O1296  O     0.42495   0.83334   0.86379   0.00000  Uiso   1.00
O1297  O     0.57505   0.83333   0.80288   0.00000  Uiso   1.00
O1298  O     0.42494   0.83333   0.78460   0.00000  Uiso   1.00
O1299  O     0.57506   0.83334   0.88207   0.00000  Uiso   1.00
O1300  O     0.42905   0.78701   0.70748   0.00000  Uiso   1.00
C1301  C     0.83275   0.75409   0.83361   0.00000  Uiso   1.00
C1302  C     0.80830   0.68666   0.86700   0.00000  Uiso   1.00
C1303  C     0.83373   0.95719   0.83232   0.00000  Uiso   1.00
C1304  C     0.83294   0.70948   0.83434   0.00000  Uiso   1.00
C1305  C     0.79771   0.81046   0.68726   0.00000  Uiso   1.00
C1306  C     0.86896   0.85620   0.97941   0.00000  Uiso   1.00
C1307  C     0.79778   0.81085   0.97074   0.00000  Uiso   1.00
C1308  C     0.86889   0.85582   0.69592   0.00000  Uiso   1.00
C1309  C     0.85934   0.96274   0.71843   0.00000  Uiso   1.00
C1310  C     0.80739   0.70396   0.94824   0.00000  Uiso   1.00
C1311  C     0.83392   0.91258   0.83306   0.00000  Uiso   1.00
C1312  C     0.73458   0.83331   0.82120   0.00000  Uiso   1.00
C1313  C     0.93209   0.83336   0.84546   0.00000  Uiso   1.00
C1314  C     0.67923   0.83334   0.81457   0.00000  Uiso   1.00
C1315  C     0.98743   0.83332   0.85209   0.00000  Uiso   1.00
C1316  C     0.85805   0.68941   0.80130   0.00000  Uiso   1.00
C1317  C     0.80862   0.97726   0.86537   0.00000  Uiso   1.00
C1318  C     0.85837   0.98001   0.79967   0.00000  Uiso   1.00
Cu1319 Cu    0.83333   0.83334   0.88022   0.00000  Uiso   1.00
Cu1320 Cu    0.83333   0.83333   0.78645   0.00000  Uiso   1.00
H1321  H     0.99244   0.83340   0.77863   0.00000  Uiso   1.00
H1322  H     0.88225   0.94652   0.69472   0.00000  Uiso   1.00
H1323  H     0.74349   0.69666   0.89778   0.00000  Uiso   1.00
H1324  H     0.81141   0.67136   0.96019   0.00000  Uiso   1.00
H1325  H     0.78447   0.72015   0.97196   0.00000  Uiso   1.00
H1326  H     0.84612   0.71872   0.95090   0.00000  Uiso   1.00
H1327  H     0.73897   0.77300   0.68221   0.00000  Uiso   1.00
H1328  H     0.92770   0.89366   0.98445   0.00000  Uiso   1.00
H1329  H     0.67423   0.83326   0.88803   0.00000  Uiso   1.00
H1330  H     0.87784   0.70698   0.77675   0.00000  Uiso   1.00
H1331  H     0.78883   0.95968   0.88992   0.00000  Uiso   1.00
H1332  H     0.76943   0.79305   0.94811   0.00000  Uiso   1.00
H1333  H     0.89724   0.87362   0.71856   0.00000  Uiso   1.00
H1334  H     0.92320   0.96997   0.76894   0.00000  Uiso   1.00
H1335  H     0.85538   0.99534   0.70648   0.00000  Uiso   1.00
H1336  H     0.82058   0.94801   0.71574   0.00000  Uiso   1.00
N1337  N     0.83335   0.83334   0.95069   0.00000  Uiso   1.00
N1338  N     0.83332   0.83332   0.71597   0.00000  Uiso   1.00
N1339  N     0.88528   0.96034   0.76649   0.00000  Uiso   1.00
N1340  N     0.78140   0.70632   0.90019   0.00000  Uiso   1.00
O1341  O     0.83333   0.77322   0.87291   0.00000  Uiso   1.00
O1342  O     0.90429   0.87966   0.95918   0.00000  Uiso   1.00
O1343  O     0.83334   0.89345   0.79375   0.00000  Uiso   1.00
O1344  O     0.83333   0.77321   0.79372   0.00000  Uiso   1.00
O1345  O     0.83334   0.89346   0.87294   0.00000  Uiso   1.00
O1346  O     0.75828   0.83334   0.86379   0.00000  Uiso   1.00
O1347  O     0.90839   0.83333   0.80288   0.00000  Uiso   1.00
O1348  O     0.75828   0.83333   0.78460   0.00000  Uiso   1.00
O1349  O     0.90839   0.83334   0.88207   0.00000  Uiso   1.00
O1350  O     0.76238   0.78701   0.70748   0.00000  Uiso   1.00
loop_
_geom_bond_atom_site_label_1
_geom_bond_atom_site_label_2
_geom_bond_distance
_geom_bond_site_symmetry_2
_ccdc_geom_bond_type
C1     O44     1.295   .     A
C1     C4      1.450   .     S
C1     O41     1.290   .     A
C2     C4      1.408   .     A
C2     N40     1.422   .     S
C2     C317    1.390   1_545 S
C3     C17     1.398   .     A
C3     C11     1.450   .     S
C3     C18     1.408   .     A
C4     C16     1.398   .     A
C5     N38     1.372   .     A
C5     O50     1.378   .     S
C5     C907    1.427   1_554 S
C6     O42     1.378   .     S
C6     N37     1.372   .     A
C6     C458    1.427   .     S
C7     N37     1.364   .     A
C7     H32     1.082   .     S
C7     C455    1.427   .     S
C8     N38     1.364   .     A
C8     H33     1.082   .     S
C8     C906    1.427   1_554 S
C9     H36     1.111   .     S
C9     H22     1.109   .     S
C9     N39     1.447   .     S
C9     H35     1.111   .     S
C10    H26     1.111   .     S
C10    H25     1.109   .     S
C10    N40     1.447   .     S
C10    H24     1.111   .     S
C11    O43     1.290   .     A
C11    O45     1.295   .     A
C12    O48     1.291   .     A
C12    C14     1.435   .     S
C12    O46     1.287   .     A
C13    O49     1.291   .     A
C13    C15     1.435   .     S
C13    O47     1.287   .     A
C14    C115    1.337   1_455 S
C14    H121    1.087   1_455 S
C15    C64     1.337   .     S
C15    H79     1.087   .     S
C16    H30     1.084   .     S
C16    C318    1.390   1_545 S
C17    H31     1.084   .     S
C17    C152    1.390   .     S
C18    N39     1.422   .     S
C18    C166    1.390   .     S
Cu19   O45     1.962   .     S
Cu19   O49     1.960   .     S
Cu19   Cu20    2.684   .     S
Cu19   O46     1.956   .     S
Cu19   O41     1.967   .     S
Cu19   N37     2.017   .     S
Cu20   N38     2.017   .     S
Cu20   O48     1.960   .     S
Cu20   O44     1.962   .     S
Cu20   O47     1.956   .     S
Cu20   O43     1.967   .     S
H21    C64     1.087   .     S
H23    N40     1.032   .     S
H27    O50     0.991   .     S
H28    O42     0.991   .     S
H29    C115    1.087   1_455 S
H34    N39     1.032   .     S
C51    O94     1.295   .     A
C51    C54     1.450   .     S
C51    O91     1.290   .     A
C52    C54     1.408   .     A
C52    N90     1.422   .     S
C52    C367    1.390   1_545 S
C53    C67     1.398   .     A
C53    C61     1.450   .     S
C53    C68     1.408   .     A
C54    C66     1.398   .     A
C55    N88     1.372   .     A
C55    O100    1.378   .     S
C55    C957    1.427   1_554 S
C56    O92     1.378   .     S
C56    N87     1.372   .     A
C56    C508    1.427   .     S
C57    N87     1.364   .     A
C57    H82     1.082   .     S
C57    C505    1.427   .     S
C58    N88     1.364   .     A
C58    H83     1.082   .     S
C58    C956    1.427   1_554 S
C59    H86     1.111   .     S
C59    H72     1.109   .     S
C59    N89     1.447   .     S
C59    H85     1.111   .     S
C60    H76     1.111   .     S
C60    H75     1.109   .     S
C60    N90     1.447   .     S
C60    H74     1.111   .     S
C61    O93     1.290   .     A
C61    O95     1.295   .     A
C62    O98     1.291   .     A
C62    C64     1.435   .     S
C62    O96     1.287   .     A
C63    O99     1.291   .     A
C63    C65     1.435   .     S
C63    O97     1.287   .     A
C65    C114    1.337   .     S
C65    H129    1.087   .     S
C66    H80     1.084   .     S
C66    C368    1.390   1_545 S
C67    H81     1.084   .     S
C67    C202    1.390   .     S
C68    N89     1.422   .     S
C68    C216    1.390   .     S
Cu69   O95     1.962   .     S
Cu69   O99     1.960   .     S
Cu69   Cu70    2.684   .     S
Cu69   O96     1.956   .     S
Cu69   O91     1.967   .     S
Cu69   N87     2.017   .     S
Cu70   N88     2.017   .     S
Cu70   O98     1.960   .     S
Cu70   O94     1.962   .     S
Cu70   O97     1.956   .     S
Cu70   O93     1.967   .     S
H71    C114    1.087   .     S
H73    N90     1.032   .     S
H77    O100    0.991   .     S
H78    O92     0.991   .     S
H84    N89     1.032   .     S
C101   O144    1.295   .     A
C101   C104    1.450   .     S
C101   O141    1.290   .     A
C102   C104    1.408   .     A
C102   N140    1.422   .     S
C102   C417    1.390   1_545 S
C103   C117    1.398   .     A
C103   C111    1.450   .     S
C103   C118    1.408   .     A
C104   C116    1.398   .     A
C105   N138    1.372   .     A
C105   O150    1.378   .     S
C105   C1007   1.427   1_554 S
C106   O142    1.378   .     S
C106   N137    1.372   .     A
C106   C558    1.427   .     S
C107   N137    1.364   .     A
C107   H132    1.082   .     S
C107   C555    1.427   .     S
C108   N138    1.364   .     A
C108   H133    1.082   .     S
C108   C1006   1.427   1_554 S
C109   H136    1.111   .     S
C109   H122    1.109   .     S
C109   N139    1.447   .     S
C109   H135    1.111   .     S
C110   H126    1.111   .     S
C110   H125    1.109   .     S
C110   N140    1.447   .     S
C110   H124    1.111   .     S
C111   O143    1.290   .     A
C111   O145    1.295   .     A
C112   O148    1.291   .     A
C112   C114    1.435   .     S
C112   O146    1.287   .     A
C113   O149    1.291   .     A
C113   C115    1.435   .     S
C113   O147    1.287   .     A
C115   C14     1.337   1_655 S
C115   H29     1.087   1_655 S
C116   H130    1.084   .     S
C116   C418    1.390   1_545 S
C117   H131    1.084   .     S
C117   C252    1.390   .     S
C118   N139    1.422   .     S
C118   C266    1.390   .     S
Cu119  O145    1.962   .     S
Cu119  O149    1.960   .     S
Cu119  Cu120   2.684   .     S
Cu119  O146    1.956   .     S
Cu119  O141    1.967   .     S
Cu119  N137    2.017   .     S
Cu120  N138    2.017   .     S
Cu120  O148    1.960   .     S
Cu120  O144    1.962   .     S
Cu120  O147    1.956   .     S
Cu120  O143    1.967   .     S
H121   C14     1.087   1_655 S
H123   N140    1.032   .     S
H127   O150    0.991   .     S
H128   O142    0.991   .     S
H134   N139    1.032   .     S
C151   O194    1.295   .     A
C151   C154    1.450   .     S
C151   O191    1.290   .     A
C152   C154    1.408   .     A
C152   N190    1.422   .     S
C153   C167    1.398   .     A
C153   C161    1.450   .     S
C153   C168    1.408   .     A
C154   C166    1.398   .     A
C155   N188    1.372   .     A
C155   O200    1.378   .     S
C155   C1057   1.427   1_554 S
C156   O192    1.378   .     S
C156   N187    1.372   .     A
C156   C608    1.427   .     S
C157   N187    1.364   .     A
C157   H182    1.082   .     S
C157   C605    1.427   .     S
C158   N188    1.364   .     A
C158   H183    1.082   .     S
C158   C1056   1.427   1_554 S
C159   H186    1.111   .     S
C159   H172    1.109   .     S
C159   N189    1.447   .     S
C159   H185    1.111   .     S
C160   H176    1.111   .     S
C160   H175    1.109   .     S
C160   N190    1.447   .     S
C160   H174    1.111   .     S
C161   O193    1.290   .     A
C161   O195    1.295   .     A
C162   O198    1.291   .     A
C162   C164    1.435   .     S
C162   O196    1.287   .     A
C163   O199    1.291   .     A
C163   C165    1.435   .     S
C163   O197    1.287   .     A
C164   C265    1.337   1_455 S
C164   H271    1.087   1_455 S
C165   C214    1.337   .     S
C165   H229    1.087   .     S
C166   H180    1.084   .     S
C167   H181    1.084   .     S
C167   C302    1.390   .     S
C168   N189    1.422   .     S
C168   C316    1.390   .     S
Cu169  O195    1.962   .     S
Cu169  O199    1.960   .     S
Cu169  Cu170   2.684   .     S
Cu169  O196    1.956   .     S
Cu169  O191    1.967   .     S
Cu169  N187    2.017   .     S
Cu170  N188    2.017   .     S
Cu170  O198    1.960   .     S
Cu170  O194    1.962   .     S
Cu170  O197    1.956   .     S
Cu170  O193    1.967   .     S
H171   C214    1.087   .     S
H173   N190    1.032   .     S
H177   O200    0.991   .     S
H178   O192    0.991   .     S
H179   C265    1.087   1_455 S
H184   N189    1.032   .     S
C201   O244    1.295   .     A
C201   C204    1.450   .     S
C201   O241    1.290   .     A
C202   C204    1.408   .     A
C202   N240    1.422   .     S
C203   C217    1.398   .     A
C203   C211    1.450   .     S
C203   C218    1.408   .     A
C204   C216    1.398   .     A
C205   N238    1.372   .     A
C205   O250    1.378   .     S
C205   C1107   1.427   1_554 S
C206   O242    1.378   .     S
C206   N237    1.372   .     A
C206   C658    1.427   .     S
C207   N237    1.364   .     A
C207   H232    1.082   .     S
C207   C655    1.427   .     S
C208   N238    1.364   .     A
C208   H233    1.082   .     S
C208   C1106   1.427   1_554 S
C209   H236    1.111   .     S
C209   H222    1.109   .     S
C209   N239    1.447   .     S
C209   H235    1.111   .     S
C210   H226    1.111   .     S
C210   H225    1.109   .     S
C210   N240    1.447   .     S
C210   H224    1.111   .     S
C211   O243    1.290   .     A
C211   O245    1.295   .     A
C212   O248    1.291   .     A
C212   C214    1.435   .     S
C212   O246    1.287   .     A
C213   O249    1.291   .     A
C213   C215    1.435   .     S
C213   O247    1.287   .     A
C215   C264    1.337   .     S
C215   H279    1.087   .     S
C216   H230    1.084   .     S
C217   H231    1.084   .     S
C217   C352    1.390   .     S
C218   N239    1.422   .     S
C218   C366    1.390   .     S
Cu219  O245    1.962   .     S
Cu219  O249    1.960   .     S
Cu219  Cu220   2.684   .     S
Cu219  O246    1.956   .     S
Cu219  O241    1.967   .     S
Cu219  N237    2.017   .     S
Cu220  N238    2.017   .     S
Cu220  O248    1.960   .     S
Cu220  O244    1.962   .     S
Cu220  O247    1.956   .     S
Cu220  O243    1.967   .     S
H221   C264    1.087   .     S
H223   N240    1.032   .     S
H227   O250    0.991   .     S
H228   O242    0.991   .     S
H234   N239    1.032   .     S
C251   O294    1.295   .     A
C251   C254    1.450   .     S
C251   O291    1.290   .     A
C252   C254    1.408   .     A
C252   N290    1.422   .     S
C253   C267    1.398   .     A
C253   C261    1.450   .     S
C253   C268    1.408   .     A
C254   C266    1.398   .     A
C255   N288    1.372   .     A
C255   O300    1.378   .     S
C255   C1157   1.427   1_554 S
C256   O292    1.378   .     S
C256   N287    1.372   .     A
C256   C708    1.427   .     S
C257   N287    1.364   .     A
C257   H282    1.082   .     S
C257   C705    1.427   .     S
C258   N288    1.364   .     A
C258   H283    1.082   .     S
C258   C1156   1.427   1_554 S
C259   H286    1.111   .     S
C259   H272    1.109   .     S
C259   N289    1.447   .     S
C259   H285    1.111   .     S
C260   H276    1.111   .     S
C260   H275    1.109   .     S
C260   N290    1.447   .     S
C260   H274    1.111   .     S
C261   O293    1.290   .     A
C261   O295    1.295   .     A
C262   O298    1.291   .     A
C262   C264    1.435   .     S
C262   O296    1.287   .     A
C263   O299    1.291   .     A
C263   C265    1.435   .     S
C263   O297    1.287   .     A
C265   C164    1.337   1_655 S
C265   H179    1.087   1_655 S
C266   H280    1.084   .     S
C267   H281    1.084   .     S
C267   C402    1.390   .     S
C268   N289    1.422   .     S
C268   C416    1.390   .     S
Cu269  O295    1.962   .     S
Cu269  O299    1.960   .     S
Cu269  Cu270   2.684   .     S
Cu269  O296    1.956   .     S
Cu269  O291    1.967   .     S
Cu269  N287    2.017   .     S
Cu270  N288    2.017   .     S
Cu270  O298    1.960   .     S
Cu270  O294    1.962   .     S
Cu270  O297    1.956   .     S
Cu270  O293    1.967   .     S
H271   C164    1.087   1_655 S
H273   N290    1.032   .     S
H277   O300    0.991   .     S
H278   O292    0.991   .     S
H284   N289    1.032   .     S
C301   O344    1.295   .     A
C301   C304    1.450   .     S
C301   O341    1.290   .     A
C302   C304    1.408   .     A
C302   N340    1.422   .     S
C303   C317    1.398   .     A
C303   C311    1.450   .     S
C303   C318    1.408   .     A
C304   C316    1.398   .     A
C305   N338    1.372   .     A
C305   O350    1.378   .     S
C305   C1207   1.427   1_554 S
C306   O342    1.378   .     S
C306   N337    1.372   .     A
C306   C758    1.427   .     S
C307   N337    1.364   .     A
C307   H332    1.082   .     S
C307   C755    1.427   .     S
C308   N338    1.364   .     A
C308   H333    1.082   .     S
C308   C1206   1.427   1_554 S
C309   H336    1.111   .     S
C309   H322    1.109   .     S
C309   N339    1.447   .     S
C309   H335    1.111   .     S
C310   H326    1.111   .     S
C310   H325    1.109   .     S
C310   N340    1.447   .     S
C310   H324    1.111   .     S
C311   O343    1.290   .     A
C311   O345    1.295   .     A
C312   O348    1.291   .     A
C312   C314    1.435   .     S
C312   O346    1.287   .     A
C313   O349    1.291   .     A
C313   C315    1.435   .     S
C313   O347    1.287   .     A
C314   C415    1.337   1_455 S
C314   H421    1.087   1_455 S
C315   C364    1.337   .     S
C315   H379    1.087   .     S
C316   H330    1.084   .     S
C317   H331    1.084   .     S
C317   C2      1.390   1_565 S
C318   N339    1.422   .     S
C318   C16     1.390   1_565 S
Cu319  O345    1.962   .     S
Cu319  O349    1.960   .     S
Cu319  Cu320   2.684   .     S
Cu319  O346    1.956   .     S
Cu319  O341    1.967   .     S
Cu319  N337    2.017   .     S
Cu320  N338    2.017   .     S
Cu320  O348    1.960   .     S
Cu320  O344    1.962   .     S
Cu320  O347    1.956   .     S
Cu320  O343    1.967   .     S
H321   C364    1.087   .     S
H323   N340    1.032   .     S
H327   O350    0.991   .     S
H328   O342    0.991   .     S
H329   C415    1.087   1_455 S
H334   N339    1.032   .     S
C351   O394    1.295   .     A
C351   C354    1.450   .     S
C351   O391    1.290   .     A
C352   C354    1.408   .     A
C352   N390    1.422   .     S
C353   C367    1.398   .     A
C353   C361    1.450   .     S
C353   C368    1.408   .     A
C354   C366    1.398   .     A
C355   N388    1.372   .     A
C355   O400    1.378   .     S
C355   C1257   1.427   1_554 S
C356   O392    1.378   .     S
C356   N387    1.372   .     A
C356   C808    1.427   .     S
C357   N387    1.364   .     A
C357   H382    1.082   .     S
C357   C805    1.427   .     S
C358   N388    1.364   .     A
C358   H383    1.082   .     S
C358   C1256   1.427   1_554 S
C359   H386    1.111   .     S
C359   H372    1.109   .     S
C359   N389    1.447   .     S
C359   H385    1.111   .     S
C360   H376    1.111   .     S
C360   H375    1.109   .     S
C360   N390    1.447   .     S
C360   H374    1.111   .     S
C361   O393    1.290   .     A
C361   O395    1.295   .     A
C362   O398    1.291   .     A
C362   C364    1.435   .     S
C362   O396    1.287   .     A
C363   O399    1.291   .     A
C363   C365    1.435   .     S
C363   O397    1.287   .     A
C365   C414    1.337   .     S
C365   H429    1.087   .     S
C366   H380    1.084   .     S
C367   H381    1.084   .     S
C367   C52     1.390   1_565 S
C368   N389    1.422   .     S
C368   C66     1.390   1_565 S
Cu369  O395    1.962   .     S
Cu369  O399    1.960   .     S
Cu369  Cu370   2.684   .     S
Cu369  O396    1.956   .     S
Cu369  O391    1.967   .     S
Cu369  N387    2.017   .     S
Cu370  N388    2.017   .     S
Cu370  O398    1.960   .     S
Cu370  O394    1.962   .     S
Cu370  O397    1.956   .     S
Cu370  O393    1.967   .     S
H371   C414    1.087   .     S
H373   N390    1.032   .     S
H377   O400    0.991   .     S
H378   O392    0.991   .     S
H384   N389    1.032   .     S
C401   O444    1.295   .     A
C401   C404    1.450   .     S
C401   O441    1.290   .     A
C402   C404    1.408   .     A
C402   N440    1.422   .     S
C403   C417    1.398   .     A
C403   C411    1.450   .     S
C403   C418    1.408   .     A
C404   C416    1.398   .     A
C405   N438    1.372   .     A
C405   O450    1.378   .     S
C405   C1307   1.427   1_554 S
C406   O442    1.378   .     S
C406   N437    1.372   .     A
C406   C858    1.427   .     S
C407   N437    1.364   .     A
C407   H432    1.082   .     S
C407   C855    1.427   .     S
C408   N438    1.364   .     A
C408   H433    1.082   .     S
C408   C1306   1.427   1_554 S
C409   H436    1.111   .     S
C409   H422    1.109   .     S
C409   N439    1.447   .     S
C409   H435    1.111   .     S
C410   H426    1.111   .     S
C410   H425    1.109   .     S
C410   N440    1.447   .     S
C410   H424    1.111   .     S
C411   O443    1.290   .     A
C411   O445    1.295   .     A
C412   O448    1.291   .     A
C412   C414    1.435   .     S
C412   O446    1.287   .     A
C413   O449    1.291   .     A
C413   C415    1.435   .     S
C413   O447    1.287   .     A
C415   C314    1.337   1_655 S
C415   H329    1.087   1_655 S
C416   H430    1.084   .     S
C417   H431    1.084   .     S
C417   C102    1.390   1_565 S
C418   N439    1.422   .     S
C418   C116    1.390   1_565 S
Cu419  O445    1.962   .     S
Cu419  O449    1.960   .     S
Cu419  Cu420   2.684   .     S
Cu419  O446    1.956   .     S
Cu419  O441    1.967   .     S
Cu419  N437    2.017   .     S
Cu420  N438    2.017   .     S
Cu420  O448    1.960   .     S
Cu420  O444    1.962   .     S
Cu420  O447    1.956   .     S
Cu420  O443    1.967   .     S
H421   C314    1.087   1_655 S
H423   N440    1.032   .     S
H427   O450    0.991   .     S
H428   O442    0.991   .     S
H434   N439    1.032   .     S
C451   O494    1.295   .     A
C451   C454    1.450   .     S
C451   O491    1.290   .     A
C452   C454    1.408   .     A
C452   N490    1.422   .     S
C452   C767    1.390   1_545 S
C453   C467    1.398   .     A
C453   C461    1.450   .     S
C453   C468    1.408   .     A
C454   C466    1.398   .     A
C455   N488    1.372   .     A
C455   O500    1.378   .     S
C456   O492    1.378   .     S
C456   N487    1.372   .     A
C456   C908    1.427   .     S
C457   N487    1.364   .     A
C457   H482    1.082   .     S
C457   C905    1.427   .     S
C458   N488    1.364   .     A
C458   H483    1.082   .     S
C459   H486    1.111   .     S
C459   H472    1.109   .     S
C459   N489    1.447   .     S
C459   H485    1.111   .     S
C460   H476    1.111   .     S
C460   H475    1.109   .     S
C460   N490    1.447   .     S
C460   H474    1.111   .     S
C461   O493    1.290   .     A
C461   O495    1.295   .     A
C462   O498    1.291   .     A
C462   C464    1.435   .     S
C462   O496    1.287   .     A
C463   O499    1.291   .     A
C463   C465    1.435   .     S
C463   O497    1.287   .     A
C464   C565    1.337   1_455 S
C464   H571    1.087   1_455 S
C465   C514    1.337   .     S
C465   H529    1.087   .     S
C466   H480    1.084   .     S
C466   C768    1.390   1_545 S
C467   H481    1.084   .     S
C467   C602    1.390   .     S
C468   N489    1.422   .     S
C468   C616    1.390   .     S
Cu469  O495    1.962   .     S
Cu469  O499    1.960   .     S
Cu469  Cu470   2.684   .     S
Cu469  O496    1.956   .     S
Cu469  O491    1.967   .     S
Cu469  N487    2.017   .     S
Cu470  N488    2.017   .     S
Cu470  O498    1.960   .     S
Cu470  O494    1.962   .     S
Cu470  O497    1.956   .     S
Cu470  O493    1.967   .     S
H471   C514    1.087   .     S
H473   N490    1.032   .     S
H477   O500    0.991   .     S
H478   O492    0.991   .     S
H479   C565    1.087   1_455 S
H484   N489    1.032   .     S
C501   O544    1.295   .     A
C501   C504    1.450   .     S
C501   O541    1.290   .     A
C502   C504    1.408   .     A
C502   N540    1.422   .     S
C502   C817    1.390   1_545 S
C503   C517    1.398   .     A
C503   C511    1.450   .     S
C503   C518    1.408   .     A
C504   C516    1.398   .     A
C505   N538    1.372   .     A
C505   O550    1.378   .     S
C506   O542    1.378   .     S
C506   N537    1.372   .     A
C506   C958    1.427   .     S
C507   N537    1.364   .     A
C507   H532    1.082   .     S
C507   C955    1.427   .     S
C508   N538    1.364   .     A
C508   H533    1.082   .     S
C509   H536    1.111   .     S
C509   H522    1.109   .     S
C509   N539    1.447   .     S
C509   H535    1.111   .     S
C510   H526    1.111   .     S
C510   H525    1.109   .     S
C510   N540    1.447   .     S
C510   H524    1.111   .     S
C511   O543    1.290   .     A
C511   O545    1.295   .     A
C512   O548    1.291   .     A
C512   C514    1.435   .     S
C512   O546    1.287   .     A
C513   O549    1.291   .     A
C513   C515    1.435   .     S
C513   O547    1.287   .     A
C515   C564    1.337   .     S
C515   H579    1.087   .     S
C516   H530    1.084   .     S
C516   C818    1.390   1_545 S
C517   H531    1.084   .     S
C517   C652    1.390   .     S
C518   N539    1.422   .     S
C518   C666    1.390   .     S
Cu519  O545    1.962   .     S
Cu519  O549    1.960   .     S
Cu519  Cu520   2.684   .     S
Cu519  O546    1.956   .     S
Cu519  O541    1.967   .     S
Cu519  N537    2.017   .     S
Cu520  N538    2.017   .     S
Cu520  O548    1.960   .     S
Cu520  O544    1.962   .     S
Cu520  O547    1.956   .     S
Cu520  O543    1.967   .     S
H521   C564    1.087   .     S
H523   N540    1.032   .     S
H527   O550    0.991   .     S
H528   O542    0.991   .     S
H534   N539    1.032   .     S
C551   O594    1.295   .     A
C551   C554    1.450   .     S
C551   O591    1.290   .     A
C552   C554    1.408   .     A
C552   N590    1.422   .     S
C552   C867    1.390   1_545 S
C553   C567    1.398   .     A
C553   C561    1.450   .     S
C553   C568    1.408   .     A
C554   C566    1.398   .     A
C555   N588    1.372   .     A
C555   O600    1.378   .     S
C556   O592    1.378   .     S
C556   N587    1.372   .     A
C556   C1008   1.427   .     S
C557   N587    1.364   .     A
C557   H582    1.082   .     S
C557   C1005   1.427   .     S
C558   N588    1.364   .     A
C558   H583    1.082   .     S
C559   H586    1.111   .     S
C559   H572    1.109   .     S
C559   N589    1.447   .     S
C559   H585    1.111   .     S
C560   H576    1.111   .     S
C560   H575    1.109   .     S
C560   N590    1.447   .     S
C560   H574    1.111   .     S
C561   O593    1.290   .     A
C561   O595    1.295   .     A
C562   O598    1.291   .     A
C562   C564    1.435   .     S
C562   O596    1.287   .     A
C563   O599    1.291   .     A
C563   C565    1.435   .     S
C563   O597    1.287   .     A
C565   C464    1.337   1_655 S
C565   H479    1.087   1_655 S
C566   H580    1.084   .     S
C566   C868    1.390   1_545 S
C567   H581    1.084   .     S
C567   C702    1.390   .     S
C568   N589    1.422   .     S
C568   C716    1.390   .     S
Cu569  O595    1.962   .     S
Cu569  O599    1.960   .     S
Cu569  Cu570   2.684   .     S
Cu569  O596    1.956   .     S
Cu569  O591    1.967   .     S
Cu569  N587    2.017   .     S
Cu570  N588    2.017   .     S
Cu570  O598    1.960   .     S
Cu570  O594    1.962   .     S
Cu570  O597    1.956   .     S
Cu570  O593    1.967   .     S
H571   C464    1.087   1_655 S
H573   N590    1.032   .     S
H577   O600    0.991   .     S
H578   O592    0.991   .     S
H584   N589    1.032   .     S
C601   O644    1.295   .     A
C601   C604    1.450   .     S
C601   O641    1.290   .     A
C602   C604    1.408   .     A
C602   N640    1.422   .     S
C603   C617    1.398   .     A
C603   C611    1.450   .     S
C603   C618    1.408   .     A
C604   C616    1.398   .     A
C605   N638    1.372   .     A
C605   O650    1.378   .     S
C606   O642    1.378   .     S
C606   N637    1.372   .     A
C606   C1058   1.427   .     S
C607   N637    1.364   .     A
C607   H632    1.082   .     S
C607   C1055   1.427   .     S
C608   N638    1.364   .     A
C608   H633    1.082   .     S
C609   H636    1.111   .     S
C609   H622    1.109   .     S
C609   N639    1.447   .     S
C609   H635    1.111   .     S
C610   H626    1.111   .     S
C610   H625    1.109   .     S
C610   N640    1.447   .     S
C610   H624    1.111   .     S
C611   O643    1.290   .     A
C611   O645    1.295   .     A
C612   O648    1.291   .     A
C612   C614    1.435   .     S
C612   O646    1.287   .     A
C613   O649    1.291   .     A
C613   C615    1.435   .     S
C613   O647    1.287   .     A
C614   C715    1.337   1_455 S
C614   H721    1.087   1_455 S
C615   C664    1.337   .     S
C615   H679    1.087   .     S
C616   H630    1.084   .     S
C617   H631    1.084   .     S
C617   C752    1.390   .     S
C618   N639    1.422   .     S
C618   C766    1.390   .     S
Cu619  O645    1.962   .     S
Cu619  O649    1.960   .     S
Cu619  Cu620   2.684   .     S
Cu619  O646    1.956   .     S
Cu619  O641    1.967   .     S
Cu619  N637    2.017   .     S
Cu620  N638    2.017   .     S
Cu620  O648    1.960   .     S
Cu620  O644    1.962   .     S
Cu620  O647    1.956   .     S
Cu620  O643    1.967   .     S
H621   C664    1.087   .     S
H623   N640    1.032   .     S
H627   O650    0.991   .     S
H628   O642    0.991   .     S
H629   C715    1.087   1_455 S
H634   N639    1.032   .     S
C651   O694    1.295   .     A
C651   C654    1.450   .     S
C651   O691    1.290   .     A
C652   C654    1.408   .     A
C652   N690    1.422   .     S
C653   C667    1.398   .     A
C653   C661    1.450   .     S
C653   C668    1.408   .     A
C654   C666    1.398   .     A
C655   N688    1.372   .     A
C655   O700    1.378   .     S
C656   O692    1.378   .     S
C656   N687    1.372   .     A
C656   C1108   1.427   .     S
C657   N687    1.364   .     A
C657   H682    1.082   .     S
C657   C1105   1.427   .     S
C658   N688    1.364   .     A
C658   H683    1.082   .     S
C659   H686    1.111   .     S
C659   H672    1.109   .     S
C659   N689    1.447   .     S
C659   H685    1.111   .     S
C660   H676    1.111   .     S
C660   H675    1.109   .     S
C660   N690    1.447   .     S
C660   H674    1.111   .     S
C661   O693    1.290   .     A
C661   O695    1.295   .     A
C662   O698    1.291   .     A
C662   C664    1.435   .     S
C662   O696    1.287   .     A
C663   O699    1.291   .     A
C663   C665    1.435   .     S
C663   O697    1.287   .     A
C665   C714    1.337   .     S
C665   H729    1.087   .     S
C666   H680    1.084   .     S
C667   H681    1.084   .     S
C667   C802    1.390   .     S
C668   N689    1.422   .     S
C668   C816    1.390   .     S
Cu669  O695    1.962   .     S
Cu669  O699    1.960   .     S
Cu669  Cu670   2.684   .     S
Cu669  O696    1.956   .     S
Cu669  O691    1.967   .     S
Cu669  N687    2.017   .     S
Cu670  N688    2.017   .     S
Cu670  O698    1.960   .     S
Cu670  O694    1.962   .     S
Cu670  O697    1.956   .     S
Cu670  O693    1.967   .     S
H671   C714    1.087   .     S
H673   N690    1.032   .     S
H677   O700    0.991   .     S
H678   O692    0.991   .     S
H684   N689    1.032   .     S
C701   O744    1.295   .     A
C701   C704    1.450   .     S
C701   O741    1.290   .     A
C702   C704    1.408   .     A
C702   N740    1.422   .     S
C703   C717    1.398   .     A
C703   C711    1.450   .     S
C703   C718    1.408   .     A
C704   C716    1.398   .     A
C705   N738    1.372   .     A
C705   O750    1.378   .     S
C706   O742    1.378   .     S
C706   N737    1.372   .     A
C706   C1158   1.427   .     S
C707   N737    1.364   .     A
C707   H732    1.082   .     S
C707   C1155   1.427   .     S
C708   N738    1.364   .     A
C708   H733    1.082   .     S
C709   H736    1.111   .     S
C709   H722    1.109   .     S
C709   N739    1.447   .     S
C709   H735    1.111   .     S
C710   H726    1.111   .     S
C710   H725    1.109   .     S
C710   N740    1.447   .     S
C710   H724    1.111   .     S
C711   O743    1.290   .     A
C711   O745    1.295   .     A
C712   O748    1.291   .     A
C712   C714    1.435   .     S
C712   O746    1.287   .     A
C713   O749    1.291   .     A
C713   C715    1.435   .     S
C713   O747    1.287   .     A
C715   C614    1.337   1_655 S
C715   H629    1.087   1_655 S
C716   H730    1.084   .     S
C717   H731    1.084   .     S
C717   C852    1.390   .     S
C718   N739    1.422   .     S
C718   C866    1.390   .     S
Cu719  O745    1.962   .     S
Cu719  O749    1.960   .     S
Cu719  Cu720   2.684   .     S
Cu719  O746    1.956   .     S
Cu719  O741    1.967   .     S
Cu719  N737    2.017   .     S
Cu720  N738    2.017   .     S
Cu720  O748    1.960   .     S
Cu720  O744    1.962   .     S
Cu720  O747    1.956   .     S
Cu720  O743    1.967   .     S
H721   C614    1.087   1_655 S
H723   N740    1.032   .     S
H727   O750    0.991   .     S
H728   O742    0.991   .     S
H734   N739    1.032   .     S
C751   O794    1.295   .     A
C751   C754    1.450   .     S
C751   O791    1.290   .     A
C752   C754    1.408   .     A
C752   N790    1.422   .     S
C753   C767    1.398   .     A
C753   C761    1.450   .     S
C753   C768    1.408   .     A
C754   C766    1.398   .     A
C755   N788    1.372   .     A
C755   O800    1.378   .     S
C756   O792    1.378   .     S
C756   N787    1.372   .     A
C756   C1208   1.427   .     S
C757   N787    1.364   .     A
C757   H782    1.082   .     S
C757   C1205   1.427   .     S
C758   N788    1.364   .     A
C758   H783    1.082   .     S
C759   H786    1.111   .     S
C759   H772    1.109   .     S
C759   N789    1.447   .     S
C759   H785    1.111   .     S
C760   H776    1.111   .     S
C760   H775    1.109   .     S
C760   N790    1.447   .     S
C760   H774    1.111   .     S
C761   O793    1.290   .     A
C761   O795    1.295   .     A
C762   O798    1.291   .     A
C762   C764    1.435   .     S
C762   O796    1.287   .     A
C763   O799    1.291   .     A
C763   C765    1.435   .     S
C763   O797    1.287   .     A
C764   C865    1.337   1_455 S
C764   H871    1.087   1_455 S
C765   C814    1.337   .     S
C765   H829    1.087   .     S
C766   H780    1.084   .     S
C767   H781    1.084   .     S
C767   C452    1.390   1_565 S
C768   N789    1.422   .     S
C768   C466    1.390   1_565 S
Cu769  O795    1.962   .     S
Cu769  O799    1.960   .     S
Cu769  Cu770   2.684   .     S
Cu769  O796    1.956   .     S
Cu769  O791    1.967   .     S
Cu769  N787    2.017   .     S
Cu770  N788    2.017   .     S
Cu770  O798    1.960   .     S
Cu770  O794    1.962   .     S
Cu770  O797    1.956   .     S
Cu770  O793    1.967   .     S
H771   C814    1.087   .     S
H773   N790    1.032   .     S
H777   O800    0.991   .     S
H778   O792    0.991   .     S
H779   C865    1.087   1_455 S
H784   N789    1.032   .     S
C801   O844    1.295   .     A
C801   C804    1.450   .     S
C801   O841    1.290   .     A
C802   C804    1.408   .     A
C802   N840    1.422   .     S
C803   C817    1.398   .     A
C803   C811    1.450   .     S
C803   C818    1.408   .     A
C804   C816    1.398   .     A
C805   N838    1.372   .     A
C805   O850    1.378   .     S
C806   O842    1.378   .     S
C806   N837    1.372   .     A
C806   C1258   1.427   .     S
C807   N837    1.364   .     A
C807   H832    1.082   .     S
C807   C1255   1.427   .     S
C808   N838    1.364   .     A
C808   H833    1.082   .     S
C809   H836    1.111   .     S
C809   H822    1.109   .     S
C809   N839    1.447   .     S
C809   H835    1.111   .     S
C810   H826    1.111   .     S
C810   H825    1.109   .     S
C810   N840    1.447   .     S
C810   H824    1.111   .     S
C811   O843    1.290   .     A
C811   O845    1.295   .     A
C812   O848    1.291   .     A
C812   C814    1.435   .     S
C812   O846    1.287   .     A
C813   O849    1.291   .     A
C813   C815    1.435   .     S
C813   O847    1.287   .     A
C815   C864    1.337   .     S
C815   H879    1.087   .     S
C816   H830    1.084   .     S
C817   H831    1.084   .     S
C817   C502    1.390   1_565 S
C818   N839    1.422   .     S
C818   C516    1.390   1_565 S
Cu819  O845    1.962   .     S
Cu819  O849    1.960   .     S
Cu819  Cu820   2.684   .     S
Cu819  O846    1.956   .     S
Cu819  O841    1.967   .     S
Cu819  N837    2.017   .     S
Cu820  N838    2.017   .     S
Cu820  O848    1.960   .     S
Cu820  O844    1.962   .     S
Cu820  O847    1.956   .     S
Cu820  O843    1.967   .     S
H821   C864    1.087   .     S
H823   N840    1.032   .     S
H827   O850    0.991   .     S
H828   O842    0.991   .     S
H834   N839    1.032   .     S
C851   O894    1.295   .     A
C851   C854    1.450   .     S
C851   O891    1.290   .     A
C852   C854    1.408   .     A
C852   N890    1.422   .     S
C853   C867    1.398   .     A
C853   C861    1.450   .     S
C853   C868    1.408   .     A
C854   C866    1.398   .     A
C855   N888    1.372   .     A
C855   O900    1.378   .     S
C856   O892    1.378   .     S
C856   N887    1.372   .     A
C856   C1308   1.427   .     S
C857   N887    1.364   .     A
C857   H882    1.082   .     S
C857   C1305   1.427   .     S
C858   N888    1.364   .     A
C858   H883    1.082   .     S
C859   H886    1.111   .     S
C859   H872    1.109   .     S
C859   N889    1.447   .     S
C859   H885    1.111   .     S
C860   H876    1.111   .     S
C860   H875    1.109   .     S
C860   N890    1.447   .     S
C860   H874    1.111   .     S
C861   O893    1.290   .     A
C861   O895    1.295   .     A
C862   O898    1.291   .     A
C862   C864    1.435   .     S
C862   O896    1.287   .     A
C863   O899    1.291   .     A
C863   C865    1.435   .     S
C863   O897    1.287   .     A
C865   C764    1.337   1_655 S
C865   H779    1.087   1_655 S
C866   H880    1.084   .     S
C867   H881    1.084   .     S
C867   C552    1.390   1_565 S
C868   N889    1.422   .     S
C868   C566    1.390   1_565 S
Cu869  O895    1.962   .     S
Cu869  O899    1.960   .     S
Cu869  Cu870   2.684   .     S
Cu869  O896    1.956   .     S
Cu869  O891    1.967   .     S
Cu869  N887    2.017   .     S
Cu870  N888    2.017   .     S
Cu870  O898    1.960   .     S
Cu870  O894    1.962   .     S
Cu870  O897    1.956   .     S
Cu870  O893    1.967   .     S
H871   C764    1.087   1_655 S
H873   N890    1.032   .     S
H877   O900    0.991   .     S
H878   O892    0.991   .     S
H884   N889    1.032   .     S
C901   O944    1.295   .     A
C901   C904    1.450   .     S
C901   O941    1.290   .     A
C902   C904    1.408   .     A
C902   N940    1.422   .     S
C902   C1217   1.390   1_545 S
C903   C917    1.398   .     A
C903   C911    1.450   .     S
C903   C918    1.408   .     A
C904   C916    1.398   .     A
C905   N938    1.372   .     A
C905   O950    1.378   .     S
C906   O942    1.378   .     S
C906   N937    1.372   .     A
C906   C8      1.427   1_556 S
C907   N937    1.364   .     A
C907   H932    1.082   .     S
C907   C5      1.427   1_556 S
C908   N938    1.364   .     A
C908   H933    1.082   .     S
C909   H936    1.111   .     S
C909   H922    1.109   .     S
C909   N939    1.447   .     S
C909   H935    1.111   .     S
C910   H926    1.111   .     S
C910   H925    1.109   .     S
C910   N940    1.447   .     S
C910   H924    1.111   .     S
C911   O943    1.290   .     A
C911   O945    1.295   .     A
C912   O948    1.291   .     A
C912   C914    1.435   .     S
C912   O946    1.287   .     A
C913   O949    1.291   .     A
C913   C915    1.435   .     S
C913   O947    1.287   .     A
C914   C1015   1.337   1_455 S
C914   H1021   1.087   1_455 S
C915   C964    1.337   .     S
C915   H979    1.087   .     S
C916   H930    1.084   .     S
C916   C1218   1.390   1_545 S
C917   H931    1.084   .     S
C917   C1052   1.390   .     S
C918   N939    1.422   .     S
C918   C1066   1.390   .     S
Cu919  O945    1.962   .     S
Cu919  O949    1.960   .     S
Cu919  Cu920   2.684   .     S
Cu919  O946    1.956   .     S
Cu919  O941    1.967   .     S
Cu919  N937    2.017   .     S
Cu920  N938    2.017   .     S
Cu920  O948    1.960   .     S
Cu920  O944    1.962   .     S
Cu920  O947    1.956   .     S
Cu920  O943    1.967   .     S
H921   C964    1.087   .     S
H923   N940    1.032   .     S
H927   O950    0.991   .     S
H928   O942    0.991   .     S
H929   C1015   1.087   1_455 S
H934   N939    1.032   .     S
C951   O994    1.295   .     A
C951   C954    1.450   .     S
C951   O991    1.290   .     A
C952   C954    1.408   .     A
C952   N990    1.422   .     S
C952   C1267   1.390   1_545 S
C953   C967    1.398   .     A
C953   C961    1.450   .     S
C953   C968    1.408   .     A
C954   C966    1.398   .     A
C955   N988    1.372   .     A
C955   O1000   1.378   .     S
C956   O992    1.378   .     S
C956   N987    1.372   .     A
C956   C58     1.427   1_556 S
C957   N987    1.364   .     A
C957   H982    1.082   .     S
C957   C55     1.427   1_556 S
C958   N988    1.364   .     A
C958   H983    1.082   .     S
C959   H986    1.111   .     S
C959   H972    1.109   .     S
C959   N989    1.447   .     S
C959   H985    1.111   .     S
C960   H976    1.111   .     S
C960   H975    1.109   .     S
C960   N990    1.447   .     S
C960   H974    1.111   .     S
C961   O993    1.290   .     A
C961   O995    1.295   .     A
C962   O998    1.291   .     A
C962   C964    1.435   .     S
C962   O996    1.287   .     A
C963   O999    1.291   .     A
C963   C965    1.435   .     S
C963   O997    1.287   .     A
C965   C1014   1.337   .     S
C965   H1029   1.087   .     S
C966   H980    1.084   .     S
C966   C1268   1.390   1_545 S
C967   H981    1.084   .     S
C967   C1102   1.390   .     S
C968   N989    1.422   .     S
C968   C1116   1.390   .     S
Cu969  O995    1.962   .     S
Cu969  O999    1.960   .     S
Cu969  Cu970   2.684   .     S
Cu969  O996    1.956   .     S
Cu969  O991    1.967   .     S
Cu969  N987    2.017   .     S
Cu970  N988    2.017   .     S
Cu970  O998    1.960   .     S
Cu970  O994    1.962   .     S
Cu970  O997    1.956   .     S
Cu970  O993    1.967   .     S
H971   C1014   1.087   .     S
H973   N990    1.032   .     S
H977   O1000   0.991   .     S
H978   O992    0.991   .     S
H984   N989    1.032   .     S
C1001  O1044   1.295   .     A
C1001  C1004   1.450   .     S
C1001  O1041   1.290   .     A
C1002  C1004   1.408   .     A
C1002  N1040   1.422   .     S
C1002  C1317   1.390   1_545 S
C1003  C1017   1.398   .     A
C1003  C1011   1.450   .     S
C1003  C1018   1.408   .     A
C1004  C1016   1.398   .     A
C1005  N1038   1.372   .     A
C1005  O1050   1.378   .     S
C1006  O1042   1.378   .     S
C1006  N1037   1.372   .     A
C1006  C108    1.427   1_556 S
C1007  N1037   1.364   .     A
C1007  H1032   1.082   .     S
C1007  C105    1.427   1_556 S
C1008  N1038   1.364   .     A
C1008  H1033   1.082   .     S
C1009  H1036   1.111   .     S
C1009  H1022   1.109   .     S
C1009  N1039   1.447   .     S
C1009  H1035   1.111   .     S
C1010  H1026   1.111   .     S
C1010  H1025   1.109   .     S
C1010  N1040   1.447   .     S
C1010  H1024   1.111   .     S
C1011  O1043   1.290   .     A
C1011  O1045   1.295   .     A
C1012  O1048   1.291   .     A
C1012  C1014   1.435   .     S
C1012  O1046   1.287   .     A
C1013  O1049   1.291   .     A
C1013  C1015   1.435   .     S
C1013  O1047   1.287   .     A
C1015  C914    1.337   1_655 S
C1015  H929    1.087   1_655 S
C1016  H1030   1.084   .     S
C1016  C1318   1.390   1_545 S
C1017  H1031   1.084   .     S
C1017  C1152   1.390   .     S
C1018  N1039   1.422   .     S
C1018  C1166   1.390   .     S
Cu1019 O1045   1.962   .     S
Cu1019 O1049   1.960   .     S
Cu1019 Cu1020  2.684   .     S
Cu1019 O1046   1.956   .     S
Cu1019 O1041   1.967   .     S
Cu1019 N1037   2.017   .     S
Cu1020 N1038   2.017   .     S
Cu1020 O1048   1.960   .     S
Cu1020 O1044   1.962   .     S
Cu1020 O1047   1.956   .     S
Cu1020 O1043   1.967   .     S
H1021  C914    1.087   1_655 S
H1023  N1040   1.032   .     S
H1027  O1050   0.991   .     S
H1028  O1042   0.991   .     S
H1034  N1039   1.032   .     S
C1051  O1094   1.295   .     A
C1051  C1054   1.450   .     S
C1051  O1091   1.290   .     A
C1052  C1054   1.408   .     A
C1052  N1090   1.422   .     S
C1053  C1067   1.398   .     A
C1053  C1061   1.450   .     S
C1053  C1068   1.408   .     A
C1054  C1066   1.398   .     A
C1055  N1088   1.372   .     A
C1055  O1100   1.378   .     S
C1056  O1092   1.378   .     S
C1056  N1087   1.372   .     A
C1056  C158    1.427   1_556 S
C1057  N1087   1.364   .     A
C1057  H1082   1.082   .     S
C1057  C155    1.427   1_556 S
C1058  N1088   1.364   .     A
C1058  H1083   1.082   .     S
C1059  H1086   1.111   .     S
C1059  H1072   1.109   .     S
C1059  N1089   1.447   .     S
C1059  H1085   1.111   .     S
C1060  H1076   1.111   .     S
C1060  H1075   1.109   .     S
C1060  N1090   1.447   .     S
C1060  H1074   1.111   .     S
C1061  O1093   1.290   .     A
C1061  O1095   1.295   .     A
C1062  O1098   1.291   .     A
C1062  C1064   1.435   .     S
C1062  O1096   1.287   .     A
C1063  O1099   1.291   .     A
C1063  C1065   1.435   .     S
C1063  O1097   1.287   .     A
C1064  C1165   1.337   1_455 S
C1064  H1171   1.087   1_455 S
C1065  C1114   1.337   .     S
C1065  H1129   1.087   .     S
C1066  H1080   1.084   .     S
C1067  H1081   1.084   .     S
C1067  C1202   1.390   .     S
C1068  N1089   1.422   .     S
C1068  C1216   1.390   .     S
Cu1069 O1095   1.962   .     S
Cu1069 O1099   1.960   .     S
Cu1069 Cu1070  2.684   .     S
Cu1069 O1096   1.956   .     S
Cu1069 O1091   1.967   .     S
Cu1069 N1087   2.017   .     S
Cu1070 N1088   2.017   .     S
Cu1070 O1098   1.960   .     S
Cu1070 O1094   1.962   .     S
Cu1070 O1097   1.956   .     S
Cu1070 O1093   1.967   .     S
H1071  C1114   1.087   .     S
H1073  N1090   1.032   .     S
H1077  O1100   0.991   .     S
H1078  O1092   0.991   .     S
H1079  C1165   1.087   1_455 S
H1084  N1089   1.032   .     S
C1101  O1144   1.295   .     A
C1101  C1104   1.450   .     S
C1101  O1141   1.290   .     A
C1102  C1104   1.408   .     A
C1102  N1140   1.422   .     S
C1103  C1117   1.398   .     A
C1103  C1111   1.450   .     S
C1103  C1118   1.408   .     A
C1104  C1116   1.398   .     A
C1105  N1138   1.372   .     A
C1105  O1150   1.378   .     S
C1106  O1142   1.378   .     S
C1106  N1137   1.372   .     A
C1106  C208    1.427   1_556 S
C1107  N1137   1.364   .     A
C1107  H1132   1.082   .     S
C1107  C205    1.427   1_556 S
C1108  N1138   1.364   .     A
C1108  H1133   1.082   .     S
C1109  H1136   1.111   .     S
C1109  H1122   1.109   .     S
C1109  N1139   1.447   .     S
C1109  H1135   1.111   .     S
C1110  H1126   1.111   .     S
C1110  H1125   1.109   .     S
C1110  N1140   1.447   .     S
C1110  H1124   1.111   .     S
C1111  O1143   1.290   .     A
C1111  O1145   1.295   .     A
C1112  O1148   1.291   .     A
C1112  C1114   1.435   .     S
C1112  O1146   1.287   .     A
C1113  O1149   1.291   .     A
C1113  C1115   1.435   .     S
C1113  O1147   1.287   .     A
C1115  C1164   1.337   .     S
C1115  H1179   1.087   .     S
C1116  H1130   1.084   .     S
C1117  H1131   1.084   .     S
C1117  C1252   1.390   .     S
C1118  N1139   1.422   .     S
C1118  C1266   1.390   .     S
Cu1119 O1145   1.962   .     S
Cu1119 O1149   1.960   .     S
Cu1119 Cu1120  2.684   .     S
Cu1119 O1146   1.956   .     S
Cu1119 O1141   1.967   .     S
Cu1119 N1137   2.017   .     S
Cu1120 N1138   2.017   .     S
Cu1120 O1148   1.960   .     S
Cu1120 O1144   1.962   .     S
Cu1120 O1147   1.956   .     S
Cu1120 O1143   1.967   .     S
H1121  C1164   1.087   .     S
H1123  N1140   1.032   .     S
H1127  O1150   0.991   .     S
H1128  O1142   0.991   .     S
H1134  N1139   1.032   .     S
C1151  O1194   1.295   .     A
C1151  C1154   1.450   .     S
C1151  O1191   1.290   .     A
C1152  C1154   1.408   .     A
C1152  N1190   1.422   .     S
C1153  C1167   1.398   .     A
C1153  C1161   1.450   .     S
C1153  C1168   1.408   .     A
C1154  C1166   1.398   .     A
C1155  N1188   1.372   .     A
C1155  O1200   1.378   .     S
C1156  O1192   1.378   .     S
C1156  N1187   1.372   .     A
C1156  C258    1.427   1_556 S
C1157  N1187   1.364   .     A
C1157  H1182   1.082   .     S
C1157  C255    1.427   1_556 S
C1158  N1188   1.364   .     A
C1158  H1183   1.082   .     S
C1159  H1186   1.111   .     S
C1159  H1172   1.109   .     S
C1159  N1189   1.447   .     S
C1159  H1185   1.111   .     S
C1160  H1176   1.111   .     S
C1160  H1175   1.109   .     S
C1160  N1190   1.447   .     S
C1160  H1174   1.111   .     S
C1161  O1193   1.290   .     A
C1161  O1195   1.295   .     A
C1162  O1198   1.291   .     A
C1162  C1164   1.435   .     S
C1162  O1196   1.287   .     A
C1163  O1199   1.291   .     A
C1163  C1165   1.435   .     S
C1163  O1197   1.287   .     A
C1165  C1064   1.337   1_655 S
C1165  H1079   1.087   1_655 S
C1166  H1180   1.084   .     S
C1167  H1181   1.084   .     S
C1167  C1302   1.390   .     S
C1168  N1189   1.422   .     S
C1168  C1316   1.390   .     S
Cu1169 O1195   1.962   .     S
Cu1169 O1199   1.960   .     S
Cu1169 Cu1170  2.684   .     S
Cu1169 O1196   1.956   .     S
Cu1169 O1191   1.967   .     S
Cu1169 N1187   2.017   .     S
Cu1170 N1188   2.017   .     S
Cu1170 O1198   1.960   .     S
Cu1170 O1194   1.962   .     S
Cu1170 O1197   1.956   .     S
Cu1170 O1193   1.967   .     S
H1171  C1064   1.087   1_655 S
H1173  N1190   1.032   .     S
H1177  O1200   0.991   .     S
H1178  O1192   0.991   .     S
H1184  N1189   1.032   .     S
C1201  O1244   1.295   .     A
C1201  C1204   1.450   .     S
C1201  O1241   1.290   .     A
C1202  C1204   1.408   .     A
C1202  N1240   1.422   .     S
C1203  C1217   1.398   .     A
C1203  C1211   1.450   .     S
C1203  C1218   1.408   .     A
C1204  C1216   1.398   .     A
C1205  N1238   1.372   .     A
C1205  O1250   1.378   .     S
C1206  O1242   1.378   .     S
C1206  N1237   1.372   .     A
C1206  C308    1.427   1_556 S
C1207  N1237   1.364   .     A
C1207  H1232   1.082   .     S
C1207  C305    1.427   1_556 S
C1208  N1238   1.364   .     A
C1208  H1233   1.082   .     S
C1209  H1236   1.111   .     S
C1209  H1222   1.109   .     S
C1209  N1239   1.447   .     S
C1209  H1235   1.111   .     S
C1210  H1226   1.111   .     S
C1210  H1225   1.109   .     S
C1210  N1240   1.447   .     S
C1210  H1224   1.111   .     S
C1211  O1243   1.290   .     A
C1211  O1245   1.295   .     A
C1212  O1248   1.291   .     A
C1212  C1214   1.435   .     S
C1212  O1246   1.287   .     A
C1213  O1249   1.291   .     A
C1213  C1215   1.435   .     S
C1213  O1247   1.287   .     A
C1214  C1315   1.337   1_455 S
C1214  H1321   1.087   1_455 S
C1215  C1264   1.337   .     S
C1215  H1279   1.087   .     S
C1216  H1230   1.084   .     S
C1217  H1231   1.084   .     S
C1217  C902    1.390   1_565 S
C1218  N1239   1.422   .     S
C1218  C916    1.390   1_565 S
Cu1219 O1245   1.962   .     S
Cu1219 O1249   1.960   .     S
Cu1219 Cu1220  2.684   .     S
Cu1219 O1246   1.956   .     S
Cu1219 O1241   1.967   .     S
Cu1219 N1237   2.017   .     S
Cu1220 N1238   2.017   .     S
Cu1220 O1248   1.960   .     S
Cu1220 O1244   1.962   .     S
Cu1220 O1247   1.956   .     S
Cu1220 O1243   1.967   .     S
H1221  C1264   1.087   .     S
H1223  N1240   1.032   .     S
H1227  O1250   0.991   .     S
H1228  O1242   0.991   .     S
H1229  C1315   1.087   1_455 S
H1234  N1239   1.032   .     S
C1251  O1294   1.295   .     A
C1251  C1254   1.450   .     S
C1251  O1291   1.290   .     A
C1252  C1254   1.408   .     A
C1252  N1290   1.422   .     S
C1253  C1267   1.398   .     A
C1253  C1261   1.450   .     S
C1253  C1268   1.408   .     A
C1254  C1266   1.398   .     A
C1255  N1288   1.372   .     A
C1255  O1300   1.378   .     S
C1256  O1292   1.378   .     S
C1256  N1287   1.372   .     A
C1256  C358    1.427   1_556 S
C1257  N1287   1.364   .     A
C1257  H1282   1.082   .     S
C1257  C355    1.427   1_556 S
C1258  N1288   1.364   .     A
C1258  H1283   1.082   .     S
C1259  H1286   1.111   .     S
C1259  H1272   1.109   .     S
C1259  N1289   1.447   .     S
C1259  H1285   1.111   .     S
C1260  H1276   1.111   .     S
C1260  H1275   1.109   .     S
C1260  N1290   1.447   .     S
C1260  H1274   1.111   .     S
C1261  O1293   1.290   .     A
C1261  O1295   1.295   .     A
C1262  O1298   1.291   .     A
C1262  C1264   1.435   .     S
C1262  O1296   1.287   .     A
C1263  O1299   1.291   .     A
C1263  C1265   1.435   .     S
C1263  O1297   1.287   .     A
C1265  C1314   1.337   .     S
C1265  H1329   1.087   .     S
C1266  H1280   1.084   .     S
C1267  H1281   1.084   .     S
C1267  C952    1.390   1_565 S
C1268  N1289   1.422   .     S
C1268  C966    1.390   1_565 S
Cu1269 O1295   1.962   .     S
Cu1269 O1299   1.960   .     S
Cu1269 Cu1270  2.684   .     S
Cu1269 O1296   1.956   .     S
Cu1269 O1291   1.967   .     S
Cu1269 N1287   2.017   .     S
Cu1270 N1288   2.017   .     S
Cu1270 O1298   1.960   .     S
Cu1270 O1294   1.962   .     S
Cu1270 O1297   1.956   .     S
Cu1270 O1293   1.967   .     S
H1271  C1314   1.087   .     S
H1273  N1290   1.032   .     S
H1277  O1300   0.991   .     S
H1278  O1292   0.991   .     S
H1284  N1289   1.032   .     S
C1301  O1344   1.295   .     A
C1301  C1304   1.450   .     S
C1301  O1341   1.290   .     A
C1302  C1304   1.408   .     A
C1302  N1340   1.422   .     S
C1303  C1317   1.398   .     A
C1303  C1311   1.450   .     S
C1303  C1318   1.408   .     A
C1304  C1316   1.398   .     A
C1305  N1338   1.372   .     A
C1305  O1350   1.378   .     S
C1306  O1342   1.378   .     S
C1306  N1337   1.372   .     A
C1306  C408    1.427   1_556 S
C1307  N1337   1.364   .     A
C1307  H1332   1.082   .     S
C1307  C405    1.427   1_556 S
C1308  N1338   1.364   .     A
C1308  H1333   1.082   .     S
C1309  H1336   1.111   .     S
C1309  H1322   1.109   .     S
C1309  N1339   1.447   .     S
C1309  H1335   1.111   .     S
C1310  H1326   1.111   .     S
C1310  H1325   1.109   .     S
C1310  N1340   1.447   .     S
C1310  H1324   1.111   .     S
C1311  O1343   1.290   .     A
C1311  O1345   1.295   .     A
C1312  O1348   1.291   .     A
C1312  C1314   1.435   .     S
C1312  O1346   1.287   .     A
C1313  O1349   1.291   .     A
C1313  C1315   1.435   .     S
C1313  O1347   1.287   .     A
C1315  C1214   1.337   1_655 S
C1315  H1229   1.087   1_655 S
C1316  H1330   1.084   .     S
C1317  H1331   1.084   .     S
C1317  C1002   1.390   1_565 S
C1318  N1339   1.422   .     S
C1318  C1016   1.390   1_565 S
Cu1319 O1345   1.962   .     S
Cu1319 O1349   1.960   .     S
Cu1319 Cu1320  2.684   .     S
Cu1319 O1346   1.956   .     S
Cu1319 O1341   1.967   .     S
Cu1319 N1337   2.017   .     S
Cu1320 N1338   2.017   .     S
Cu1320 O1348   1.960   .     S
Cu1320 O1344   1.962   .     S
Cu1320 O1347   1.956   .     S
Cu1320 O1343   1.967   .     S
H1321  C1214   1.087   1_655 S
H1323  N1340   1.032   .     S
H1327  O1350   0.991   .     S
H1328  O1342   0.991   .     S
H1334  N1339   1.032   .     S
