data_str_m2_o1_o1_pcu_sym.42
_audit_creation_date              2020-01-03
_audit_creation_method            'Materials Studio'
_symmetry_space_group_name_H-M    'P1'
_symmetry_Int_Tables_number       1
_symmetry_cell_setting            triclinic
loop_
_symmetry_equiv_pos_as_xyz
  x,y,z
_cell_length_a                    31.0586
_cell_length_b                    30.3194
_cell_length_c                    28.6207
_cell_angle_alpha                 90.6500
_cell_angle_beta                  90.1017
_cell_angle_gamma                 90.6360
loop_
_atom_site_label
_atom_site_type_symbol
_atom_site_fract_x
_atom_site_fract_y
_atom_site_fract_z
_atom_site_U_iso_or_equiv
_atom_site_adp_type
_atom_site_occupancy
C1     C     0.06211   0.19335   0.16651   0.00000  Uiso   1.00
C2     C     0.00117   0.28886   0.30903   0.00000  Uiso   1.00
C3     C     0.00106   0.28888   0.02518   0.00000  Uiso   1.00
C4     C     0.49894   0.21112   0.30816   0.00000  Uiso   1.00
C5     C     0.24883   0.46114   0.02431   0.00000  Uiso   1.00
C6     C     0.25117   0.03886   0.30903   0.00000  Uiso   1.00
C7     C     0.25106   0.03888   0.02518   0.00000  Uiso   1.00
C8     C     0.24894   0.46112   0.30816   0.00000  Uiso   1.00
C9     C     0.38673   0.14312   0.12333   0.00000  Uiso   1.00
C10    C     0.11327   0.35688   0.21000   0.00000  Uiso   1.00
C11    C     0.11792   0.35086   0.12499   0.00000  Uiso   1.00
C12    C     0.43789   0.30665   0.16682   0.00000  Uiso   1.00
C13    C     0.38208   0.14914   0.20835   0.00000  Uiso   1.00
C14    C     0.11508   0.14683   0.20912   0.00000  Uiso   1.00
C15    C     0.38492   0.35317   0.12421   0.00000  Uiso   1.00
C16    C     0.38783   0.35724   0.20988   0.00000  Uiso   1.00
C17    C     0.11217   0.14276   0.12345   0.00000  Uiso   1.00
C18    C     0.13673   0.39312   0.12333   0.00000  Uiso   1.00
C19    C     0.36327   0.10688   0.21000   0.00000  Uiso   1.00
C20    C     0.36792   0.10086   0.12499   0.00000  Uiso   1.00
C21    C     0.13208   0.39914   0.20835   0.00000  Uiso   1.00
C22    C     0.36508   0.39683   0.20912   0.00000  Uiso   1.00
C23    C     0.43717   0.19415   0.16641   0.00000  Uiso   1.00
C24    C     0.13492   0.10317   0.12421   0.00000  Uiso   1.00
C25    C     0.13783   0.10724   0.20988   0.00000  Uiso   1.00
C26    C     0.36217   0.39276   0.12345   0.00000  Uiso   1.00
C27    C     0.10017   0.33636   0.16759   0.00000  Uiso   1.00
C28    C     0.39983   0.16364   0.16575   0.00000  Uiso   1.00
C29    C     0.40140   0.33766   0.16717   0.00000  Uiso   1.00
C30    C     0.09860   0.16234   0.16617   0.00000  Uiso   1.00
C31    C     0.35017   0.08636   0.16759   0.00000  Uiso   1.00
C32    C     0.14983   0.41364   0.16575   0.00000  Uiso   1.00
C33    C     0.15140   0.08766   0.16717   0.00000  Uiso   1.00
C34    C     0.06283   0.30585   0.16692   0.00000  Uiso   1.00
C35    C     0.34860   0.41234   0.16617   0.00000  Uiso   1.00
C36    C     0.38439   0.16903   0.07917   0.00000  Uiso   1.00
C37    C     0.11561   0.33097   0.25416   0.00000  Uiso   1.00
C38    C     0.12430   0.31897   0.08541   0.00000  Uiso   1.00
C39    C     0.37570   0.18103   0.24792   0.00000  Uiso   1.00
C40    C     0.11059   0.17250   0.25352   0.00000  Uiso   1.00
C41    C     0.38941   0.32750   0.07982   0.00000  Uiso   1.00
C42    C     0.39525   0.33608   0.25583   0.00000  Uiso   1.00
C43    C     0.10475   0.16392   0.07750   0.00000  Uiso   1.00
C44    C     0.13439   0.41903   0.07917   0.00000  Uiso   1.00
C45    C     0.31211   0.44335   0.16651   0.00000  Uiso   1.00
C46    C     0.36561   0.08097   0.25416   0.00000  Uiso   1.00
C47    C     0.37430   0.06897   0.08541   0.00000  Uiso   1.00
C48    C     0.12570   0.43103   0.24792   0.00000  Uiso   1.00
C49    C     0.36059   0.42250   0.25352   0.00000  Uiso   1.00
C50    C     0.13941   0.07750   0.07982   0.00000  Uiso   1.00
C51    C     0.14525   0.08608   0.25583   0.00000  Uiso   1.00
C52    C     0.35475   0.41392   0.07750   0.00000  Uiso   1.00
C53    C     0.18789   0.05665   0.16682   0.00000  Uiso   1.00
C54    C     0.18717   0.44415   0.16641   0.00000  Uiso   1.00
C55    C     0.31283   0.05585   0.16692   0.00000  Uiso   1.00
C56    C     0.49883   0.21114   0.02431   0.00000  Uiso   1.00
Cl57   Cl    0.49692   0.16006   0.05311   0.00000  Uiso   1.00
Cl58   Cl    0.00308   0.33994   0.28023   0.00000  Uiso   1.00
Cl59   Cl    0.00212   0.34010   0.05500   0.00000  Uiso   1.00
Cl60   Cl    0.49788   0.15990   0.27833   0.00000  Uiso   1.00
Cl61   Cl    0.24692   0.41006   0.05311   0.00000  Uiso   1.00
Cl62   Cl    0.25308   0.08994   0.28023   0.00000  Uiso   1.00
Cl63   Cl    0.25212   0.09010   0.05500   0.00000  Uiso   1.00
Cl64   Cl    0.24788   0.40990   0.27833   0.00000  Uiso   1.00
Cu65   Cu    0.00000   0.25000   0.21355   0.00000  Uiso   1.00
Cu66   Cu    0.00000   0.25000   0.11978   0.00000  Uiso   1.00
Cu67   Cu    0.25000  -0.00000   0.21355   0.00000  Uiso   1.00
Cu68   Cu    0.25000  -0.00000   0.11978   0.00000  Uiso   1.00
H69    H     0.39632   0.20256   0.07753   0.00000  Uiso   1.00
H70    H     0.35368   0.04744   0.25580   0.00000  Uiso   1.00
H71    H     0.35790   0.03741   0.08421   0.00000  Uiso   1.00
H72    H     0.14210   0.46259   0.24913   0.00000  Uiso   1.00
H73    H     0.35091   0.40634   0.28552   0.00000  Uiso   1.00
H74    H     0.14909   0.09366   0.04781   0.00000  Uiso   1.00
H75    H     0.15760   0.10520   0.28529   0.00000  Uiso   1.00
H76    H     0.34240   0.39480   0.04804   0.00000  Uiso   1.00
H77    H     0.10368   0.29744   0.25580   0.00000  Uiso   1.00
H78    H     0.10790   0.28741   0.08421   0.00000  Uiso   1.00
H79    H     0.39210   0.21259   0.24912   0.00000  Uiso   1.00
H80    H     0.10091   0.15634   0.28552   0.00000  Uiso   1.00
H81    H     0.39909   0.34366   0.04781   0.00000  Uiso   1.00
H82    H     0.40760   0.35520   0.28529   0.00000  Uiso   1.00
H83    H     0.09240   0.14480   0.04804   0.00000  Uiso   1.00
H84    H     0.14632   0.45256   0.07754   0.00000  Uiso   1.00
N85    N     0.00000   0.25000   0.28402   0.00000  Uiso   1.00
N86    N     0.00000   0.25000   0.04931   0.00000  Uiso   1.00
N87    N     0.25000  -0.00000   0.28402   0.00000  Uiso   1.00
N88    N     0.25000  -0.00000   0.04931   0.00000  Uiso   1.00
O89    O     0.04509   0.20491   0.20625   0.00000  Uiso   1.00
O90    O     0.20492   0.04509   0.12709   0.00000  Uiso   1.00
O91    O     0.20492   0.04509   0.20625   0.00000  Uiso   1.00
O92    O     0.29509   0.45491   0.12709   0.00000  Uiso   1.00
O93    O     0.20492   0.45491   0.12709   0.00000  Uiso   1.00
O94    O     0.29509   0.04509   0.20625   0.00000  Uiso   1.00
O95    O     0.29509   0.04509   0.12709   0.00000  Uiso   1.00
O96    O     0.20492   0.45491   0.20625   0.00000  Uiso   1.00
O97    O     0.36555   0.15462   0.04469   0.00000  Uiso   1.00
O98    O     0.13445   0.34538   0.28865   0.00000  Uiso   1.00
O99    O     0.15117   0.32601   0.05523   0.00000  Uiso   1.00
O100   O     0.45492   0.29509   0.12709   0.00000  Uiso   1.00
O101   O     0.34883   0.17399   0.27811   0.00000  Uiso   1.00
O102   O     0.11919   0.21188   0.25480   0.00000  Uiso   1.00
O103   O     0.38081   0.28812   0.07854   0.00000  Uiso   1.00
O104   O     0.38571   0.29736   0.26156   0.00000  Uiso   1.00
O105   O     0.11429   0.20263   0.07177   0.00000  Uiso   1.00
O106   O     0.11555   0.40462   0.04468   0.00000  Uiso   1.00
O107   O     0.38445   0.09538   0.28865   0.00000  Uiso   1.00
O108   O     0.40117   0.07601   0.05523   0.00000  Uiso   1.00
O109   O     0.09883   0.42399   0.27811   0.00000  Uiso   1.00
O110   O     0.36919   0.46188   0.25480   0.00000  Uiso   1.00
O111   O     0.45492   0.29509   0.20625   0.00000  Uiso   1.00
O112   O     0.13081   0.03812   0.07854   0.00000  Uiso   1.00
O113   O     0.13571   0.04736   0.26156   0.00000  Uiso   1.00
O114   O     0.36429   0.45264   0.07177   0.00000  Uiso   1.00
O115   O     0.04509   0.20491   0.12709   0.00000  Uiso   1.00
O116   O     0.45492   0.20491   0.12709   0.00000  Uiso   1.00
O117   O     0.04509   0.29509   0.20625   0.00000  Uiso   1.00
O118   O     0.04509   0.29509   0.12709   0.00000  Uiso   1.00
O119   O     0.45492   0.20491   0.20625   0.00000  Uiso   1.00
O120   O     0.29509   0.45491   0.20625   0.00000  Uiso   1.00
C121   C     0.56211   0.19335   0.16651   0.00000  Uiso   1.00
C122   C     0.50117   0.28886   0.30903   0.00000  Uiso   1.00
C123   C     0.50106   0.28888   0.02518   0.00000  Uiso   1.00
C124   C     0.99894   0.21112   0.30816   0.00000  Uiso   1.00
C125   C     0.74883   0.46114   0.02431   0.00000  Uiso   1.00
C126   C     0.75117   0.03886   0.30903   0.00000  Uiso   1.00
C127   C     0.75106   0.03888   0.02518   0.00000  Uiso   1.00
C128   C     0.74894   0.46112   0.30816   0.00000  Uiso   1.00
C129   C     0.88673   0.14312   0.12333   0.00000  Uiso   1.00
C130   C     0.61327   0.35688   0.21000   0.00000  Uiso   1.00
C131   C     0.61792   0.35086   0.12499   0.00000  Uiso   1.00
C132   C     0.93789   0.30665   0.16682   0.00000  Uiso   1.00
C133   C     0.88208   0.14914   0.20835   0.00000  Uiso   1.00
C134   C     0.61508   0.14683   0.20912   0.00000  Uiso   1.00
C135   C     0.88492   0.35317   0.12421   0.00000  Uiso   1.00
C136   C     0.88783   0.35724   0.20988   0.00000  Uiso   1.00
C137   C     0.61217   0.14276   0.12345   0.00000  Uiso   1.00
C138   C     0.63673   0.39312   0.12333   0.00000  Uiso   1.00
C139   C     0.86327   0.10688   0.21000   0.00000  Uiso   1.00
C140   C     0.86792   0.10086   0.12499   0.00000  Uiso   1.00
C141   C     0.63208   0.39914   0.20835   0.00000  Uiso   1.00
C142   C     0.86508   0.39683   0.20912   0.00000  Uiso   1.00
C143   C     0.93717   0.19415   0.16641   0.00000  Uiso   1.00
C144   C     0.63492   0.10317   0.12421   0.00000  Uiso   1.00
C145   C     0.63783   0.10724   0.20988   0.00000  Uiso   1.00
C146   C     0.86217   0.39276   0.12345   0.00000  Uiso   1.00
C147   C     0.60017   0.33636   0.16759   0.00000  Uiso   1.00
C148   C     0.89983   0.16364   0.16575   0.00000  Uiso   1.00
C149   C     0.90140   0.33766   0.16717   0.00000  Uiso   1.00
C150   C     0.59860   0.16234   0.16617   0.00000  Uiso   1.00
C151   C     0.85017   0.08636   0.16759   0.00000  Uiso   1.00
C152   C     0.64983   0.41364   0.16575   0.00000  Uiso   1.00
C153   C     0.65140   0.08766   0.16717   0.00000  Uiso   1.00
C154   C     0.56283   0.30585   0.16692   0.00000  Uiso   1.00
C155   C     0.84860   0.41234   0.16617   0.00000  Uiso   1.00
C156   C     0.88439   0.16903   0.07917   0.00000  Uiso   1.00
C157   C     0.61561   0.33097   0.25416   0.00000  Uiso   1.00
C158   C     0.62430   0.31897   0.08541   0.00000  Uiso   1.00
C159   C     0.87570   0.18103   0.24792   0.00000  Uiso   1.00
C160   C     0.61059   0.17250   0.25352   0.00000  Uiso   1.00
C161   C     0.88941   0.32750   0.07982   0.00000  Uiso   1.00
C162   C     0.89525   0.33608   0.25583   0.00000  Uiso   1.00
C163   C     0.60475   0.16392   0.07750   0.00000  Uiso   1.00
C164   C     0.63439   0.41903   0.07917   0.00000  Uiso   1.00
C165   C     0.81211   0.44335   0.16651   0.00000  Uiso   1.00
C166   C     0.86561   0.08097   0.25416   0.00000  Uiso   1.00
C167   C     0.87430   0.06897   0.08541   0.00000  Uiso   1.00
C168   C     0.62570   0.43103   0.24792   0.00000  Uiso   1.00
C169   C     0.86059   0.42250   0.25352   0.00000  Uiso   1.00
C170   C     0.63941   0.07750   0.07982   0.00000  Uiso   1.00
C171   C     0.64525   0.08608   0.25583   0.00000  Uiso   1.00
C172   C     0.85475   0.41392   0.07750   0.00000  Uiso   1.00
C173   C     0.68789   0.05665   0.16682   0.00000  Uiso   1.00
C174   C     0.68717   0.44415   0.16641   0.00000  Uiso   1.00
C175   C     0.81283   0.05585   0.16692   0.00000  Uiso   1.00
C176   C     0.99883   0.21114   0.02431   0.00000  Uiso   1.00
Cl177  Cl    0.99692   0.16006   0.05311   0.00000  Uiso   1.00
Cl178  Cl    0.50308   0.33994   0.28023   0.00000  Uiso   1.00
Cl179  Cl    0.50212   0.34010   0.05500   0.00000  Uiso   1.00
Cl180  Cl    0.99788   0.15990   0.27833   0.00000  Uiso   1.00
Cl181  Cl    0.74692   0.41006   0.05311   0.00000  Uiso   1.00
Cl182  Cl    0.75308   0.08994   0.28023   0.00000  Uiso   1.00
Cl183  Cl    0.75212   0.09010   0.05500   0.00000  Uiso   1.00
Cl184  Cl    0.74788   0.40990   0.27833   0.00000  Uiso   1.00
Cu185  Cu    0.50000   0.25000   0.21355   0.00000  Uiso   1.00
Cu186  Cu    0.50000   0.25000   0.11978   0.00000  Uiso   1.00
Cu187  Cu    0.75000  -0.00000   0.21355   0.00000  Uiso   1.00
Cu188  Cu    0.75000  -0.00000   0.11978   0.00000  Uiso   1.00
H189   H     0.89632   0.20256   0.07753   0.00000  Uiso   1.00
H190   H     0.85368   0.04744   0.25580   0.00000  Uiso   1.00
H191   H     0.85790   0.03741   0.08421   0.00000  Uiso   1.00
H192   H     0.64210   0.46259   0.24913   0.00000  Uiso   1.00
H193   H     0.85091   0.40634   0.28552   0.00000  Uiso   1.00
H194   H     0.64909   0.09366   0.04781   0.00000  Uiso   1.00
H195   H     0.65760   0.10520   0.28529   0.00000  Uiso   1.00
H196   H     0.84240   0.39480   0.04804   0.00000  Uiso   1.00
H197   H     0.60368   0.29744   0.25580   0.00000  Uiso   1.00
H198   H     0.60790   0.28741   0.08421   0.00000  Uiso   1.00
H199   H     0.89210   0.21259   0.24912   0.00000  Uiso   1.00
H200   H     0.60091   0.15634   0.28552   0.00000  Uiso   1.00
H201   H     0.89909   0.34366   0.04781   0.00000  Uiso   1.00
H202   H     0.90760   0.35520   0.28529   0.00000  Uiso   1.00
H203   H     0.59240   0.14480   0.04804   0.00000  Uiso   1.00
H204   H     0.64632   0.45256   0.07754   0.00000  Uiso   1.00
N205   N     0.50000   0.25000   0.28402   0.00000  Uiso   1.00
N206   N     0.50000   0.25000   0.04931   0.00000  Uiso   1.00
N207   N     0.75000  -0.00000   0.28402   0.00000  Uiso   1.00
N208   N     0.75000  -0.00000   0.04931   0.00000  Uiso   1.00
O209   O     0.54509   0.20491   0.20625   0.00000  Uiso   1.00
O210   O     0.70492   0.04509   0.12709   0.00000  Uiso   1.00
O211   O     0.70492   0.04509   0.20625   0.00000  Uiso   1.00
O212   O     0.79509   0.45491   0.12709   0.00000  Uiso   1.00
O213   O     0.70492   0.45491   0.12709   0.00000  Uiso   1.00
O214   O     0.79509   0.04509   0.20625   0.00000  Uiso   1.00
O215   O     0.79509   0.04509   0.12709   0.00000  Uiso   1.00
O216   O     0.70492   0.45491   0.20625   0.00000  Uiso   1.00
O217   O     0.86555   0.15462   0.04469   0.00000  Uiso   1.00
O218   O     0.63445   0.34538   0.28865   0.00000  Uiso   1.00
O219   O     0.65117   0.32601   0.05523   0.00000  Uiso   1.00
O220   O     0.95492   0.29509   0.12709   0.00000  Uiso   1.00
O221   O     0.84883   0.17399   0.27811   0.00000  Uiso   1.00
O222   O     0.61919   0.21188   0.25480   0.00000  Uiso   1.00
O223   O     0.88081   0.28812   0.07854   0.00000  Uiso   1.00
O224   O     0.88571   0.29736   0.26156   0.00000  Uiso   1.00
O225   O     0.61429   0.20263   0.07177   0.00000  Uiso   1.00
O226   O     0.61555   0.40462   0.04468   0.00000  Uiso   1.00
O227   O     0.88445   0.09538   0.28865   0.00000  Uiso   1.00
O228   O     0.90117   0.07601   0.05523   0.00000  Uiso   1.00
O229   O     0.59883   0.42399   0.27811   0.00000  Uiso   1.00
O230   O     0.86919   0.46188   0.25480   0.00000  Uiso   1.00
O231   O     0.95492   0.29509   0.20625   0.00000  Uiso   1.00
O232   O     0.63081   0.03812   0.07854   0.00000  Uiso   1.00
O233   O     0.63571   0.04736   0.26156   0.00000  Uiso   1.00
O234   O     0.86429   0.45264   0.07177   0.00000  Uiso   1.00
O235   O     0.54509   0.20491   0.12709   0.00000  Uiso   1.00
O236   O     0.95492   0.20491   0.12709   0.00000  Uiso   1.00
O237   O     0.54509   0.29509   0.20625   0.00000  Uiso   1.00
O238   O     0.54509   0.29509   0.12709   0.00000  Uiso   1.00
O239   O     0.95492   0.20491   0.20625   0.00000  Uiso   1.00
O240   O     0.79509   0.45491   0.20625   0.00000  Uiso   1.00
C241   C     0.06211   0.69335   0.16651   0.00000  Uiso   1.00
C242   C     0.00117   0.78886   0.30903   0.00000  Uiso   1.00
C243   C     0.00106   0.78888   0.02518   0.00000  Uiso   1.00
C244   C     0.49894   0.71112   0.30816   0.00000  Uiso   1.00
C245   C     0.24883   0.96114   0.02431   0.00000  Uiso   1.00
C246   C     0.25117   0.53886   0.30903   0.00000  Uiso   1.00
C247   C     0.25106   0.53888   0.02518   0.00000  Uiso   1.00
C248   C     0.24894   0.96112   0.30816   0.00000  Uiso   1.00
C249   C     0.38673   0.64312   0.12333   0.00000  Uiso   1.00
C250   C     0.11327   0.85688   0.21000   0.00000  Uiso   1.00
C251   C     0.11792   0.85086   0.12499   0.00000  Uiso   1.00
C252   C     0.43789   0.80665   0.16682   0.00000  Uiso   1.00
C253   C     0.38208   0.64914   0.20835   0.00000  Uiso   1.00
C254   C     0.11508   0.64683   0.20912   0.00000  Uiso   1.00
C255   C     0.38492   0.85317   0.12421   0.00000  Uiso   1.00
C256   C     0.38783   0.85724   0.20988   0.00000  Uiso   1.00
C257   C     0.11217   0.64276   0.12345   0.00000  Uiso   1.00
C258   C     0.13673   0.89312   0.12333   0.00000  Uiso   1.00
C259   C     0.36327   0.60688   0.21000   0.00000  Uiso   1.00
C260   C     0.36792   0.60086   0.12499   0.00000  Uiso   1.00
C261   C     0.13208   0.89914   0.20835   0.00000  Uiso   1.00
C262   C     0.36508   0.89683   0.20912   0.00000  Uiso   1.00
C263   C     0.43717   0.69415   0.16641   0.00000  Uiso   1.00
C264   C     0.13492   0.60317   0.12421   0.00000  Uiso   1.00
C265   C     0.13783   0.60724   0.20988   0.00000  Uiso   1.00
C266   C     0.36217   0.89276   0.12345   0.00000  Uiso   1.00
C267   C     0.10017   0.83636   0.16759   0.00000  Uiso   1.00
C268   C     0.39983   0.66364   0.16575   0.00000  Uiso   1.00
C269   C     0.40140   0.83766   0.16717   0.00000  Uiso   1.00
C270   C     0.09860   0.66234   0.16617   0.00000  Uiso   1.00
C271   C     0.35017   0.58636   0.16759   0.00000  Uiso   1.00
C272   C     0.14983   0.91364   0.16575   0.00000  Uiso   1.00
C273   C     0.15140   0.58766   0.16717   0.00000  Uiso   1.00
C274   C     0.06283   0.80585   0.16692   0.00000  Uiso   1.00
C275   C     0.34860   0.91234   0.16617   0.00000  Uiso   1.00
C276   C     0.38439   0.66903   0.07917   0.00000  Uiso   1.00
C277   C     0.11561   0.83097   0.25416   0.00000  Uiso   1.00
C278   C     0.12430   0.81897   0.08541   0.00000  Uiso   1.00
C279   C     0.37570   0.68103   0.24792   0.00000  Uiso   1.00
C280   C     0.11059   0.67250   0.25352   0.00000  Uiso   1.00
C281   C     0.38941   0.82750   0.07982   0.00000  Uiso   1.00
C282   C     0.39525   0.83608   0.25583   0.00000  Uiso   1.00
C283   C     0.10475   0.66392   0.07750   0.00000  Uiso   1.00
C284   C     0.13439   0.91903   0.07917   0.00000  Uiso   1.00
C285   C     0.31211   0.94335   0.16651   0.00000  Uiso   1.00
C286   C     0.36561   0.58097   0.25416   0.00000  Uiso   1.00
C287   C     0.37430   0.56897   0.08541   0.00000  Uiso   1.00
C288   C     0.12570   0.93103   0.24792   0.00000  Uiso   1.00
C289   C     0.36059   0.92250   0.25352   0.00000  Uiso   1.00
C290   C     0.13941   0.57750   0.07982   0.00000  Uiso   1.00
C291   C     0.14525   0.58608   0.25583   0.00000  Uiso   1.00
C292   C     0.35475   0.91392   0.07750   0.00000  Uiso   1.00
C293   C     0.18789   0.55665   0.16682   0.00000  Uiso   1.00
C294   C     0.18717   0.94415   0.16641   0.00000  Uiso   1.00
C295   C     0.31283   0.55585   0.16692   0.00000  Uiso   1.00
C296   C     0.49883   0.71114   0.02431   0.00000  Uiso   1.00
Cl297  Cl    0.49692   0.66006   0.05311   0.00000  Uiso   1.00
Cl298  Cl    0.00308   0.83994   0.28023   0.00000  Uiso   1.00
Cl299  Cl    0.00212   0.84010   0.05500   0.00000  Uiso   1.00
Cl300  Cl    0.49788   0.65990   0.27833   0.00000  Uiso   1.00
Cl301  Cl    0.24692   0.91006   0.05311   0.00000  Uiso   1.00
Cl302  Cl    0.25308   0.58994   0.28023   0.00000  Uiso   1.00
Cl303  Cl    0.25212   0.59010   0.05500   0.00000  Uiso   1.00
Cl304  Cl    0.24788   0.90990   0.27833   0.00000  Uiso   1.00
Cu305  Cu    0.00000   0.75000   0.21355   0.00000  Uiso   1.00
Cu306  Cu    0.00000   0.75000   0.11978   0.00000  Uiso   1.00
Cu307  Cu    0.25000   0.50000   0.21355   0.00000  Uiso   1.00
Cu308  Cu    0.25000   0.50000   0.11978   0.00000  Uiso   1.00
H309   H     0.39632   0.70256   0.07753   0.00000  Uiso   1.00
H310   H     0.35368   0.54744   0.25580   0.00000  Uiso   1.00
H311   H     0.35790   0.53741   0.08421   0.00000  Uiso   1.00
H312   H     0.14210   0.96259   0.24913   0.00000  Uiso   1.00
H313   H     0.35091   0.90634   0.28552   0.00000  Uiso   1.00
H314   H     0.14909   0.59366   0.04781   0.00000  Uiso   1.00
H315   H     0.15760   0.60520   0.28529   0.00000  Uiso   1.00
H316   H     0.34240   0.89480   0.04804   0.00000  Uiso   1.00
H317   H     0.10368   0.79744   0.25580   0.00000  Uiso   1.00
H318   H     0.10790   0.78741   0.08421   0.00000  Uiso   1.00
H319   H     0.39210   0.71259   0.24912   0.00000  Uiso   1.00
H320   H     0.10091   0.65634   0.28552   0.00000  Uiso   1.00
H321   H     0.39909   0.84366   0.04781   0.00000  Uiso   1.00
H322   H     0.40760   0.85520   0.28529   0.00000  Uiso   1.00
H323   H     0.09240   0.64480   0.04804   0.00000  Uiso   1.00
H324   H     0.14632   0.95256   0.07754   0.00000  Uiso   1.00
N325   N     0.00000   0.75000   0.28402   0.00000  Uiso   1.00
N326   N     0.00000   0.75000   0.04931   0.00000  Uiso   1.00
N327   N     0.25000   0.50000   0.28402   0.00000  Uiso   1.00
N328   N     0.25000   0.50000   0.04931   0.00000  Uiso   1.00
O329   O     0.04509   0.70491   0.20625   0.00000  Uiso   1.00
O330   O     0.20492   0.54509   0.12709   0.00000  Uiso   1.00
O331   O     0.20492   0.54509   0.20625   0.00000  Uiso   1.00
O332   O     0.29509   0.95491   0.12709   0.00000  Uiso   1.00
O333   O     0.20492   0.95491   0.12709   0.00000  Uiso   1.00
O334   O     0.29509   0.54509   0.20625   0.00000  Uiso   1.00
O335   O     0.29509   0.54509   0.12709   0.00000  Uiso   1.00
O336   O     0.20492   0.95491   0.20625   0.00000  Uiso   1.00
O337   O     0.36555   0.65462   0.04469   0.00000  Uiso   1.00
O338   O     0.13445   0.84538   0.28865   0.00000  Uiso   1.00
O339   O     0.15117   0.82601   0.05523   0.00000  Uiso   1.00
O340   O     0.45492   0.79509   0.12709   0.00000  Uiso   1.00
O341   O     0.34883   0.67399   0.27811   0.00000  Uiso   1.00
O342   O     0.11919   0.71188   0.25480   0.00000  Uiso   1.00
O343   O     0.38081   0.78812   0.07854   0.00000  Uiso   1.00
O344   O     0.38571   0.79736   0.26156   0.00000  Uiso   1.00
O345   O     0.11429   0.70263   0.07177   0.00000  Uiso   1.00
O346   O     0.11555   0.90462   0.04468   0.00000  Uiso   1.00
O347   O     0.38445   0.59538   0.28865   0.00000  Uiso   1.00
O348   O     0.40117   0.57601   0.05523   0.00000  Uiso   1.00
O349   O     0.09883   0.92399   0.27811   0.00000  Uiso   1.00
O350   O     0.36919   0.96188   0.25480   0.00000  Uiso   1.00
O351   O     0.45492   0.79509   0.20625   0.00000  Uiso   1.00
O352   O     0.13081   0.53812   0.07854   0.00000  Uiso   1.00
O353   O     0.13571   0.54736   0.26156   0.00000  Uiso   1.00
O354   O     0.36429   0.95264   0.07177   0.00000  Uiso   1.00
O355   O     0.04509   0.70491   0.12709   0.00000  Uiso   1.00
O356   O     0.45492   0.70491   0.12709   0.00000  Uiso   1.00
O357   O     0.04509   0.79509   0.20625   0.00000  Uiso   1.00
O358   O     0.04509   0.79509   0.12709   0.00000  Uiso   1.00
O359   O     0.45492   0.70491   0.20625   0.00000  Uiso   1.00
O360   O     0.29509   0.95491   0.20625   0.00000  Uiso   1.00
C361   C     0.56211   0.69335   0.16651   0.00000  Uiso   1.00
C362   C     0.50117   0.78886   0.30903   0.00000  Uiso   1.00
C363   C     0.50106   0.78888   0.02518   0.00000  Uiso   1.00
C364   C     0.99894   0.71112   0.30816   0.00000  Uiso   1.00
C365   C     0.74883   0.96114   0.02431   0.00000  Uiso   1.00
C366   C     0.75117   0.53886   0.30903   0.00000  Uiso   1.00
C367   C     0.75106   0.53888   0.02518   0.00000  Uiso   1.00
C368   C     0.74894   0.96112   0.30816   0.00000  Uiso   1.00
C369   C     0.88673   0.64312   0.12333   0.00000  Uiso   1.00
C370   C     0.61327   0.85688   0.21000   0.00000  Uiso   1.00
C371   C     0.61792   0.85086   0.12499   0.00000  Uiso   1.00
C372   C     0.93789   0.80665   0.16682   0.00000  Uiso   1.00
C373   C     0.88208   0.64914   0.20835   0.00000  Uiso   1.00
C374   C     0.61508   0.64683   0.20912   0.00000  Uiso   1.00
C375   C     0.88492   0.85317   0.12421   0.00000  Uiso   1.00
C376   C     0.88783   0.85724   0.20988   0.00000  Uiso   1.00
C377   C     0.61217   0.64276   0.12345   0.00000  Uiso   1.00
C378   C     0.63673   0.89312   0.12333   0.00000  Uiso   1.00
C379   C     0.86327   0.60688   0.21000   0.00000  Uiso   1.00
C380   C     0.86792   0.60086   0.12499   0.00000  Uiso   1.00
C381   C     0.63208   0.89914   0.20835   0.00000  Uiso   1.00
C382   C     0.86508   0.89683   0.20912   0.00000  Uiso   1.00
C383   C     0.93717   0.69415   0.16641   0.00000  Uiso   1.00
C384   C     0.63492   0.60317   0.12421   0.00000  Uiso   1.00
C385   C     0.63783   0.60724   0.20988   0.00000  Uiso   1.00
C386   C     0.86217   0.89276   0.12345   0.00000  Uiso   1.00
C387   C     0.60017   0.83636   0.16759   0.00000  Uiso   1.00
C388   C     0.89983   0.66364   0.16575   0.00000  Uiso   1.00
C389   C     0.90140   0.83766   0.16717   0.00000  Uiso   1.00
C390   C     0.59860   0.66234   0.16617   0.00000  Uiso   1.00
C391   C     0.85017   0.58636   0.16759   0.00000  Uiso   1.00
C392   C     0.64983   0.91364   0.16575   0.00000  Uiso   1.00
C393   C     0.65140   0.58766   0.16717   0.00000  Uiso   1.00
C394   C     0.56283   0.80585   0.16692   0.00000  Uiso   1.00
C395   C     0.84860   0.91234   0.16617   0.00000  Uiso   1.00
C396   C     0.88439   0.66903   0.07917   0.00000  Uiso   1.00
C397   C     0.61561   0.83097   0.25416   0.00000  Uiso   1.00
C398   C     0.62430   0.81897   0.08541   0.00000  Uiso   1.00
C399   C     0.87570   0.68103   0.24792   0.00000  Uiso   1.00
C400   C     0.61059   0.67250   0.25352   0.00000  Uiso   1.00
C401   C     0.88941   0.82750   0.07982   0.00000  Uiso   1.00
C402   C     0.89525   0.83608   0.25583   0.00000  Uiso   1.00
C403   C     0.60475   0.66392   0.07750   0.00000  Uiso   1.00
C404   C     0.63439   0.91903   0.07917   0.00000  Uiso   1.00
C405   C     0.81211   0.94335   0.16651   0.00000  Uiso   1.00
C406   C     0.86561   0.58097   0.25416   0.00000  Uiso   1.00
C407   C     0.87430   0.56897   0.08541   0.00000  Uiso   1.00
C408   C     0.62570   0.93103   0.24792   0.00000  Uiso   1.00
C409   C     0.86059   0.92250   0.25352   0.00000  Uiso   1.00
C410   C     0.63941   0.57750   0.07982   0.00000  Uiso   1.00
C411   C     0.64525   0.58608   0.25583   0.00000  Uiso   1.00
C412   C     0.85475   0.91392   0.07750   0.00000  Uiso   1.00
C413   C     0.68789   0.55665   0.16682   0.00000  Uiso   1.00
C414   C     0.68717   0.94415   0.16641   0.00000  Uiso   1.00
C415   C     0.81283   0.55585   0.16692   0.00000  Uiso   1.00
C416   C     0.99883   0.71114   0.02431   0.00000  Uiso   1.00
Cl417  Cl    0.99692   0.66006   0.05311   0.00000  Uiso   1.00
Cl418  Cl    0.50308   0.83994   0.28023   0.00000  Uiso   1.00
Cl419  Cl    0.50212   0.84010   0.05500   0.00000  Uiso   1.00
Cl420  Cl    0.99788   0.65990   0.27833   0.00000  Uiso   1.00
Cl421  Cl    0.74692   0.91006   0.05311   0.00000  Uiso   1.00
Cl422  Cl    0.75308   0.58994   0.28023   0.00000  Uiso   1.00
Cl423  Cl    0.75212   0.59010   0.05500   0.00000  Uiso   1.00
Cl424  Cl    0.74788   0.90990   0.27833   0.00000  Uiso   1.00
Cu425  Cu    0.50000   0.75000   0.21355   0.00000  Uiso   1.00
Cu426  Cu    0.50000   0.75000   0.11978   0.00000  Uiso   1.00
Cu427  Cu    0.75000   0.50000   0.21355   0.00000  Uiso   1.00
Cu428  Cu    0.75000   0.50000   0.11978   0.00000  Uiso   1.00
H429   H     0.89632   0.70256   0.07753   0.00000  Uiso   1.00
H430   H     0.85368   0.54744   0.25580   0.00000  Uiso   1.00
H431   H     0.85790   0.53741   0.08421   0.00000  Uiso   1.00
H432   H     0.64210   0.96259   0.24913   0.00000  Uiso   1.00
H433   H     0.85091   0.90634   0.28552   0.00000  Uiso   1.00
H434   H     0.64909   0.59366   0.04781   0.00000  Uiso   1.00
H435   H     0.65760   0.60520   0.28529   0.00000  Uiso   1.00
H436   H     0.84240   0.89480   0.04804   0.00000  Uiso   1.00
H437   H     0.60368   0.79744   0.25580   0.00000  Uiso   1.00
H438   H     0.60790   0.78741   0.08421   0.00000  Uiso   1.00
H439   H     0.89210   0.71259   0.24912   0.00000  Uiso   1.00
H440   H     0.60091   0.65634   0.28552   0.00000  Uiso   1.00
H441   H     0.89909   0.84366   0.04781   0.00000  Uiso   1.00
H442   H     0.90760   0.85520   0.28529   0.00000  Uiso   1.00
H443   H     0.59240   0.64480   0.04804   0.00000  Uiso   1.00
H444   H     0.64632   0.95256   0.07754   0.00000  Uiso   1.00
N445   N     0.50000   0.75000   0.28402   0.00000  Uiso   1.00
N446   N     0.50000   0.75000   0.04931   0.00000  Uiso   1.00
N447   N     0.75000   0.50000   0.28402   0.00000  Uiso   1.00
N448   N     0.75000   0.50000   0.04931   0.00000  Uiso   1.00
O449   O     0.54509   0.70491   0.20625   0.00000  Uiso   1.00
O450   O     0.70492   0.54509   0.12709   0.00000  Uiso   1.00
O451   O     0.70492   0.54509   0.20625   0.00000  Uiso   1.00
O452   O     0.79509   0.95491   0.12709   0.00000  Uiso   1.00
O453   O     0.70492   0.95491   0.12709   0.00000  Uiso   1.00
O454   O     0.79509   0.54509   0.20625   0.00000  Uiso   1.00
O455   O     0.79509   0.54509   0.12709   0.00000  Uiso   1.00
O456   O     0.70492   0.95491   0.20625   0.00000  Uiso   1.00
O457   O     0.86555   0.65462   0.04469   0.00000  Uiso   1.00
O458   O     0.63445   0.84538   0.28865   0.00000  Uiso   1.00
O459   O     0.65117   0.82601   0.05523   0.00000  Uiso   1.00
O460   O     0.95492   0.79509   0.12709   0.00000  Uiso   1.00
O461   O     0.84883   0.67399   0.27811   0.00000  Uiso   1.00
O462   O     0.61919   0.71188   0.25480   0.00000  Uiso   1.00
O463   O     0.88081   0.78812   0.07854   0.00000  Uiso   1.00
O464   O     0.88571   0.79736   0.26156   0.00000  Uiso   1.00
O465   O     0.61429   0.70263   0.07177   0.00000  Uiso   1.00
O466   O     0.61555   0.90462   0.04468   0.00000  Uiso   1.00
O467   O     0.88445   0.59538   0.28865   0.00000  Uiso   1.00
O468   O     0.90117   0.57601   0.05523   0.00000  Uiso   1.00
O469   O     0.59883   0.92399   0.27811   0.00000  Uiso   1.00
O470   O     0.86919   0.96188   0.25480   0.00000  Uiso   1.00
O471   O     0.95492   0.79509   0.20625   0.00000  Uiso   1.00
O472   O     0.63081   0.53812   0.07854   0.00000  Uiso   1.00
O473   O     0.63571   0.54736   0.26156   0.00000  Uiso   1.00
O474   O     0.86429   0.95264   0.07177   0.00000  Uiso   1.00
O475   O     0.54509   0.70491   0.12709   0.00000  Uiso   1.00
O476   O     0.95492   0.70491   0.12709   0.00000  Uiso   1.00
O477   O     0.54509   0.79509   0.20625   0.00000  Uiso   1.00
O478   O     0.54509   0.79509   0.12709   0.00000  Uiso   1.00
O479   O     0.95492   0.70491   0.20625   0.00000  Uiso   1.00
O480   O     0.79509   0.95491   0.20625   0.00000  Uiso   1.00
C481   C     0.06211   0.19335   0.49985   0.00000  Uiso   1.00
C482   C     0.00117   0.28886   0.64236   0.00000  Uiso   1.00
C483   C     0.00106   0.28888   0.35851   0.00000  Uiso   1.00
C484   C     0.49894   0.21112   0.64149   0.00000  Uiso   1.00
C485   C     0.24883   0.46114   0.35764   0.00000  Uiso   1.00
C486   C     0.25117   0.03886   0.64236   0.00000  Uiso   1.00
C487   C     0.25106   0.03888   0.35851   0.00000  Uiso   1.00
C488   C     0.24894   0.46112   0.64149   0.00000  Uiso   1.00
C489   C     0.38673   0.14312   0.45667   0.00000  Uiso   1.00
C490   C     0.11327   0.35688   0.54333   0.00000  Uiso   1.00
C491   C     0.11792   0.35086   0.45832   0.00000  Uiso   1.00
C492   C     0.43789   0.30665   0.50016   0.00000  Uiso   1.00
C493   C     0.38208   0.14914   0.54168   0.00000  Uiso   1.00
C494   C     0.11508   0.14683   0.54245   0.00000  Uiso   1.00
C495   C     0.38492   0.35317   0.45755   0.00000  Uiso   1.00
C496   C     0.38783   0.35724   0.54322   0.00000  Uiso   1.00
C497   C     0.11217   0.14276   0.45678   0.00000  Uiso   1.00
C498   C     0.13673   0.39312   0.45667   0.00000  Uiso   1.00
C499   C     0.36327   0.10688   0.54333   0.00000  Uiso   1.00
C500   C     0.36792   0.10086   0.45832   0.00000  Uiso   1.00
C501   C     0.13208   0.39914   0.54168   0.00000  Uiso   1.00
C502   C     0.36508   0.39683   0.54245   0.00000  Uiso   1.00
C503   C     0.43717   0.19415   0.49975   0.00000  Uiso   1.00
C504   C     0.13492   0.10317   0.45755   0.00000  Uiso   1.00
C505   C     0.13783   0.10724   0.54322   0.00000  Uiso   1.00
C506   C     0.36217   0.39276   0.45678   0.00000  Uiso   1.00
C507   C     0.10017   0.33636   0.50092   0.00000  Uiso   1.00
C508   C     0.39983   0.16364   0.49908   0.00000  Uiso   1.00
C509   C     0.40140   0.33766   0.50050   0.00000  Uiso   1.00
C510   C     0.09860   0.16234   0.49950   0.00000  Uiso   1.00
C511   C     0.35017   0.08636   0.50092   0.00000  Uiso   1.00
C512   C     0.14983   0.41364   0.49908   0.00000  Uiso   1.00
C513   C     0.15140   0.08766   0.50050   0.00000  Uiso   1.00
C514   C     0.06283   0.30585   0.50025   0.00000  Uiso   1.00
C515   C     0.34860   0.41234   0.49950   0.00000  Uiso   1.00
C516   C     0.38439   0.16903   0.41250   0.00000  Uiso   1.00
C517   C     0.11561   0.33097   0.58750   0.00000  Uiso   1.00
C518   C     0.12430   0.31897   0.41875   0.00000  Uiso   1.00
C519   C     0.37570   0.18103   0.58125   0.00000  Uiso   1.00
C520   C     0.11059   0.17250   0.58685   0.00000  Uiso   1.00
C521   C     0.38941   0.32750   0.41315   0.00000  Uiso   1.00
C522   C     0.39525   0.33608   0.58917   0.00000  Uiso   1.00
C523   C     0.10475   0.16392   0.41083   0.00000  Uiso   1.00
C524   C     0.13439   0.41903   0.41250   0.00000  Uiso   1.00
C525   C     0.31211   0.44335   0.49985   0.00000  Uiso   1.00
C526   C     0.36561   0.08097   0.58750   0.00000  Uiso   1.00
C527   C     0.37430   0.06897   0.41875   0.00000  Uiso   1.00
C528   C     0.12570   0.43103   0.58125   0.00000  Uiso   1.00
C529   C     0.36059   0.42250   0.58685   0.00000  Uiso   1.00
C530   C     0.13941   0.07750   0.41315   0.00000  Uiso   1.00
C531   C     0.14525   0.08608   0.58917   0.00000  Uiso   1.00
C532   C     0.35475   0.41392   0.41083   0.00000  Uiso   1.00
C533   C     0.18789   0.05665   0.50015   0.00000  Uiso   1.00
C534   C     0.18717   0.44415   0.49975   0.00000  Uiso   1.00
C535   C     0.31283   0.05585   0.50025   0.00000  Uiso   1.00
C536   C     0.49883   0.21114   0.35764   0.00000  Uiso   1.00
Cl537  Cl    0.49692   0.16006   0.38644   0.00000  Uiso   1.00
Cl538  Cl    0.00308   0.33994   0.61356   0.00000  Uiso   1.00
Cl539  Cl    0.00212   0.34010   0.38833   0.00000  Uiso   1.00
Cl540  Cl    0.49788   0.15990   0.61167   0.00000  Uiso   1.00
Cl541  Cl    0.24692   0.41006   0.38644   0.00000  Uiso   1.00
Cl542  Cl    0.25308   0.08994   0.61356   0.00000  Uiso   1.00
Cl543  Cl    0.25212   0.09010   0.38833   0.00000  Uiso   1.00
Cl544  Cl    0.24788   0.40990   0.61167   0.00000  Uiso   1.00
Cu545  Cu    0.00000   0.25000   0.54689   0.00000  Uiso   1.00
Cu546  Cu    0.00000   0.25000   0.45311   0.00000  Uiso   1.00
Cu547  Cu    0.25000  -0.00000   0.54689   0.00000  Uiso   1.00
Cu548  Cu    0.25000  -0.00000   0.45311   0.00000  Uiso   1.00
H549   H     0.39632   0.20256   0.41087   0.00000  Uiso   1.00
H550   H     0.35368   0.04744   0.58913   0.00000  Uiso   1.00
H551   H     0.35790   0.03741   0.41754   0.00000  Uiso   1.00
H552   H     0.14210   0.46259   0.58246   0.00000  Uiso   1.00
H553   H     0.35091   0.40634   0.61886   0.00000  Uiso   1.00
H554   H     0.14909   0.09366   0.38114   0.00000  Uiso   1.00
H555   H     0.15760   0.10520   0.61863   0.00000  Uiso   1.00
H556   H     0.34240   0.39480   0.38137   0.00000  Uiso   1.00
H557   H     0.10368   0.29744   0.58913   0.00000  Uiso   1.00
H558   H     0.10790   0.28741   0.41754   0.00000  Uiso   1.00
H559   H     0.39210   0.21259   0.58246   0.00000  Uiso   1.00
H560   H     0.10091   0.15634   0.61886   0.00000  Uiso   1.00
H561   H     0.39909   0.34366   0.38114   0.00000  Uiso   1.00
H562   H     0.40760   0.35520   0.61863   0.00000  Uiso   1.00
H563   H     0.09240   0.14480   0.38137   0.00000  Uiso   1.00
H564   H     0.14632   0.45256   0.41087   0.00000  Uiso   1.00
N565   N     0.00000   0.25000   0.61736   0.00000  Uiso   1.00
N566   N     0.00000   0.25000   0.38264   0.00000  Uiso   1.00
N567   N     0.25000  -0.00000   0.61736   0.00000  Uiso   1.00
N568   N     0.25000  -0.00000   0.38264   0.00000  Uiso   1.00
O569   O     0.04509   0.20491   0.53958   0.00000  Uiso   1.00
O570   O     0.20492   0.04509   0.46042   0.00000  Uiso   1.00
O571   O     0.20492   0.04509   0.53958   0.00000  Uiso   1.00
O572   O     0.29509   0.45491   0.46042   0.00000  Uiso   1.00
O573   O     0.20492   0.45491   0.46042   0.00000  Uiso   1.00
O574   O     0.29509   0.04509   0.53958   0.00000  Uiso   1.00
O575   O     0.29509   0.04509   0.46042   0.00000  Uiso   1.00
O576   O     0.20492   0.45491   0.53958   0.00000  Uiso   1.00
O577   O     0.36555   0.15462   0.37802   0.00000  Uiso   1.00
O578   O     0.13445   0.34538   0.62198   0.00000  Uiso   1.00
O579   O     0.15117   0.32601   0.38856   0.00000  Uiso   1.00
O580   O     0.45492   0.29509   0.46042   0.00000  Uiso   1.00
O581   O     0.34883   0.17399   0.61144   0.00000  Uiso   1.00
O582   O     0.11919   0.21188   0.58813   0.00000  Uiso   1.00
O583   O     0.38081   0.28812   0.41187   0.00000  Uiso   1.00
O584   O     0.38571   0.29736   0.59489   0.00000  Uiso   1.00
O585   O     0.11429   0.20263   0.40511   0.00000  Uiso   1.00
O586   O     0.11555   0.40462   0.37802   0.00000  Uiso   1.00
O587   O     0.38445   0.09538   0.62198   0.00000  Uiso   1.00
O588   O     0.40117   0.07601   0.38856   0.00000  Uiso   1.00
O589   O     0.09883   0.42399   0.61144   0.00000  Uiso   1.00
O590   O     0.36919   0.46188   0.58813   0.00000  Uiso   1.00
O591   O     0.45492   0.29509   0.53958   0.00000  Uiso   1.00
O592   O     0.13081   0.03812   0.41187   0.00000  Uiso   1.00
O593   O     0.13571   0.04736   0.59489   0.00000  Uiso   1.00
O594   O     0.36429   0.45264   0.40511   0.00000  Uiso   1.00
O595   O     0.04509   0.20491   0.46042   0.00000  Uiso   1.00
O596   O     0.45492   0.20491   0.46042   0.00000  Uiso   1.00
O597   O     0.04509   0.29509   0.53958   0.00000  Uiso   1.00
O598   O     0.04509   0.29509   0.46042   0.00000  Uiso   1.00
O599   O     0.45492   0.20491   0.53958   0.00000  Uiso   1.00
O600   O     0.29509   0.45491   0.53958   0.00000  Uiso   1.00
C601   C     0.56211   0.19335   0.49985   0.00000  Uiso   1.00
C602   C     0.50117   0.28886   0.64236   0.00000  Uiso   1.00
C603   C     0.50106   0.28888   0.35851   0.00000  Uiso   1.00
C604   C     0.99894   0.21112   0.64149   0.00000  Uiso   1.00
C605   C     0.74883   0.46114   0.35764   0.00000  Uiso   1.00
C606   C     0.75117   0.03886   0.64236   0.00000  Uiso   1.00
C607   C     0.75106   0.03888   0.35851   0.00000  Uiso   1.00
C608   C     0.74894   0.46112   0.64149   0.00000  Uiso   1.00
C609   C     0.88673   0.14312   0.45667   0.00000  Uiso   1.00
C610   C     0.61327   0.35688   0.54333   0.00000  Uiso   1.00
C611   C     0.61792   0.35086   0.45832   0.00000  Uiso   1.00
C612   C     0.93789   0.30665   0.50016   0.00000  Uiso   1.00
C613   C     0.88208   0.14914   0.54168   0.00000  Uiso   1.00
C614   C     0.61508   0.14683   0.54245   0.00000  Uiso   1.00
C615   C     0.88492   0.35317   0.45755   0.00000  Uiso   1.00
C616   C     0.88783   0.35724   0.54322   0.00000  Uiso   1.00
C617   C     0.61217   0.14276   0.45678   0.00000  Uiso   1.00
C618   C     0.63673   0.39312   0.45667   0.00000  Uiso   1.00
C619   C     0.86327   0.10688   0.54333   0.00000  Uiso   1.00
C620   C     0.86792   0.10086   0.45832   0.00000  Uiso   1.00
C621   C     0.63208   0.39914   0.54168   0.00000  Uiso   1.00
C622   C     0.86508   0.39683   0.54245   0.00000  Uiso   1.00
C623   C     0.93717   0.19415   0.49975   0.00000  Uiso   1.00
C624   C     0.63492   0.10317   0.45755   0.00000  Uiso   1.00
C625   C     0.63783   0.10724   0.54322   0.00000  Uiso   1.00
C626   C     0.86217   0.39276   0.45678   0.00000  Uiso   1.00
C627   C     0.60017   0.33636   0.50092   0.00000  Uiso   1.00
C628   C     0.89983   0.16364   0.49908   0.00000  Uiso   1.00
C629   C     0.90140   0.33766   0.50050   0.00000  Uiso   1.00
C630   C     0.59860   0.16234   0.49950   0.00000  Uiso   1.00
C631   C     0.85017   0.08636   0.50092   0.00000  Uiso   1.00
C632   C     0.64983   0.41364   0.49908   0.00000  Uiso   1.00
C633   C     0.65140   0.08766   0.50050   0.00000  Uiso   1.00
C634   C     0.56283   0.30585   0.50025   0.00000  Uiso   1.00
C635   C     0.84860   0.41234   0.49950   0.00000  Uiso   1.00
C636   C     0.88439   0.16903   0.41250   0.00000  Uiso   1.00
C637   C     0.61561   0.33097   0.58750   0.00000  Uiso   1.00
C638   C     0.62430   0.31897   0.41875   0.00000  Uiso   1.00
C639   C     0.87570   0.18103   0.58125   0.00000  Uiso   1.00
C640   C     0.61059   0.17250   0.58685   0.00000  Uiso   1.00
C641   C     0.88941   0.32750   0.41315   0.00000  Uiso   1.00
C642   C     0.89525   0.33608   0.58917   0.00000  Uiso   1.00
C643   C     0.60475   0.16392   0.41083   0.00000  Uiso   1.00
C644   C     0.63439   0.41903   0.41250   0.00000  Uiso   1.00
C645   C     0.81211   0.44335   0.49985   0.00000  Uiso   1.00
C646   C     0.86561   0.08097   0.58750   0.00000  Uiso   1.00
C647   C     0.87430   0.06897   0.41875   0.00000  Uiso   1.00
C648   C     0.62570   0.43103   0.58125   0.00000  Uiso   1.00
C649   C     0.86059   0.42250   0.58685   0.00000  Uiso   1.00
C650   C     0.63941   0.07750   0.41315   0.00000  Uiso   1.00
C651   C     0.64525   0.08608   0.58917   0.00000  Uiso   1.00
C652   C     0.85475   0.41392   0.41083   0.00000  Uiso   1.00
C653   C     0.68789   0.05665   0.50015   0.00000  Uiso   1.00
C654   C     0.68717   0.44415   0.49975   0.00000  Uiso   1.00
C655   C     0.81283   0.05585   0.50025   0.00000  Uiso   1.00
C656   C     0.99883   0.21114   0.35764   0.00000  Uiso   1.00
Cl657  Cl    0.99692   0.16006   0.38644   0.00000  Uiso   1.00
Cl658  Cl    0.50308   0.33994   0.61356   0.00000  Uiso   1.00
Cl659  Cl    0.50212   0.34010   0.38833   0.00000  Uiso   1.00
Cl660  Cl    0.99788   0.15990   0.61167   0.00000  Uiso   1.00
Cl661  Cl    0.74692   0.41006   0.38644   0.00000  Uiso   1.00
Cl662  Cl    0.75308   0.08994   0.61356   0.00000  Uiso   1.00
Cl663  Cl    0.75212   0.09010   0.38833   0.00000  Uiso   1.00
Cl664  Cl    0.74788   0.40990   0.61167   0.00000  Uiso   1.00
Cu665  Cu    0.50000   0.25000   0.54689   0.00000  Uiso   1.00
Cu666  Cu    0.50000   0.25000   0.45311   0.00000  Uiso   1.00
Cu667  Cu    0.75000  -0.00000   0.54689   0.00000  Uiso   1.00
Cu668  Cu    0.75000  -0.00000   0.45311   0.00000  Uiso   1.00
H669   H     0.89632   0.20256   0.41087   0.00000  Uiso   1.00
H670   H     0.85368   0.04744   0.58913   0.00000  Uiso   1.00
H671   H     0.85790   0.03741   0.41754   0.00000  Uiso   1.00
H672   H     0.64210   0.46259   0.58246   0.00000  Uiso   1.00
H673   H     0.85091   0.40634   0.61886   0.00000  Uiso   1.00
H674   H     0.64909   0.09366   0.38114   0.00000  Uiso   1.00
H675   H     0.65760   0.10520   0.61863   0.00000  Uiso   1.00
H676   H     0.84240   0.39480   0.38137   0.00000  Uiso   1.00
H677   H     0.60368   0.29744   0.58913   0.00000  Uiso   1.00
H678   H     0.60790   0.28741   0.41754   0.00000  Uiso   1.00
H679   H     0.89210   0.21259   0.58246   0.00000  Uiso   1.00
H680   H     0.60091   0.15634   0.61886   0.00000  Uiso   1.00
H681   H     0.89909   0.34366   0.38114   0.00000  Uiso   1.00
H682   H     0.90760   0.35520   0.61863   0.00000  Uiso   1.00
H683   H     0.59240   0.14480   0.38137   0.00000  Uiso   1.00
H684   H     0.64632   0.45256   0.41087   0.00000  Uiso   1.00
N685   N     0.50000   0.25000   0.61736   0.00000  Uiso   1.00
N686   N     0.50000   0.25000   0.38264   0.00000  Uiso   1.00
N687   N     0.75000  -0.00000   0.61736   0.00000  Uiso   1.00
N688   N     0.75000  -0.00000   0.38264   0.00000  Uiso   1.00
O689   O     0.54509   0.20491   0.53958   0.00000  Uiso   1.00
O690   O     0.70492   0.04509   0.46042   0.00000  Uiso   1.00
O691   O     0.70492   0.04509   0.53958   0.00000  Uiso   1.00
O692   O     0.79509   0.45491   0.46042   0.00000  Uiso   1.00
O693   O     0.70492   0.45491   0.46042   0.00000  Uiso   1.00
O694   O     0.79509   0.04509   0.53958   0.00000  Uiso   1.00
O695   O     0.79509   0.04509   0.46042   0.00000  Uiso   1.00
O696   O     0.70492   0.45491   0.53958   0.00000  Uiso   1.00
O697   O     0.86555   0.15462   0.37802   0.00000  Uiso   1.00
O698   O     0.63445   0.34538   0.62198   0.00000  Uiso   1.00
O699   O     0.65117   0.32601   0.38856   0.00000  Uiso   1.00
O700   O     0.95492   0.29509   0.46042   0.00000  Uiso   1.00
O701   O     0.84883   0.17399   0.61144   0.00000  Uiso   1.00
O702   O     0.61919   0.21188   0.58813   0.00000  Uiso   1.00
O703   O     0.88081   0.28812   0.41187   0.00000  Uiso   1.00
O704   O     0.88571   0.29736   0.59489   0.00000  Uiso   1.00
O705   O     0.61429   0.20263   0.40511   0.00000  Uiso   1.00
O706   O     0.61555   0.40462   0.37802   0.00000  Uiso   1.00
O707   O     0.88445   0.09538   0.62198   0.00000  Uiso   1.00
O708   O     0.90117   0.07601   0.38856   0.00000  Uiso   1.00
O709   O     0.59883   0.42399   0.61144   0.00000  Uiso   1.00
O710   O     0.86919   0.46188   0.58813   0.00000  Uiso   1.00
O711   O     0.95492   0.29509   0.53958   0.00000  Uiso   1.00
O712   O     0.63081   0.03812   0.41187   0.00000  Uiso   1.00
O713   O     0.63571   0.04736   0.59489   0.00000  Uiso   1.00
O714   O     0.86429   0.45264   0.40511   0.00000  Uiso   1.00
O715   O     0.54509   0.20491   0.46042   0.00000  Uiso   1.00
O716   O     0.95492   0.20491   0.46042   0.00000  Uiso   1.00
O717   O     0.54509   0.29509   0.53958   0.00000  Uiso   1.00
O718   O     0.54509   0.29509   0.46042   0.00000  Uiso   1.00
O719   O     0.95492   0.20491   0.53958   0.00000  Uiso   1.00
O720   O     0.79509   0.45491   0.53958   0.00000  Uiso   1.00
C721   C     0.06211   0.69335   0.49985   0.00000  Uiso   1.00
C722   C     0.00117   0.78886   0.64236   0.00000  Uiso   1.00
C723   C     0.00106   0.78888   0.35851   0.00000  Uiso   1.00
C724   C     0.49894   0.71112   0.64149   0.00000  Uiso   1.00
C725   C     0.24883   0.96114   0.35764   0.00000  Uiso   1.00
C726   C     0.25117   0.53886   0.64236   0.00000  Uiso   1.00
C727   C     0.25106   0.53888   0.35851   0.00000  Uiso   1.00
C728   C     0.24894   0.96112   0.64149   0.00000  Uiso   1.00
C729   C     0.38673   0.64312   0.45667   0.00000  Uiso   1.00
C730   C     0.11327   0.85688   0.54333   0.00000  Uiso   1.00
C731   C     0.11792   0.85086   0.45832   0.00000  Uiso   1.00
C732   C     0.43789   0.80665   0.50016   0.00000  Uiso   1.00
C733   C     0.38208   0.64914   0.54168   0.00000  Uiso   1.00
C734   C     0.11508   0.64683   0.54245   0.00000  Uiso   1.00
C735   C     0.38492   0.85317   0.45755   0.00000  Uiso   1.00
C736   C     0.38783   0.85724   0.54322   0.00000  Uiso   1.00
C737   C     0.11217   0.64276   0.45678   0.00000  Uiso   1.00
C738   C     0.13673   0.89312   0.45667   0.00000  Uiso   1.00
C739   C     0.36327   0.60688   0.54333   0.00000  Uiso   1.00
C740   C     0.36792   0.60086   0.45832   0.00000  Uiso   1.00
C741   C     0.13208   0.89914   0.54168   0.00000  Uiso   1.00
C742   C     0.36508   0.89683   0.54245   0.00000  Uiso   1.00
C743   C     0.43717   0.69415   0.49975   0.00000  Uiso   1.00
C744   C     0.13492   0.60317   0.45755   0.00000  Uiso   1.00
C745   C     0.13783   0.60724   0.54322   0.00000  Uiso   1.00
C746   C     0.36217   0.89276   0.45678   0.00000  Uiso   1.00
C747   C     0.10017   0.83636   0.50092   0.00000  Uiso   1.00
C748   C     0.39983   0.66364   0.49908   0.00000  Uiso   1.00
C749   C     0.40140   0.83766   0.50050   0.00000  Uiso   1.00
C750   C     0.09860   0.66234   0.49950   0.00000  Uiso   1.00
C751   C     0.35017   0.58636   0.50092   0.00000  Uiso   1.00
C752   C     0.14983   0.91364   0.49908   0.00000  Uiso   1.00
C753   C     0.15140   0.58766   0.50050   0.00000  Uiso   1.00
C754   C     0.06283   0.80585   0.50025   0.00000  Uiso   1.00
C755   C     0.34860   0.91234   0.49950   0.00000  Uiso   1.00
C756   C     0.38439   0.66903   0.41250   0.00000  Uiso   1.00
C757   C     0.11561   0.83097   0.58750   0.00000  Uiso   1.00
C758   C     0.12430   0.81897   0.41875   0.00000  Uiso   1.00
C759   C     0.37570   0.68103   0.58125   0.00000  Uiso   1.00
C760   C     0.11059   0.67250   0.58685   0.00000  Uiso   1.00
C761   C     0.38941   0.82750   0.41315   0.00000  Uiso   1.00
C762   C     0.39525   0.83608   0.58917   0.00000  Uiso   1.00
C763   C     0.10475   0.66392   0.41083   0.00000  Uiso   1.00
C764   C     0.13439   0.91903   0.41250   0.00000  Uiso   1.00
C765   C     0.31211   0.94335   0.49985   0.00000  Uiso   1.00
C766   C     0.36561   0.58097   0.58750   0.00000  Uiso   1.00
C767   C     0.37430   0.56897   0.41875   0.00000  Uiso   1.00
C768   C     0.12570   0.93103   0.58125   0.00000  Uiso   1.00
C769   C     0.36059   0.92250   0.58685   0.00000  Uiso   1.00
C770   C     0.13941   0.57750   0.41315   0.00000  Uiso   1.00
C771   C     0.14525   0.58608   0.58917   0.00000  Uiso   1.00
C772   C     0.35475   0.91392   0.41083   0.00000  Uiso   1.00
C773   C     0.18789   0.55665   0.50015   0.00000  Uiso   1.00
C774   C     0.18717   0.94415   0.49975   0.00000  Uiso   1.00
C775   C     0.31283   0.55585   0.50025   0.00000  Uiso   1.00
C776   C     0.49883   0.71114   0.35764   0.00000  Uiso   1.00
Cl777  Cl    0.49692   0.66006   0.38644   0.00000  Uiso   1.00
Cl778  Cl    0.00308   0.83994   0.61356   0.00000  Uiso   1.00
Cl779  Cl    0.00212   0.84010   0.38833   0.00000  Uiso   1.00
Cl780  Cl    0.49788   0.65990   0.61167   0.00000  Uiso   1.00
Cl781  Cl    0.24692   0.91006   0.38644   0.00000  Uiso   1.00
Cl782  Cl    0.25308   0.58994   0.61356   0.00000  Uiso   1.00
Cl783  Cl    0.25212   0.59010   0.38833   0.00000  Uiso   1.00
Cl784  Cl    0.24788   0.90990   0.61167   0.00000  Uiso   1.00
Cu785  Cu    0.00000   0.75000   0.54689   0.00000  Uiso   1.00
Cu786  Cu    0.00000   0.75000   0.45311   0.00000  Uiso   1.00
Cu787  Cu    0.25000   0.50000   0.54689   0.00000  Uiso   1.00
Cu788  Cu    0.25000   0.50000   0.45311   0.00000  Uiso   1.00
H789   H     0.39632   0.70256   0.41087   0.00000  Uiso   1.00
H790   H     0.35368   0.54744   0.58913   0.00000  Uiso   1.00
H791   H     0.35790   0.53741   0.41754   0.00000  Uiso   1.00
H792   H     0.14210   0.96259   0.58246   0.00000  Uiso   1.00
H793   H     0.35091   0.90634   0.61886   0.00000  Uiso   1.00
H794   H     0.14909   0.59366   0.38114   0.00000  Uiso   1.00
H795   H     0.15760   0.60520   0.61863   0.00000  Uiso   1.00
H796   H     0.34240   0.89480   0.38137   0.00000  Uiso   1.00
H797   H     0.10368   0.79744   0.58913   0.00000  Uiso   1.00
H798   H     0.10790   0.78741   0.41754   0.00000  Uiso   1.00
H799   H     0.39210   0.71259   0.58246   0.00000  Uiso   1.00
H800   H     0.10091   0.65634   0.61886   0.00000  Uiso   1.00
H801   H     0.39909   0.84366   0.38114   0.00000  Uiso   1.00
H802   H     0.40760   0.85520   0.61863   0.00000  Uiso   1.00
H803   H     0.09240   0.64480   0.38137   0.00000  Uiso   1.00
H804   H     0.14632   0.95256   0.41087   0.00000  Uiso   1.00
N805   N     0.00000   0.75000   0.61736   0.00000  Uiso   1.00
N806   N     0.00000   0.75000   0.38264   0.00000  Uiso   1.00
N807   N     0.25000   0.50000   0.61736   0.00000  Uiso   1.00
N808   N     0.25000   0.50000   0.38264   0.00000  Uiso   1.00
O809   O     0.04509   0.70491   0.53958   0.00000  Uiso   1.00
O810   O     0.20492   0.54509   0.46042   0.00000  Uiso   1.00
O811   O     0.20492   0.54509   0.53958   0.00000  Uiso   1.00
O812   O     0.29509   0.95491   0.46042   0.00000  Uiso   1.00
O813   O     0.20492   0.95491   0.46042   0.00000  Uiso   1.00
O814   O     0.29509   0.54509   0.53958   0.00000  Uiso   1.00
O815   O     0.29509   0.54509   0.46042   0.00000  Uiso   1.00
O816   O     0.20492   0.95491   0.53958   0.00000  Uiso   1.00
O817   O     0.36555   0.65462   0.37802   0.00000  Uiso   1.00
O818   O     0.13445   0.84538   0.62198   0.00000  Uiso   1.00
O819   O     0.15117   0.82601   0.38856   0.00000  Uiso   1.00
O820   O     0.45492   0.79509   0.46042   0.00000  Uiso   1.00
O821   O     0.34883   0.67399   0.61144   0.00000  Uiso   1.00
O822   O     0.11919   0.71188   0.58813   0.00000  Uiso   1.00
O823   O     0.38081   0.78812   0.41187   0.00000  Uiso   1.00
O824   O     0.38571   0.79736   0.59489   0.00000  Uiso   1.00
O825   O     0.11429   0.70263   0.40511   0.00000  Uiso   1.00
O826   O     0.11555   0.90462   0.37802   0.00000  Uiso   1.00
O827   O     0.38445   0.59538   0.62198   0.00000  Uiso   1.00
O828   O     0.40117   0.57601   0.38856   0.00000  Uiso   1.00
O829   O     0.09883   0.92399   0.61144   0.00000  Uiso   1.00
O830   O     0.36919   0.96188   0.58813   0.00000  Uiso   1.00
O831   O     0.45492   0.79509   0.53958   0.00000  Uiso   1.00
O832   O     0.13081   0.53812   0.41187   0.00000  Uiso   1.00
O833   O     0.13571   0.54736   0.59489   0.00000  Uiso   1.00
O834   O     0.36429   0.95264   0.40511   0.00000  Uiso   1.00
O835   O     0.04509   0.70491   0.46042   0.00000  Uiso   1.00
O836   O     0.45492   0.70491   0.46042   0.00000  Uiso   1.00
O837   O     0.04509   0.79509   0.53958   0.00000  Uiso   1.00
O838   O     0.04509   0.79509   0.46042   0.00000  Uiso   1.00
O839   O     0.45492   0.70491   0.53958   0.00000  Uiso   1.00
O840   O     0.29509   0.95491   0.53958   0.00000  Uiso   1.00
C841   C     0.56211   0.69335   0.49985   0.00000  Uiso   1.00
C842   C     0.50117   0.78886   0.64236   0.00000  Uiso   1.00
C843   C     0.50106   0.78888   0.35851   0.00000  Uiso   1.00
C844   C     0.99894   0.71112   0.64149   0.00000  Uiso   1.00
C845   C     0.74883   0.96114   0.35764   0.00000  Uiso   1.00
C846   C     0.75117   0.53886   0.64236   0.00000  Uiso   1.00
C847   C     0.75106   0.53888   0.35851   0.00000  Uiso   1.00
C848   C     0.74894   0.96112   0.64149   0.00000  Uiso   1.00
C849   C     0.88673   0.64312   0.45667   0.00000  Uiso   1.00
C850   C     0.61327   0.85688   0.54333   0.00000  Uiso   1.00
C851   C     0.61792   0.85086   0.45832   0.00000  Uiso   1.00
C852   C     0.93789   0.80665   0.50016   0.00000  Uiso   1.00
C853   C     0.88208   0.64914   0.54168   0.00000  Uiso   1.00
C854   C     0.61508   0.64683   0.54245   0.00000  Uiso   1.00
C855   C     0.88492   0.85317   0.45755   0.00000  Uiso   1.00
C856   C     0.88783   0.85724   0.54322   0.00000  Uiso   1.00
C857   C     0.61217   0.64276   0.45678   0.00000  Uiso   1.00
C858   C     0.63673   0.89312   0.45667   0.00000  Uiso   1.00
C859   C     0.86327   0.60688   0.54333   0.00000  Uiso   1.00
C860   C     0.86792   0.60086   0.45832   0.00000  Uiso   1.00
C861   C     0.63208   0.89914   0.54168   0.00000  Uiso   1.00
C862   C     0.86508   0.89683   0.54245   0.00000  Uiso   1.00
C863   C     0.93717   0.69415   0.49975   0.00000  Uiso   1.00
C864   C     0.63492   0.60317   0.45755   0.00000  Uiso   1.00
C865   C     0.63783   0.60724   0.54322   0.00000  Uiso   1.00
C866   C     0.86217   0.89276   0.45678   0.00000  Uiso   1.00
C867   C     0.60017   0.83636   0.50092   0.00000  Uiso   1.00
C868   C     0.89983   0.66364   0.49908   0.00000  Uiso   1.00
C869   C     0.90140   0.83766   0.50050   0.00000  Uiso   1.00
C870   C     0.59860   0.66234   0.49950   0.00000  Uiso   1.00
C871   C     0.85017   0.58636   0.50092   0.00000  Uiso   1.00
C872   C     0.64983   0.91364   0.49908   0.00000  Uiso   1.00
C873   C     0.65140   0.58766   0.50050   0.00000  Uiso   1.00
C874   C     0.56283   0.80585   0.50025   0.00000  Uiso   1.00
C875   C     0.84860   0.91234   0.49950   0.00000  Uiso   1.00
C876   C     0.88439   0.66903   0.41250   0.00000  Uiso   1.00
C877   C     0.61561   0.83097   0.58750   0.00000  Uiso   1.00
C878   C     0.62430   0.81897   0.41875   0.00000  Uiso   1.00
C879   C     0.87570   0.68103   0.58125   0.00000  Uiso   1.00
C880   C     0.61059   0.67250   0.58685   0.00000  Uiso   1.00
C881   C     0.88941   0.82750   0.41315   0.00000  Uiso   1.00
C882   C     0.89525   0.83608   0.58917   0.00000  Uiso   1.00
C883   C     0.60475   0.66392   0.41083   0.00000  Uiso   1.00
C884   C     0.63439   0.91903   0.41250   0.00000  Uiso   1.00
C885   C     0.81211   0.94335   0.49985   0.00000  Uiso   1.00
C886   C     0.86561   0.58097   0.58750   0.00000  Uiso   1.00
C887   C     0.87430   0.56897   0.41875   0.00000  Uiso   1.00
C888   C     0.62570   0.93103   0.58125   0.00000  Uiso   1.00
C889   C     0.86059   0.92250   0.58685   0.00000  Uiso   1.00
C890   C     0.63941   0.57750   0.41315   0.00000  Uiso   1.00
C891   C     0.64525   0.58608   0.58917   0.00000  Uiso   1.00
C892   C     0.85475   0.91392   0.41083   0.00000  Uiso   1.00
C893   C     0.68789   0.55665   0.50015   0.00000  Uiso   1.00
C894   C     0.68717   0.94415   0.49975   0.00000  Uiso   1.00
C895   C     0.81283   0.55585   0.50025   0.00000  Uiso   1.00
C896   C     0.99883   0.71114   0.35764   0.00000  Uiso   1.00
Cl897  Cl    0.99692   0.66006   0.38644   0.00000  Uiso   1.00
Cl898  Cl    0.50308   0.83994   0.61356   0.00000  Uiso   1.00
Cl899  Cl    0.50212   0.84010   0.38833   0.00000  Uiso   1.00
Cl900  Cl    0.99788   0.65990   0.61167   0.00000  Uiso   1.00
Cl901  Cl    0.74692   0.91006   0.38644   0.00000  Uiso   1.00
Cl902  Cl    0.75308   0.58994   0.61356   0.00000  Uiso   1.00
Cl903  Cl    0.75212   0.59010   0.38833   0.00000  Uiso   1.00
Cl904  Cl    0.74788   0.90990   0.61167   0.00000  Uiso   1.00
Cu905  Cu    0.50000   0.75000   0.54689   0.00000  Uiso   1.00
Cu906  Cu    0.50000   0.75000   0.45311   0.00000  Uiso   1.00
Cu907  Cu    0.75000   0.50000   0.54689   0.00000  Uiso   1.00
Cu908  Cu    0.75000   0.50000   0.45311   0.00000  Uiso   1.00
H909   H     0.89632   0.70256   0.41087   0.00000  Uiso   1.00
H910   H     0.85368   0.54744   0.58913   0.00000  Uiso   1.00
H911   H     0.85790   0.53741   0.41754   0.00000  Uiso   1.00
H912   H     0.64210   0.96259   0.58246   0.00000  Uiso   1.00
H913   H     0.85091   0.90634   0.61886   0.00000  Uiso   1.00
H914   H     0.64909   0.59366   0.38114   0.00000  Uiso   1.00
H915   H     0.65760   0.60520   0.61863   0.00000  Uiso   1.00
H916   H     0.84240   0.89480   0.38137   0.00000  Uiso   1.00
H917   H     0.60368   0.79744   0.58913   0.00000  Uiso   1.00
H918   H     0.60790   0.78741   0.41754   0.00000  Uiso   1.00
H919   H     0.89210   0.71259   0.58246   0.00000  Uiso   1.00
H920   H     0.60091   0.65634   0.61886   0.00000  Uiso   1.00
H921   H     0.89909   0.84366   0.38114   0.00000  Uiso   1.00
H922   H     0.90760   0.85520   0.61863   0.00000  Uiso   1.00
H923   H     0.59240   0.64480   0.38137   0.00000  Uiso   1.00
H924   H     0.64632   0.95256   0.41087   0.00000  Uiso   1.00
N925   N     0.50000   0.75000   0.61736   0.00000  Uiso   1.00
N926   N     0.50000   0.75000   0.38264   0.00000  Uiso   1.00
N927   N     0.75000   0.50000   0.61736   0.00000  Uiso   1.00
N928   N     0.75000   0.50000   0.38264   0.00000  Uiso   1.00
O929   O     0.54509   0.70491   0.53958   0.00000  Uiso   1.00
O930   O     0.70492   0.54509   0.46042   0.00000  Uiso   1.00
O931   O     0.70492   0.54509   0.53958   0.00000  Uiso   1.00
O932   O     0.79509   0.95491   0.46042   0.00000  Uiso   1.00
O933   O     0.70492   0.95491   0.46042   0.00000  Uiso   1.00
O934   O     0.79509   0.54509   0.53958   0.00000  Uiso   1.00
O935   O     0.79509   0.54509   0.46042   0.00000  Uiso   1.00
O936   O     0.70492   0.95491   0.53958   0.00000  Uiso   1.00
O937   O     0.86555   0.65462   0.37802   0.00000  Uiso   1.00
O938   O     0.63445   0.84538   0.62198   0.00000  Uiso   1.00
O939   O     0.65117   0.82601   0.38856   0.00000  Uiso   1.00
O940   O     0.95492   0.79509   0.46042   0.00000  Uiso   1.00
O941   O     0.84883   0.67399   0.61144   0.00000  Uiso   1.00
O942   O     0.61919   0.71188   0.58813   0.00000  Uiso   1.00
O943   O     0.88081   0.78812   0.41187   0.00000  Uiso   1.00
O944   O     0.88571   0.79736   0.59489   0.00000  Uiso   1.00
O945   O     0.61429   0.70263   0.40511   0.00000  Uiso   1.00
O946   O     0.61555   0.90462   0.37802   0.00000  Uiso   1.00
O947   O     0.88445   0.59538   0.62198   0.00000  Uiso   1.00
O948   O     0.90117   0.57601   0.38856   0.00000  Uiso   1.00
O949   O     0.59883   0.92399   0.61144   0.00000  Uiso   1.00
O950   O     0.86919   0.96188   0.58813   0.00000  Uiso   1.00
O951   O     0.95492   0.79509   0.53958   0.00000  Uiso   1.00
O952   O     0.63081   0.53812   0.41187   0.00000  Uiso   1.00
O953   O     0.63571   0.54736   0.59489   0.00000  Uiso   1.00
O954   O     0.86429   0.95264   0.40511   0.00000  Uiso   1.00
O955   O     0.54509   0.70491   0.46042   0.00000  Uiso   1.00
O956   O     0.95492   0.70491   0.46042   0.00000  Uiso   1.00
O957   O     0.54509   0.79509   0.53958   0.00000  Uiso   1.00
O958   O     0.54509   0.79509   0.46042   0.00000  Uiso   1.00
O959   O     0.95492   0.70491   0.53958   0.00000  Uiso   1.00
O960   O     0.79509   0.95491   0.53958   0.00000  Uiso   1.00
C961   C     0.06211   0.19335   0.83318   0.00000  Uiso   1.00
C962   C     0.00117   0.28886   0.97569   0.00000  Uiso   1.00
C963   C     0.00106   0.28888   0.69184   0.00000  Uiso   1.00
C964   C     0.49894   0.21112   0.97482   0.00000  Uiso   1.00
C965   C     0.24883   0.46114   0.69097   0.00000  Uiso   1.00
C966   C     0.25117   0.03886   0.97569   0.00000  Uiso   1.00
C967   C     0.25106   0.03888   0.69184   0.00000  Uiso   1.00
C968   C     0.24894   0.46112   0.97482   0.00000  Uiso   1.00
C969   C     0.38673   0.14312   0.79000   0.00000  Uiso   1.00
C970   C     0.11327   0.35688   0.87667   0.00000  Uiso   1.00
C971   C     0.11792   0.35086   0.79165   0.00000  Uiso   1.00
C972   C     0.43789   0.30665   0.83349   0.00000  Uiso   1.00
C973   C     0.38208   0.14914   0.87501   0.00000  Uiso   1.00
C974   C     0.11508   0.14683   0.87579   0.00000  Uiso   1.00
C975   C     0.38492   0.35317   0.79088   0.00000  Uiso   1.00
C976   C     0.38783   0.35724   0.87655   0.00000  Uiso   1.00
C977   C     0.11217   0.14276   0.79012   0.00000  Uiso   1.00
C978   C     0.13673   0.39312   0.79000   0.00000  Uiso   1.00
C979   C     0.36327   0.10688   0.87667   0.00000  Uiso   1.00
C980   C     0.36792   0.10086   0.79165   0.00000  Uiso   1.00
C981   C     0.13208   0.39914   0.87501   0.00000  Uiso   1.00
C982   C     0.36508   0.39683   0.87579   0.00000  Uiso   1.00
C983   C     0.43717   0.19415   0.83308   0.00000  Uiso   1.00
C984   C     0.13492   0.10317   0.79088   0.00000  Uiso   1.00
C985   C     0.13783   0.10724   0.87655   0.00000  Uiso   1.00
C986   C     0.36217   0.39276   0.79012   0.00000  Uiso   1.00
C987   C     0.10017   0.33636   0.83425   0.00000  Uiso   1.00
C988   C     0.39983   0.16364   0.83241   0.00000  Uiso   1.00
C989   C     0.40140   0.33766   0.83383   0.00000  Uiso   1.00
C990   C     0.09860   0.16234   0.83283   0.00000  Uiso   1.00
C991   C     0.35017   0.08636   0.83425   0.00000  Uiso   1.00
C992   C     0.14983   0.41364   0.83241   0.00000  Uiso   1.00
C993   C     0.15140   0.08766   0.83383   0.00000  Uiso   1.00
C994   C     0.06283   0.30585   0.83359   0.00000  Uiso   1.00
C995   C     0.34860   0.41234   0.83283   0.00000  Uiso   1.00
C996   C     0.38439   0.16903   0.74584   0.00000  Uiso   1.00
C997   C     0.11561   0.33097   0.92083   0.00000  Uiso   1.00
C998   C     0.12430   0.31897   0.75208   0.00000  Uiso   1.00
C999   C     0.37570   0.18103   0.91459   0.00000  Uiso   1.00
C1000  C     0.11059   0.17250   0.92018   0.00000  Uiso   1.00
C1001  C     0.38941   0.32750   0.74648   0.00000  Uiso   1.00
C1002  C     0.39525   0.33608   0.92250   0.00000  Uiso   1.00
C1003  C     0.10475   0.16392   0.74417   0.00000  Uiso   1.00
C1004  C     0.13439   0.41903   0.74584   0.00000  Uiso   1.00
C1005  C     0.31211   0.44335   0.83318   0.00000  Uiso   1.00
C1006  C     0.36561   0.08097   0.92083   0.00000  Uiso   1.00
C1007  C     0.37430   0.06897   0.75208   0.00000  Uiso   1.00
C1008  C     0.12570   0.43103   0.91459   0.00000  Uiso   1.00
C1009  C     0.36059   0.42250   0.92018   0.00000  Uiso   1.00
C1010  C     0.13941   0.07750   0.74648   0.00000  Uiso   1.00
C1011  C     0.14525   0.08608   0.92250   0.00000  Uiso   1.00
C1012  C     0.35475   0.41392   0.74417   0.00000  Uiso   1.00
C1013  C     0.18789   0.05665   0.83349   0.00000  Uiso   1.00
C1014  C     0.18717   0.44415   0.83308   0.00000  Uiso   1.00
C1015  C     0.31283   0.05585   0.83359   0.00000  Uiso   1.00
C1016  C     0.49883   0.21114   0.69097   0.00000  Uiso   1.00
Cl1017 Cl    0.49692   0.16006   0.71977   0.00000  Uiso   1.00
Cl1018 Cl    0.00308   0.33994   0.94689   0.00000  Uiso   1.00
Cl1019 Cl    0.00212   0.34010   0.72167   0.00000  Uiso   1.00
Cl1020 Cl    0.49788   0.15990   0.94500   0.00000  Uiso   1.00
Cl1021 Cl    0.24692   0.41006   0.71977   0.00000  Uiso   1.00
Cl1022 Cl    0.25308   0.08994   0.94689   0.00000  Uiso   1.00
Cl1023 Cl    0.25212   0.09010   0.72167   0.00000  Uiso   1.00
Cl1024 Cl    0.24788   0.40990   0.94500   0.00000  Uiso   1.00
Cu1025 Cu    0.00000   0.25000   0.88022   0.00000  Uiso   1.00
Cu1026 Cu    0.00000   0.25000   0.78645   0.00000  Uiso   1.00
Cu1027 Cu    0.25000  -0.00000   0.88022   0.00000  Uiso   1.00
Cu1028 Cu    0.25000  -0.00000   0.78645   0.00000  Uiso   1.00
H1029  H     0.39632   0.20256   0.74420   0.00000  Uiso   1.00
H1030  H     0.35368   0.04744   0.92247   0.00000  Uiso   1.00
H1031  H     0.35790   0.03741   0.75087   0.00000  Uiso   1.00
H1032  H     0.14210   0.46259   0.91579   0.00000  Uiso   1.00
H1033  H     0.35091   0.40634   0.95219   0.00000  Uiso   1.00
H1034  H     0.14909   0.09366   0.71448   0.00000  Uiso   1.00
H1035  H     0.15760   0.10520   0.95196   0.00000  Uiso   1.00
H1036  H     0.34240   0.39480   0.71471   0.00000  Uiso   1.00
H1037  H     0.10368   0.29744   0.92247   0.00000  Uiso   1.00
H1038  H     0.10790   0.28741   0.75087   0.00000  Uiso   1.00
H1039  H     0.39210   0.21259   0.91579   0.00000  Uiso   1.00
H1040  H     0.10091   0.15634   0.95219   0.00000  Uiso   1.00
H1041  H     0.39909   0.34366   0.71448   0.00000  Uiso   1.00
H1042  H     0.40760   0.35520   0.95196   0.00000  Uiso   1.00
H1043  H     0.09240   0.14480   0.71471   0.00000  Uiso   1.00
H1044  H     0.14632   0.45256   0.74420   0.00000  Uiso   1.00
N1045  N     0.00000   0.25000   0.95069   0.00000  Uiso   1.00
N1046  N     0.00000   0.25000   0.71598   0.00000  Uiso   1.00
N1047  N     0.25000  -0.00000   0.95069   0.00000  Uiso   1.00
N1048  N     0.25000  -0.00000   0.71598   0.00000  Uiso   1.00
O1049  O     0.04509   0.20491   0.87291   0.00000  Uiso   1.00
O1050  O     0.20492   0.04509   0.79375   0.00000  Uiso   1.00
O1051  O     0.20492   0.04509   0.87291   0.00000  Uiso   1.00
O1052  O     0.29509   0.45491   0.79375   0.00000  Uiso   1.00
O1053  O     0.20492   0.45491   0.79375   0.00000  Uiso   1.00
O1054  O     0.29509   0.04509   0.87291   0.00000  Uiso   1.00
O1055  O     0.29509   0.04509   0.79375   0.00000  Uiso   1.00
O1056  O     0.20492   0.45491   0.87291   0.00000  Uiso   1.00
O1057  O     0.36555   0.15462   0.71135   0.00000  Uiso   1.00
O1058  O     0.13445   0.34538   0.95531   0.00000  Uiso   1.00
O1059  O     0.15117   0.32601   0.72190   0.00000  Uiso   1.00
O1060  O     0.45492   0.29509   0.79375   0.00000  Uiso   1.00
O1061  O     0.34883   0.17399   0.94477   0.00000  Uiso   1.00
O1062  O     0.11919   0.21188   0.92146   0.00000  Uiso   1.00
O1063  O     0.38081   0.28812   0.74520   0.00000  Uiso   1.00
O1064  O     0.38571   0.29736   0.92823   0.00000  Uiso   1.00
O1065  O     0.11429   0.20263   0.73844   0.00000  Uiso   1.00
O1066  O     0.11555   0.40462   0.71135   0.00000  Uiso   1.00
O1067  O     0.38445   0.09538   0.95531   0.00000  Uiso   1.00
O1068  O     0.40117   0.07601   0.72190   0.00000  Uiso   1.00
O1069  O     0.09883   0.42399   0.94477   0.00000  Uiso   1.00
O1070  O     0.36919   0.46188   0.92146   0.00000  Uiso   1.00
O1071  O     0.45492   0.29509   0.87291   0.00000  Uiso   1.00
O1072  O     0.13081   0.03812   0.74520   0.00000  Uiso   1.00
O1073  O     0.13571   0.04736   0.92823   0.00000  Uiso   1.00
O1074  O     0.36429   0.45264   0.73844   0.00000  Uiso   1.00
O1075  O     0.04509   0.20491   0.79375   0.00000  Uiso   1.00
O1076  O     0.45492   0.20491   0.79375   0.00000  Uiso   1.00
O1077  O     0.04509   0.29509   0.87291   0.00000  Uiso   1.00
O1078  O     0.04509   0.29509   0.79375   0.00000  Uiso   1.00
O1079  O     0.45492   0.20491   0.87291   0.00000  Uiso   1.00
O1080  O     0.29509   0.45491   0.87291   0.00000  Uiso   1.00
C1081  C     0.56211   0.19335   0.83318   0.00000  Uiso   1.00
C1082  C     0.50117   0.28886   0.97569   0.00000  Uiso   1.00
C1083  C     0.50106   0.28888   0.69184   0.00000  Uiso   1.00
C1084  C     0.99894   0.21112   0.97482   0.00000  Uiso   1.00
C1085  C     0.74883   0.46114   0.69097   0.00000  Uiso   1.00
C1086  C     0.75117   0.03886   0.97569   0.00000  Uiso   1.00
C1087  C     0.75106   0.03888   0.69184   0.00000  Uiso   1.00
C1088  C     0.74894   0.46112   0.97482   0.00000  Uiso   1.00
C1089  C     0.88673   0.14312   0.79000   0.00000  Uiso   1.00
C1090  C     0.61327   0.35688   0.87667   0.00000  Uiso   1.00
C1091  C     0.61792   0.35086   0.79165   0.00000  Uiso   1.00
C1092  C     0.93789   0.30665   0.83349   0.00000  Uiso   1.00
C1093  C     0.88208   0.14914   0.87501   0.00000  Uiso   1.00
C1094  C     0.61508   0.14683   0.87579   0.00000  Uiso   1.00
C1095  C     0.88492   0.35317   0.79088   0.00000  Uiso   1.00
C1096  C     0.88783   0.35724   0.87655   0.00000  Uiso   1.00
C1097  C     0.61217   0.14276   0.79012   0.00000  Uiso   1.00
C1098  C     0.63673   0.39312   0.79000   0.00000  Uiso   1.00
C1099  C     0.86327   0.10688   0.87667   0.00000  Uiso   1.00
C1100  C     0.86792   0.10086   0.79165   0.00000  Uiso   1.00
C1101  C     0.63208   0.39914   0.87501   0.00000  Uiso   1.00
C1102  C     0.86508   0.39683   0.87579   0.00000  Uiso   1.00
C1103  C     0.93717   0.19415   0.83308   0.00000  Uiso   1.00
C1104  C     0.63492   0.10317   0.79088   0.00000  Uiso   1.00
C1105  C     0.63783   0.10724   0.87655   0.00000  Uiso   1.00
C1106  C     0.86217   0.39276   0.79012   0.00000  Uiso   1.00
C1107  C     0.60017   0.33636   0.83425   0.00000  Uiso   1.00
C1108  C     0.89983   0.16364   0.83241   0.00000  Uiso   1.00
C1109  C     0.90140   0.33766   0.83383   0.00000  Uiso   1.00
C1110  C     0.59860   0.16234   0.83283   0.00000  Uiso   1.00
C1111  C     0.85017   0.08636   0.83425   0.00000  Uiso   1.00
C1112  C     0.64983   0.41364   0.83241   0.00000  Uiso   1.00
C1113  C     0.65140   0.08766   0.83383   0.00000  Uiso   1.00
C1114  C     0.56283   0.30585   0.83359   0.00000  Uiso   1.00
C1115  C     0.84860   0.41234   0.83283   0.00000  Uiso   1.00
C1116  C     0.88439   0.16903   0.74584   0.00000  Uiso   1.00
C1117  C     0.61561   0.33097   0.92083   0.00000  Uiso   1.00
C1118  C     0.62430   0.31897   0.75208   0.00000  Uiso   1.00
C1119  C     0.87570   0.18103   0.91459   0.00000  Uiso   1.00
C1120  C     0.61059   0.17250   0.92018   0.00000  Uiso   1.00
C1121  C     0.88941   0.32750   0.74648   0.00000  Uiso   1.00
C1122  C     0.89525   0.33608   0.92250   0.00000  Uiso   1.00
C1123  C     0.60475   0.16392   0.74417   0.00000  Uiso   1.00
C1124  C     0.63439   0.41903   0.74584   0.00000  Uiso   1.00
C1125  C     0.81211   0.44335   0.83318   0.00000  Uiso   1.00
C1126  C     0.86561   0.08097   0.92083   0.00000  Uiso   1.00
C1127  C     0.87430   0.06897   0.75208   0.00000  Uiso   1.00
C1128  C     0.62570   0.43103   0.91459   0.00000  Uiso   1.00
C1129  C     0.86059   0.42250   0.92018   0.00000  Uiso   1.00
C1130  C     0.63941   0.07750   0.74648   0.00000  Uiso   1.00
C1131  C     0.64525   0.08608   0.92250   0.00000  Uiso   1.00
C1132  C     0.85475   0.41392   0.74417   0.00000  Uiso   1.00
C1133  C     0.68789   0.05665   0.83349   0.00000  Uiso   1.00
C1134  C     0.68717   0.44415   0.83308   0.00000  Uiso   1.00
C1135  C     0.81283   0.05585   0.83359   0.00000  Uiso   1.00
C1136  C     0.99883   0.21114   0.69097   0.00000  Uiso   1.00
Cl1137 Cl    0.99692   0.16006   0.71977   0.00000  Uiso   1.00
Cl1138 Cl    0.50308   0.33994   0.94689   0.00000  Uiso   1.00
Cl1139 Cl    0.50212   0.34010   0.72167   0.00000  Uiso   1.00
Cl1140 Cl    0.99788   0.15990   0.94500   0.00000  Uiso   1.00
Cl1141 Cl    0.74692   0.41006   0.71977   0.00000  Uiso   1.00
Cl1142 Cl    0.75308   0.08994   0.94689   0.00000  Uiso   1.00
Cl1143 Cl    0.75212   0.09010   0.72167   0.00000  Uiso   1.00
Cl1144 Cl    0.74788   0.40990   0.94500   0.00000  Uiso   1.00
Cu1145 Cu    0.50000   0.25000   0.88022   0.00000  Uiso   1.00
Cu1146 Cu    0.50000   0.25000   0.78645   0.00000  Uiso   1.00
Cu1147 Cu    0.75000  -0.00000   0.88022   0.00000  Uiso   1.00
Cu1148 Cu    0.75000  -0.00000   0.78645   0.00000  Uiso   1.00
H1149  H     0.89632   0.20256   0.74420   0.00000  Uiso   1.00
H1150  H     0.85368   0.04744   0.92247   0.00000  Uiso   1.00
H1151  H     0.85790   0.03741   0.75087   0.00000  Uiso   1.00
H1152  H     0.64210   0.46259   0.91579   0.00000  Uiso   1.00
H1153  H     0.85091   0.40634   0.95219   0.00000  Uiso   1.00
H1154  H     0.64909   0.09366   0.71448   0.00000  Uiso   1.00
H1155  H     0.65760   0.10520   0.95196   0.00000  Uiso   1.00
H1156  H     0.84240   0.39480   0.71471   0.00000  Uiso   1.00
H1157  H     0.60368   0.29744   0.92247   0.00000  Uiso   1.00
H1158  H     0.60790   0.28741   0.75087   0.00000  Uiso   1.00
H1159  H     0.89210   0.21259   0.91579   0.00000  Uiso   1.00
H1160  H     0.60091   0.15634   0.95219   0.00000  Uiso   1.00
H1161  H     0.89909   0.34366   0.71448   0.00000  Uiso   1.00
H1162  H     0.90760   0.35520   0.95196   0.00000  Uiso   1.00
H1163  H     0.59240   0.14480   0.71471   0.00000  Uiso   1.00
H1164  H     0.64632   0.45256   0.74420   0.00000  Uiso   1.00
N1165  N     0.50000   0.25000   0.95069   0.00000  Uiso   1.00
N1166  N     0.50000   0.25000   0.71598   0.00000  Uiso   1.00
N1167  N     0.75000  -0.00000   0.95069   0.00000  Uiso   1.00
N1168  N     0.75000  -0.00000   0.71598   0.00000  Uiso   1.00
O1169  O     0.54509   0.20491   0.87291   0.00000  Uiso   1.00
O1170  O     0.70492   0.04509   0.79375   0.00000  Uiso   1.00
O1171  O     0.70492   0.04509   0.87291   0.00000  Uiso   1.00
O1172  O     0.79509   0.45491   0.79375   0.00000  Uiso   1.00
O1173  O     0.70492   0.45491   0.79375   0.00000  Uiso   1.00
O1174  O     0.79509   0.04509   0.87291   0.00000  Uiso   1.00
O1175  O     0.79509   0.04509   0.79375   0.00000  Uiso   1.00
O1176  O     0.70492   0.45491   0.87291   0.00000  Uiso   1.00
O1177  O     0.86555   0.15462   0.71135   0.00000  Uiso   1.00
O1178  O     0.63445   0.34538   0.95531   0.00000  Uiso   1.00
O1179  O     0.65117   0.32601   0.72190   0.00000  Uiso   1.00
O1180  O     0.95492   0.29509   0.79375   0.00000  Uiso   1.00
O1181  O     0.84883   0.17399   0.94477   0.00000  Uiso   1.00
O1182  O     0.61919   0.21188   0.92146   0.00000  Uiso   1.00
O1183  O     0.88081   0.28812   0.74520   0.00000  Uiso   1.00
O1184  O     0.88571   0.29736   0.92823   0.00000  Uiso   1.00
O1185  O     0.61429   0.20263   0.73844   0.00000  Uiso   1.00
O1186  O     0.61555   0.40462   0.71135   0.00000  Uiso   1.00
O1187  O     0.88445   0.09538   0.95531   0.00000  Uiso   1.00
O1188  O     0.90117   0.07601   0.72190   0.00000  Uiso   1.00
O1189  O     0.59883   0.42399   0.94477   0.00000  Uiso   1.00
O1190  O     0.86919   0.46188   0.92146   0.00000  Uiso   1.00
O1191  O     0.95492   0.29509   0.87291   0.00000  Uiso   1.00
O1192  O     0.63081   0.03812   0.74520   0.00000  Uiso   1.00
O1193  O     0.63571   0.04736   0.92823   0.00000  Uiso   1.00
O1194  O     0.86429   0.45264   0.73844   0.00000  Uiso   1.00
O1195  O     0.54509   0.20491   0.79375   0.00000  Uiso   1.00
O1196  O     0.95492   0.20491   0.79375   0.00000  Uiso   1.00
O1197  O     0.54509   0.29509   0.87291   0.00000  Uiso   1.00
O1198  O     0.54509   0.29509   0.79375   0.00000  Uiso   1.00
O1199  O     0.95492   0.20491   0.87291   0.00000  Uiso   1.00
O1200  O     0.79509   0.45491   0.87291   0.00000  Uiso   1.00
C1201  C     0.06211   0.69335   0.83318   0.00000  Uiso   1.00
C1202  C     0.00117   0.78886   0.97569   0.00000  Uiso   1.00
C1203  C     0.00106   0.78888   0.69184   0.00000  Uiso   1.00
C1204  C     0.49894   0.71112   0.97482   0.00000  Uiso   1.00
C1205  C     0.24883   0.96114   0.69097   0.00000  Uiso   1.00
C1206  C     0.25117   0.53886   0.97569   0.00000  Uiso   1.00
C1207  C     0.25106   0.53888   0.69184   0.00000  Uiso   1.00
C1208  C     0.24894   0.96112   0.97482   0.00000  Uiso   1.00
C1209  C     0.38673   0.64312   0.79000   0.00000  Uiso   1.00
C1210  C     0.11327   0.85688   0.87667   0.00000  Uiso   1.00
C1211  C     0.11792   0.85086   0.79165   0.00000  Uiso   1.00
C1212  C     0.43789   0.80665   0.83349   0.00000  Uiso   1.00
C1213  C     0.38208   0.64914   0.87501   0.00000  Uiso   1.00
C1214  C     0.11508   0.64683   0.87579   0.00000  Uiso   1.00
C1215  C     0.38492   0.85317   0.79088   0.00000  Uiso   1.00
C1216  C     0.38783   0.85724   0.87655   0.00000  Uiso   1.00
C1217  C     0.11217   0.64276   0.79012   0.00000  Uiso   1.00
C1218  C     0.13673   0.89312   0.79000   0.00000  Uiso   1.00
C1219  C     0.36327   0.60688   0.87667   0.00000  Uiso   1.00
C1220  C     0.36792   0.60086   0.79165   0.00000  Uiso   1.00
C1221  C     0.13208   0.89914   0.87501   0.00000  Uiso   1.00
C1222  C     0.36508   0.89683   0.87579   0.00000  Uiso   1.00
C1223  C     0.43717   0.69415   0.83308   0.00000  Uiso   1.00
C1224  C     0.13492   0.60317   0.79088   0.00000  Uiso   1.00
C1225  C     0.13783   0.60724   0.87655   0.00000  Uiso   1.00
C1226  C     0.36217   0.89276   0.79012   0.00000  Uiso   1.00
C1227  C     0.10017   0.83636   0.83425   0.00000  Uiso   1.00
C1228  C     0.39983   0.66364   0.83241   0.00000  Uiso   1.00
C1229  C     0.40140   0.83766   0.83383   0.00000  Uiso   1.00
C1230  C     0.09860   0.66234   0.83283   0.00000  Uiso   1.00
C1231  C     0.35017   0.58636   0.83425   0.00000  Uiso   1.00
C1232  C     0.14983   0.91364   0.83241   0.00000  Uiso   1.00
C1233  C     0.15140   0.58766   0.83383   0.00000  Uiso   1.00
C1234  C     0.06283   0.80585   0.83359   0.00000  Uiso   1.00
C1235  C     0.34860   0.91234   0.83283   0.00000  Uiso   1.00
C1236  C     0.38439   0.66903   0.74584   0.00000  Uiso   1.00
C1237  C     0.11561   0.83097   0.92083   0.00000  Uiso   1.00
C1238  C     0.12430   0.81897   0.75208   0.00000  Uiso   1.00
C1239  C     0.37570   0.68103   0.91459   0.00000  Uiso   1.00
C1240  C     0.11059   0.67250   0.92018   0.00000  Uiso   1.00
C1241  C     0.38941   0.82750   0.74648   0.00000  Uiso   1.00
C1242  C     0.39525   0.83608   0.92250   0.00000  Uiso   1.00
C1243  C     0.10475   0.66392   0.74417   0.00000  Uiso   1.00
C1244  C     0.13439   0.91903   0.74584   0.00000  Uiso   1.00
C1245  C     0.31211   0.94335   0.83318   0.00000  Uiso   1.00
C1246  C     0.36561   0.58097   0.92083   0.00000  Uiso   1.00
C1247  C     0.37430   0.56897   0.75208   0.00000  Uiso   1.00
C1248  C     0.12570   0.93103   0.91459   0.00000  Uiso   1.00
C1249  C     0.36059   0.92250   0.92018   0.00000  Uiso   1.00
C1250  C     0.13941   0.57750   0.74648   0.00000  Uiso   1.00
C1251  C     0.14525   0.58608   0.92250   0.00000  Uiso   1.00
C1252  C     0.35475   0.91392   0.74417   0.00000  Uiso   1.00
C1253  C     0.18789   0.55665   0.83349   0.00000  Uiso   1.00
C1254  C     0.18717   0.94415   0.83308   0.00000  Uiso   1.00
C1255  C     0.31283   0.55585   0.83359   0.00000  Uiso   1.00
C1256  C     0.49883   0.71114   0.69097   0.00000  Uiso   1.00
Cl1257 Cl    0.49692   0.66006   0.71977   0.00000  Uiso   1.00
Cl1258 Cl    0.00308   0.83994   0.94689   0.00000  Uiso   1.00
Cl1259 Cl    0.00212   0.84010   0.72167   0.00000  Uiso   1.00
Cl1260 Cl    0.49788   0.65990   0.94500   0.00000  Uiso   1.00
Cl1261 Cl    0.24692   0.91006   0.71977   0.00000  Uiso   1.00
Cl1262 Cl    0.25308   0.58994   0.94689   0.00000  Uiso   1.00
Cl1263 Cl    0.25212   0.59010   0.72167   0.00000  Uiso   1.00
Cl1264 Cl    0.24788   0.90990   0.94500   0.00000  Uiso   1.00
Cu1265 Cu    0.00000   0.75000   0.88022   0.00000  Uiso   1.00
Cu1266 Cu    0.00000   0.75000   0.78645   0.00000  Uiso   1.00
Cu1267 Cu    0.25000   0.50000   0.88022   0.00000  Uiso   1.00
Cu1268 Cu    0.25000   0.50000   0.78645   0.00000  Uiso   1.00
H1269  H     0.39632   0.70256   0.74420   0.00000  Uiso   1.00
H1270  H     0.35368   0.54744   0.92247   0.00000  Uiso   1.00
H1271  H     0.35790   0.53741   0.75087   0.00000  Uiso   1.00
H1272  H     0.14210   0.96259   0.91579   0.00000  Uiso   1.00
H1273  H     0.35091   0.90634   0.95219   0.00000  Uiso   1.00
H1274  H     0.14909   0.59366   0.71448   0.00000  Uiso   1.00
H1275  H     0.15760   0.60520   0.95196   0.00000  Uiso   1.00
H1276  H     0.34240   0.89480   0.71471   0.00000  Uiso   1.00
H1277  H     0.10368   0.79744   0.92247   0.00000  Uiso   1.00
H1278  H     0.10790   0.78741   0.75087   0.00000  Uiso   1.00
H1279  H     0.39210   0.71259   0.91579   0.00000  Uiso   1.00
H1280  H     0.10091   0.65634   0.95219   0.00000  Uiso   1.00
H1281  H     0.39909   0.84366   0.71448   0.00000  Uiso   1.00
H1282  H     0.40760   0.85520   0.95196   0.00000  Uiso   1.00
H1283  H     0.09240   0.64480   0.71471   0.00000  Uiso   1.00
H1284  H     0.14632   0.95256   0.74420   0.00000  Uiso   1.00
N1285  N     0.00000   0.75000   0.95069   0.00000  Uiso   1.00
N1286  N     0.00000   0.75000   0.71598   0.00000  Uiso   1.00
N1287  N     0.25000   0.50000   0.95069   0.00000  Uiso   1.00
N1288  N     0.25000   0.50000   0.71598   0.00000  Uiso   1.00
O1289  O     0.04509   0.70491   0.87291   0.00000  Uiso   1.00
O1290  O     0.20492   0.54509   0.79375   0.00000  Uiso   1.00
O1291  O     0.20492   0.54509   0.87291   0.00000  Uiso   1.00
O1292  O     0.29509   0.95491   0.79375   0.00000  Uiso   1.00
O1293  O     0.20492   0.95491   0.79375   0.00000  Uiso   1.00
O1294  O     0.29509   0.54509   0.87291   0.00000  Uiso   1.00
O1295  O     0.29509   0.54509   0.79375   0.00000  Uiso   1.00
O1296  O     0.20492   0.95491   0.87291   0.00000  Uiso   1.00
O1297  O     0.36555   0.65462   0.71135   0.00000  Uiso   1.00
O1298  O     0.13445   0.84538   0.95531   0.00000  Uiso   1.00
O1299  O     0.15117   0.82601   0.72190   0.00000  Uiso   1.00
O1300  O     0.45492   0.79509   0.79375   0.00000  Uiso   1.00
O1301  O     0.34883   0.67399   0.94477   0.00000  Uiso   1.00
O1302  O     0.11919   0.71188   0.92146   0.00000  Uiso   1.00
O1303  O     0.38081   0.78812   0.74520   0.00000  Uiso   1.00
O1304  O     0.38571   0.79736   0.92823   0.00000  Uiso   1.00
O1305  O     0.11429   0.70263   0.73844   0.00000  Uiso   1.00
O1306  O     0.11555   0.90462   0.71135   0.00000  Uiso   1.00
O1307  O     0.38445   0.59538   0.95531   0.00000  Uiso   1.00
O1308  O     0.40117   0.57601   0.72190   0.00000  Uiso   1.00
O1309  O     0.09883   0.92399   0.94477   0.00000  Uiso   1.00
O1310  O     0.36919   0.96188   0.92146   0.00000  Uiso   1.00
O1311  O     0.45492   0.79509   0.87291   0.00000  Uiso   1.00
O1312  O     0.13081   0.53812   0.74520   0.00000  Uiso   1.00
O1313  O     0.13571   0.54736   0.92823   0.00000  Uiso   1.00
O1314  O     0.36429   0.95264   0.73844   0.00000  Uiso   1.00
O1315  O     0.04509   0.70491   0.79375   0.00000  Uiso   1.00
O1316  O     0.45492   0.70491   0.79375   0.00000  Uiso   1.00
O1317  O     0.04509   0.79509   0.87291   0.00000  Uiso   1.00
O1318  O     0.04509   0.79509   0.79375   0.00000  Uiso   1.00
O1319  O     0.45492   0.70491   0.87291   0.00000  Uiso   1.00
O1320  O     0.29509   0.95491   0.87291   0.00000  Uiso   1.00
C1321  C     0.56211   0.69335   0.83318   0.00000  Uiso   1.00
C1322  C     0.50117   0.78886   0.97569   0.00000  Uiso   1.00
C1323  C     0.50106   0.78888   0.69184   0.00000  Uiso   1.00
C1324  C     0.99894   0.71112   0.97482   0.00000  Uiso   1.00
C1325  C     0.74883   0.96114   0.69097   0.00000  Uiso   1.00
C1326  C     0.75117   0.53886   0.97569   0.00000  Uiso   1.00
C1327  C     0.75106   0.53888   0.69184   0.00000  Uiso   1.00
C1328  C     0.74894   0.96112   0.97482   0.00000  Uiso   1.00
C1329  C     0.88673   0.64312   0.79000   0.00000  Uiso   1.00
C1330  C     0.61327   0.85688   0.87667   0.00000  Uiso   1.00
C1331  C     0.61792   0.85086   0.79165   0.00000  Uiso   1.00
C1332  C     0.93789   0.80665   0.83349   0.00000  Uiso   1.00
C1333  C     0.88208   0.64914   0.87501   0.00000  Uiso   1.00
C1334  C     0.61508   0.64683   0.87579   0.00000  Uiso   1.00
C1335  C     0.88492   0.85317   0.79088   0.00000  Uiso   1.00
C1336  C     0.88783   0.85724   0.87655   0.00000  Uiso   1.00
C1337  C     0.61217   0.64276   0.79012   0.00000  Uiso   1.00
C1338  C     0.63673   0.89312   0.79000   0.00000  Uiso   1.00
C1339  C     0.86327   0.60688   0.87667   0.00000  Uiso   1.00
C1340  C     0.86792   0.60086   0.79165   0.00000  Uiso   1.00
C1341  C     0.63208   0.89914   0.87501   0.00000  Uiso   1.00
C1342  C     0.86508   0.89683   0.87579   0.00000  Uiso   1.00
C1343  C     0.93717   0.69415   0.83308   0.00000  Uiso   1.00
C1344  C     0.63492   0.60317   0.79088   0.00000  Uiso   1.00
C1345  C     0.63783   0.60724   0.87655   0.00000  Uiso   1.00
C1346  C     0.86217   0.89276   0.79012   0.00000  Uiso   1.00
C1347  C     0.60017   0.83636   0.83425   0.00000  Uiso   1.00
C1348  C     0.89983   0.66364   0.83241   0.00000  Uiso   1.00
C1349  C     0.90140   0.83766   0.83383   0.00000  Uiso   1.00
C1350  C     0.59860   0.66234   0.83283   0.00000  Uiso   1.00
C1351  C     0.85017   0.58636   0.83425   0.00000  Uiso   1.00
C1352  C     0.64983   0.91364   0.83241   0.00000  Uiso   1.00
C1353  C     0.65140   0.58766   0.83383   0.00000  Uiso   1.00
C1354  C     0.56283   0.80585   0.83359   0.00000  Uiso   1.00
C1355  C     0.84860   0.91234   0.83283   0.00000  Uiso   1.00
C1356  C     0.88439   0.66903   0.74584   0.00000  Uiso   1.00
C1357  C     0.61561   0.83097   0.92083   0.00000  Uiso   1.00
C1358  C     0.62430   0.81897   0.75208   0.00000  Uiso   1.00
C1359  C     0.87570   0.68103   0.91459   0.00000  Uiso   1.00
C1360  C     0.61059   0.67250   0.92018   0.00000  Uiso   1.00
C1361  C     0.88941   0.82750   0.74648   0.00000  Uiso   1.00
C1362  C     0.89525   0.83608   0.92250   0.00000  Uiso   1.00
C1363  C     0.60475   0.66392   0.74417   0.00000  Uiso   1.00
C1364  C     0.63439   0.91903   0.74584   0.00000  Uiso   1.00
C1365  C     0.81211   0.94335   0.83318   0.00000  Uiso   1.00
C1366  C     0.86561   0.58097   0.92083   0.00000  Uiso   1.00
C1367  C     0.87430   0.56897   0.75208   0.00000  Uiso   1.00
C1368  C     0.62570   0.93103   0.91459   0.00000  Uiso   1.00
C1369  C     0.86059   0.92250   0.92018   0.00000  Uiso   1.00
C1370  C     0.63941   0.57750   0.74648   0.00000  Uiso   1.00
C1371  C     0.64525   0.58608   0.92250   0.00000  Uiso   1.00
C1372  C     0.85475   0.91392   0.74417   0.00000  Uiso   1.00
C1373  C     0.68789   0.55665   0.83349   0.00000  Uiso   1.00
C1374  C     0.68717   0.94415   0.83308   0.00000  Uiso   1.00
C1375  C     0.81283   0.55585   0.83359   0.00000  Uiso   1.00
C1376  C     0.99883   0.71114   0.69097   0.00000  Uiso   1.00
Cl1377 Cl    0.99692   0.66006   0.71977   0.00000  Uiso   1.00
Cl1378 Cl    0.50308   0.83994   0.94689   0.00000  Uiso   1.00
Cl1379 Cl    0.50212   0.84010   0.72167   0.00000  Uiso   1.00
Cl1380 Cl    0.99788   0.65990   0.94500   0.00000  Uiso   1.00
Cl1381 Cl    0.74692   0.91006   0.71977   0.00000  Uiso   1.00
Cl1382 Cl    0.75308   0.58994   0.94689   0.00000  Uiso   1.00
Cl1383 Cl    0.75212   0.59010   0.72167   0.00000  Uiso   1.00
Cl1384 Cl    0.74788   0.90990   0.94500   0.00000  Uiso   1.00
Cu1385 Cu    0.50000   0.75000   0.88022   0.00000  Uiso   1.00
Cu1386 Cu    0.50000   0.75000   0.78645   0.00000  Uiso   1.00
Cu1387 Cu    0.75000   0.50000   0.88022   0.00000  Uiso   1.00
Cu1388 Cu    0.75000   0.50000   0.78645   0.00000  Uiso   1.00
H1389  H     0.89632   0.70256   0.74420   0.00000  Uiso   1.00
H1390  H     0.85368   0.54744   0.92247   0.00000  Uiso   1.00
H1391  H     0.85790   0.53741   0.75087   0.00000  Uiso   1.00
H1392  H     0.64210   0.96259   0.91579   0.00000  Uiso   1.00
H1393  H     0.85091   0.90634   0.95219   0.00000  Uiso   1.00
H1394  H     0.64909   0.59366   0.71448   0.00000  Uiso   1.00
H1395  H     0.65760   0.60520   0.95196   0.00000  Uiso   1.00
H1396  H     0.84240   0.89480   0.71471   0.00000  Uiso   1.00
H1397  H     0.60368   0.79744   0.92247   0.00000  Uiso   1.00
H1398  H     0.60790   0.78741   0.75087   0.00000  Uiso   1.00
H1399  H     0.89210   0.71259   0.91579   0.00000  Uiso   1.00
H1400  H     0.60091   0.65634   0.95219   0.00000  Uiso   1.00
H1401  H     0.89909   0.84366   0.71448   0.00000  Uiso   1.00
H1402  H     0.90760   0.85520   0.95196   0.00000  Uiso   1.00
H1403  H     0.59240   0.64480   0.71471   0.00000  Uiso   1.00
H1404  H     0.64632   0.95256   0.74420   0.00000  Uiso   1.00
N1405  N     0.50000   0.75000   0.95069   0.00000  Uiso   1.00
N1406  N     0.50000   0.75000   0.71598   0.00000  Uiso   1.00
N1407  N     0.75000   0.50000   0.95069   0.00000  Uiso   1.00
N1408  N     0.75000   0.50000   0.71598   0.00000  Uiso   1.00
O1409  O     0.54509   0.70491   0.87291   0.00000  Uiso   1.00
O1410  O     0.70492   0.54509   0.79375   0.00000  Uiso   1.00
O1411  O     0.70492   0.54509   0.87291   0.00000  Uiso   1.00
O1412  O     0.79509   0.95491   0.79375   0.00000  Uiso   1.00
O1413  O     0.70492   0.95491   0.79375   0.00000  Uiso   1.00
O1414  O     0.79509   0.54509   0.87291   0.00000  Uiso   1.00
O1415  O     0.79509   0.54509   0.79375   0.00000  Uiso   1.00
O1416  O     0.70492   0.95491   0.87291   0.00000  Uiso   1.00
O1417  O     0.86555   0.65462   0.71135   0.00000  Uiso   1.00
O1418  O     0.63445   0.84538   0.95531   0.00000  Uiso   1.00
O1419  O     0.65117   0.82601   0.72190   0.00000  Uiso   1.00
O1420  O     0.95492   0.79509   0.79375   0.00000  Uiso   1.00
O1421  O     0.84883   0.67399   0.94477   0.00000  Uiso   1.00
O1422  O     0.61919   0.71188   0.92146   0.00000  Uiso   1.00
O1423  O     0.88081   0.78812   0.74520   0.00000  Uiso   1.00
O1424  O     0.88571   0.79736   0.92823   0.00000  Uiso   1.00
O1425  O     0.61429   0.70263   0.73844   0.00000  Uiso   1.00
O1426  O     0.61555   0.90462   0.71135   0.00000  Uiso   1.00
O1427  O     0.88445   0.59538   0.95531   0.00000  Uiso   1.00
O1428  O     0.90117   0.57601   0.72190   0.00000  Uiso   1.00
O1429  O     0.59883   0.92399   0.94477   0.00000  Uiso   1.00
O1430  O     0.86919   0.96188   0.92146   0.00000  Uiso   1.00
O1431  O     0.95492   0.79509   0.87291   0.00000  Uiso   1.00
O1432  O     0.63081   0.53812   0.74520   0.00000  Uiso   1.00
O1433  O     0.63571   0.54736   0.92823   0.00000  Uiso   1.00
O1434  O     0.86429   0.95264   0.73844   0.00000  Uiso   1.00
O1435  O     0.54509   0.70491   0.79375   0.00000  Uiso   1.00
O1436  O     0.95492   0.70491   0.79375   0.00000  Uiso   1.00
O1437  O     0.54509   0.79509   0.87291   0.00000  Uiso   1.00
O1438  O     0.54509   0.79509   0.79375   0.00000  Uiso   1.00
O1439  O     0.95492   0.70491   0.87291   0.00000  Uiso   1.00
O1440  O     0.79509   0.95491   0.87291   0.00000  Uiso   1.00
loop_
_geom_bond_atom_site_label_1
_geom_bond_atom_site_label_2
_geom_bond_distance
_geom_bond_site_symmetry_2
_ccdc_geom_bond_type
C1     O89     1.301   .     A
C1     C30     1.481   .     S
C1     O115    1.299   .     A
C2     N85     1.372   .     A
C2     Cl58    1.763   .     S
C2     C483    1.416   .     S
C3     N86     1.373   .     A
C3     Cl59    1.764   .     S
C3     C962    1.416   1_554 S
C4     Cl60    1.764   .     S
C4     C536    1.416   .     S
C4     N205    1.373   .     S
C5     N328    1.372   .     A
C5     Cl61    1.763   .     S
C5     C968    1.416   1_554 S
C6     Cl62    1.763   .     S
C6     C487    1.416   .     S
C6     N87     1.372   .     S
C7     Cl63    1.764   .     S
C7     C966    1.416   1_554 S
C7     N88     1.373   .     S
C8     Cl64    1.764   .     S
C8     N327    1.373   .     A
C8     C485    1.416   .     S
C9     C36     1.498   .     S
C9     C20     1.404   .     A
C9     C28     1.415   .     A
C10    C27     1.415   .     A
C10    C37     1.498   .     S
C10    C21     1.404   .     A
C11    C18     1.404   .     A
C11    C38     1.496   .     S
C11    C27     1.412   .     A
C12    C29     1.481   .     S
C12    O100    1.301   .     A
C12    O111    1.299   .     A
C13    C28     1.412   .     A
C13    C39     1.496   .     S
C13    C19     1.404   .     A
C14    C30     1.418   .     A
C14    C25     1.400   .     A
C14    C40     1.490   .     S
C15    C29     1.418   .     A
C15    C41     1.490   .     S
C15    C26     1.400   .     A
C16    C29     1.420   .     A
C16    C22     1.400   .     A
C16    C42     1.489   .     S
C17    C30     1.420   .     A
C17    C24     1.400   .     A
C17    C43     1.489   .     S
C18    C44     1.498   .     S
C18    C32     1.415   .     A
C19    C31     1.415   .     A
C19    C46     1.498   .     S
C20    C47     1.496   .     S
C20    C31     1.412   .     A
C21    C48     1.496   .     S
C21    C32     1.412   .     A
C22    C35     1.418   .     A
C22    C49     1.490   .     S
C23    O119    1.302   .     A
C23    O116    1.298   .     A
C23    C28     1.475   .     S
C24    C50     1.490   .     S
C24    C33     1.418   .     A
C25    C51     1.489   .     S
C25    C33     1.420   .     A
C26    C52     1.489   .     S
C26    C35     1.420   .     A
C27    C34     1.475   .     S
C31    C55     1.475   .     S
C32    C54     1.475   .     S
C33    C53     1.481   .     S
C34    O118    1.302   .     A
C34    O117    1.298   .     A
C35    C45     1.481   .     S
C36    O97     1.221   .     D
C36    H69     1.080   .     S
C37    O98     1.221   .     D
C37    H77     1.080   .     S
C38    H78     1.079   .     S
C38    O99     1.221   .     D
C39    O101    1.221   .     D
C39    H79     1.079   .     S
C40    H80     1.085   .     S
C40    O102    1.221   .     D
C41    O103    1.221   .     D
C41    H81     1.085   .     S
C42    H82     1.085   .     S
C42    O104    1.220   .     D
C43    H83     1.085   .     S
C43    O105    1.220   .     D
C44    O106    1.221   .     D
C44    H84     1.080   .     S
C45    O92     1.299   .     A
C45    O120    1.301   .     A
C46    O107    1.221   .     D
C46    H70     1.080   .     S
C47    H71     1.079   .     S
C47    O108    1.221   .     D
C48    H72     1.079   .     S
C48    O109    1.221   .     D
C49    H73     1.085   .     S
C49    O110    1.221   .     D
C50    H74     1.085   .     S
C50    O112    1.221   .     D
C51    O113    1.220   .     D
C51    H75     1.085   .     S
C52    H76     1.085   .     S
C52    O114    1.220   .     D
C53    O91     1.299   .     A
C53    O90     1.301   .     A
C54    O93     1.298   .     A
C54    O96     1.302   .     A
C55    O94     1.298   .     A
C55    O95     1.302   .     A
C56    Cl57    1.763   .     S
C56    C964    1.416   1_554 S
C56    N206    1.372   .     S
Cu65   O89     1.978   .     S
Cu65   Cu66    2.684   .     S
Cu65   N85     2.017   .     S
Cu65   O117    1.959   .     S
Cu65   O231    1.980   1_455 S
Cu65   O239    1.955   1_455 S
Cu66   O115    1.980   .     S
Cu66   N86     2.017   .     S
Cu66   O118    1.955   .     S
Cu66   O220    1.978   1_455 S
Cu66   O236    1.959   1_455 S
Cu67   O360    1.978   1_545 S
Cu67   Cu68    2.684   .     S
Cu67   O336    1.955   1_545 S
Cu67   N87     2.017   .     S
Cu67   O91     1.980   .     S
Cu67   O94     1.959   .     S
Cu68   N88     2.017   .     S
Cu68   O333    1.959   1_545 S
Cu68   O332    1.980   1_545 S
Cu68   O90     1.978   .     S
Cu68   O95     1.955   .     S
N85    C124    1.373   1_455 S
N86    C176    1.372   1_455 S
N87    C248    1.373   1_545 A
N88    C245    1.372   1_545 A
O92    Cu308   1.980   .     S
O93    Cu308   1.959   .     S
O96    Cu307   1.955   .     S
O100   Cu186   1.978   .     S
O111   Cu185   1.980   .     S
O116   Cu186   1.959   .     S
O119   Cu185   1.955   .     S
O120   Cu307   1.978   .     S
C121   O209    1.301   .     A
C121   C150    1.481   .     S
C121   O235    1.299   .     A
C122   N205    1.372   .     A
C122   Cl178   1.763   .     S
C122   C603    1.416   .     S
C123   N206    1.373   .     A
C123   Cl179   1.764   .     S
C123   C1082   1.416   1_554 S
C124   Cl180   1.764   .     S
C124   C656    1.416   .     S
C124   N85     1.373   1_655 S
C125   N448    1.372   .     A
C125   Cl181   1.763   .     S
C125   C1088   1.416   1_554 S
C126   Cl182   1.763   .     S
C126   C607    1.416   .     S
C126   N207    1.372   .     S
C127   Cl183   1.764   .     S
C127   C1086   1.416   1_554 S
C127   N208    1.373   .     S
C128   Cl184   1.764   .     S
C128   N447    1.373   .     A
C128   C605    1.416   .     S
C129   C156    1.498   .     S
C129   C140    1.404   .     A
C129   C148    1.415   .     A
C130   C147    1.415   .     A
C130   C157    1.498   .     S
C130   C141    1.404   .     A
C131   C138    1.404   .     A
C131   C158    1.496   .     S
C131   C147    1.412   .     A
C132   C149    1.481   .     S
C132   O220    1.301   .     A
C132   O231    1.299   .     A
C133   C148    1.412   .     A
C133   C159    1.496   .     S
C133   C139    1.404   .     A
C134   C150    1.418   .     A
C134   C145    1.400   .     A
C134   C160    1.490   .     S
C135   C149    1.418   .     A
C135   C161    1.490   .     S
C135   C146    1.400   .     A
C136   C149    1.420   .     A
C136   C142    1.400   .     A
C136   C162    1.489   .     S
C137   C150    1.420   .     A
C137   C144    1.400   .     A
C137   C163    1.489   .     S
C138   C164    1.498   .     S
C138   C152    1.415   .     A
C139   C151    1.415   .     A
C139   C166    1.498   .     S
C140   C167    1.496   .     S
C140   C151    1.412   .     A
C141   C168    1.496   .     S
C141   C152    1.412   .     A
C142   C155    1.418   .     A
C142   C169    1.490   .     S
C143   O239    1.302   .     A
C143   O236    1.298   .     A
C143   C148    1.475   .     S
C144   C170    1.490   .     S
C144   C153    1.418   .     A
C145   C171    1.489   .     S
C145   C153    1.420   .     A
C146   C172    1.489   .     S
C146   C155    1.420   .     A
C147   C154    1.475   .     S
C151   C175    1.475   .     S
C152   C174    1.475   .     S
C153   C173    1.481   .     S
C154   O238    1.302   .     A
C154   O237    1.298   .     A
C155   C165    1.481   .     S
C156   O217    1.221   .     D
C156   H189    1.080   .     S
C157   O218    1.221   .     D
C157   H197    1.080   .     S
C158   H198    1.079   .     S
C158   O219    1.221   .     D
C159   O221    1.221   .     D
C159   H199    1.079   .     S
C160   H200    1.085   .     S
C160   O222    1.221   .     D
C161   O223    1.221   .     D
C161   H201    1.085   .     S
C162   H202    1.085   .     S
C162   O224    1.220   .     D
C163   H203    1.085   .     S
C163   O225    1.220   .     D
C164   O226    1.221   .     D
C164   H204    1.080   .     S
C165   O212    1.299   .     A
C165   O240    1.301   .     A
C166   O227    1.221   .     D
C166   H190    1.080   .     S
C167   H191    1.079   .     S
C167   O228    1.221   .     D
C168   H192    1.079   .     S
C168   O229    1.221   .     D
C169   H193    1.085   .     S
C169   O230    1.221   .     D
C170   H194    1.085   .     S
C170   O232    1.221   .     D
C171   O233    1.220   .     D
C171   H195    1.085   .     S
C172   H196    1.085   .     S
C172   O234    1.220   .     D
C173   O211    1.299   .     A
C173   O210    1.301   .     A
C174   O213    1.298   .     A
C174   O216    1.302   .     A
C175   O214    1.298   .     A
C175   O215    1.302   .     A
C176   Cl177   1.763   .     S
C176   C1084   1.416   1_554 S
C176   N86     1.372   1_655 S
Cu185  O209    1.978   .     S
Cu185  Cu186   2.684   .     S
Cu185  N205    2.017   .     S
Cu185  O237    1.959   .     S
Cu186  O235    1.980   .     S
Cu186  N206    2.017   .     S
Cu186  O238    1.955   .     S
Cu187  O480    1.978   1_545 S
Cu187  Cu188   2.684   .     S
Cu187  O456    1.955   1_545 S
Cu187  N207    2.017   .     S
Cu187  O211    1.980   .     S
Cu187  O214    1.959   .     S
Cu188  N208    2.017   .     S
Cu188  O453    1.959   1_545 S
Cu188  O452    1.980   1_545 S
Cu188  O210    1.978   .     S
Cu188  O215    1.955   .     S
N207   C368    1.373   1_545 A
N208   C365    1.372   1_545 A
O212   Cu428   1.980   .     S
O213   Cu428   1.959   .     S
O216   Cu427   1.955   .     S
O220   Cu66    1.978   1_655 S
O231   Cu65    1.980   1_655 S
O236   Cu66    1.959   1_655 S
O239   Cu65    1.955   1_655 S
O240   Cu427   1.978   .     S
C241   O329    1.301   .     A
C241   C270    1.481   .     S
C241   O355    1.299   .     A
C242   N325    1.372   .     A
C242   Cl298   1.763   .     S
C242   C723    1.416   .     S
C243   N326    1.373   .     A
C243   Cl299   1.764   .     S
C243   C1202   1.416   1_554 S
C244   Cl300   1.764   .     S
C244   C776    1.416   .     S
C244   N445    1.373   .     S
C245   N88     1.372   1_565 A
C245   Cl301   1.763   .     S
C245   C1208   1.416   1_554 S
C246   Cl302   1.763   .     S
C246   C727    1.416   .     S
C246   N327    1.372   .     S
C247   Cl303   1.764   .     S
C247   C1206   1.416   1_554 S
C247   N328    1.373   .     S
C248   Cl304   1.764   .     S
C248   N87     1.373   1_565 A
C248   C725    1.416   .     S
C249   C276    1.498   .     S
C249   C260    1.404   .     A
C249   C268    1.415   .     A
C250   C267    1.415   .     A
C250   C277    1.498   .     S
C250   C261    1.404   .     A
C251   C258    1.404   .     A
C251   C278    1.496   .     S
C251   C267    1.412   .     A
C252   C269    1.481   .     S
C252   O340    1.301   .     A
C252   O351    1.299   .     A
C253   C268    1.412   .     A
C253   C279    1.496   .     S
C253   C259    1.404   .     A
C254   C270    1.418   .     A
C254   C265    1.400   .     A
C254   C280    1.490   .     S
C255   C269    1.418   .     A
C255   C281    1.490   .     S
C255   C266    1.400   .     A
C256   C269    1.420   .     A
C256   C262    1.400   .     A
C256   C282    1.489   .     S
C257   C270    1.420   .     A
C257   C264    1.400   .     A
C257   C283    1.489   .     S
C258   C284    1.498   .     S
C258   C272    1.415   .     A
C259   C271    1.415   .     A
C259   C286    1.498   .     S
C260   C287    1.496   .     S
C260   C271    1.412   .     A
C261   C288    1.496   .     S
C261   C272    1.412   .     A
C262   C275    1.418   .     A
C262   C289    1.490   .     S
C263   O359    1.302   .     A
C263   O356    1.298   .     A
C263   C268    1.475   .     S
C264   C290    1.490   .     S
C264   C273    1.418   .     A
C265   C291    1.489   .     S
C265   C273    1.420   .     A
C266   C292    1.489   .     S
C266   C275    1.420   .     A
C267   C274    1.475   .     S
C271   C295    1.475   .     S
C272   C294    1.475   .     S
C273   C293    1.481   .     S
C274   O358    1.302   .     A
C274   O357    1.298   .     A
C275   C285    1.481   .     S
C276   O337    1.221   .     D
C276   H309    1.080   .     S
C277   O338    1.221   .     D
C277   H317    1.080   .     S
C278   H318    1.079   .     S
C278   O339    1.221   .     D
C279   O341    1.221   .     D
C279   H319    1.079   .     S
C280   H320    1.085   .     S
C280   O342    1.221   .     D
C281   O343    1.221   .     D
C281   H321    1.085   .     S
C282   H322    1.085   .     S
C282   O344    1.220   .     D
C283   H323    1.085   .     S
C283   O345    1.220   .     D
C284   O346    1.221   .     D
C284   H324    1.080   .     S
C285   O332    1.299   .     A
C285   O360    1.301   .     A
C286   O347    1.221   .     D
C286   H310    1.080   .     S
C287   H311    1.079   .     S
C287   O348    1.221   .     D
C288   H312    1.079   .     S
C288   O349    1.221   .     D
C289   H313    1.085   .     S
C289   O350    1.221   .     D
C290   H314    1.085   .     S
C290   O352    1.221   .     D
C291   O353    1.220   .     D
C291   H315    1.085   .     S
C292   H316    1.085   .     S
C292   O354    1.220   .     D
C293   O331    1.299   .     A
C293   O330    1.301   .     A
C294   O333    1.298   .     A
C294   O336    1.302   .     A
C295   O334    1.298   .     A
C295   O335    1.302   .     A
C296   Cl297   1.763   .     S
C296   C1204   1.416   1_554 S
C296   N446    1.372   .     S
Cu305  O329    1.978   .     S
Cu305  Cu306   2.684   .     S
Cu305  N325    2.017   .     S
Cu305  O357    1.959   .     S
Cu305  O471    1.980   1_455 S
Cu305  O479    1.955   1_455 S
Cu306  O355    1.980   .     S
Cu306  N326    2.017   .     S
Cu306  O358    1.955   .     S
Cu306  O460    1.978   1_455 S
Cu306  O476    1.959   1_455 S
Cu307  Cu308   2.684   .     S
Cu307  N327    2.017   .     S
Cu307  O331    1.980   .     S
Cu307  O334    1.959   .     S
Cu308  N328    2.017   .     S
Cu308  O330    1.978   .     S
Cu308  O335    1.955   .     S
N325   C364    1.373   1_455 S
N326   C416    1.372   1_455 S
O332   Cu68    1.980   1_565 S
O333   Cu68    1.959   1_565 S
O336   Cu67    1.955   1_565 S
O340   Cu426   1.978   .     S
O351   Cu425   1.980   .     S
O356   Cu426   1.959   .     S
O359   Cu425   1.955   .     S
O360   Cu67    1.978   1_565 S
C361   O449    1.301   .     A
C361   C390    1.481   .     S
C361   O475    1.299   .     A
C362   N445    1.372   .     A
C362   Cl418   1.763   .     S
C362   C843    1.416   .     S
C363   N446    1.373   .     A
C363   Cl419   1.764   .     S
C363   C1322   1.416   1_554 S
C364   Cl420   1.764   .     S
C364   C896    1.416   .     S
C364   N325    1.373   1_655 S
C365   N208    1.372   1_565 A
C365   Cl421   1.763   .     S
C365   C1328   1.416   1_554 S
C366   Cl422   1.763   .     S
C366   C847    1.416   .     S
C366   N447    1.372   .     S
C367   Cl423   1.764   .     S
C367   C1326   1.416   1_554 S
C367   N448    1.373   .     S
C368   Cl424   1.764   .     S
C368   N207    1.373   1_565 A
C368   C845    1.416   .     S
C369   C396    1.498   .     S
C369   C380    1.404   .     A
C369   C388    1.415   .     A
C370   C387    1.415   .     A
C370   C397    1.498   .     S
C370   C381    1.404   .     A
C371   C378    1.404   .     A
C371   C398    1.496   .     S
C371   C387    1.412   .     A
C372   C389    1.481   .     S
C372   O460    1.301   .     A
C372   O471    1.299   .     A
C373   C388    1.412   .     A
C373   C399    1.496   .     S
C373   C379    1.404   .     A
C374   C390    1.418   .     A
C374   C385    1.400   .     A
C374   C400    1.490   .     S
C375   C389    1.418   .     A
C375   C401    1.490   .     S
C375   C386    1.400   .     A
C376   C389    1.420   .     A
C376   C382    1.400   .     A
C376   C402    1.489   .     S
C377   C390    1.420   .     A
C377   C384    1.400   .     A
C377   C403    1.489   .     S
C378   C404    1.498   .     S
C378   C392    1.415   .     A
C379   C391    1.415   .     A
C379   C406    1.498   .     S
C380   C407    1.496   .     S
C380   C391    1.412   .     A
C381   C408    1.496   .     S
C381   C392    1.412   .     A
C382   C395    1.418   .     A
C382   C409    1.490   .     S
C383   O479    1.302   .     A
C383   O476    1.298   .     A
C383   C388    1.475   .     S
C384   C410    1.490   .     S
C384   C393    1.418   .     A
C385   C411    1.489   .     S
C385   C393    1.420   .     A
C386   C412    1.489   .     S
C386   C395    1.420   .     A
C387   C394    1.475   .     S
C391   C415    1.475   .     S
C392   C414    1.475   .     S
C393   C413    1.481   .     S
C394   O478    1.302   .     A
C394   O477    1.298   .     A
C395   C405    1.481   .     S
C396   O457    1.221   .     D
C396   H429    1.080   .     S
C397   O458    1.221   .     D
C397   H437    1.080   .     S
C398   H438    1.079   .     S
C398   O459    1.221   .     D
C399   O461    1.221   .     D
C399   H439    1.079   .     S
C400   H440    1.085   .     S
C400   O462    1.221   .     D
C401   O463    1.221   .     D
C401   H441    1.085   .     S
C402   H442    1.085   .     S
C402   O464    1.220   .     D
C403   H443    1.085   .     S
C403   O465    1.220   .     D
C404   O466    1.221   .     D
C404   H444    1.080   .     S
C405   O452    1.299   .     A
C405   O480    1.301   .     A
C406   O467    1.221   .     D
C406   H430    1.080   .     S
C407   H431    1.079   .     S
C407   O468    1.221   .     D
C408   H432    1.079   .     S
C408   O469    1.221   .     D
C409   H433    1.085   .     S
C409   O470    1.221   .     D
C410   H434    1.085   .     S
C410   O472    1.221   .     D
C411   O473    1.220   .     D
C411   H435    1.085   .     S
C412   H436    1.085   .     S
C412   O474    1.220   .     D
C413   O451    1.299   .     A
C413   O450    1.301   .     A
C414   O453    1.298   .     A
C414   O456    1.302   .     A
C415   O454    1.298   .     A
C415   O455    1.302   .     A
C416   Cl417   1.763   .     S
C416   C1324   1.416   1_554 S
C416   N326    1.372   1_655 S
Cu425  O449    1.978   .     S
Cu425  Cu426   2.684   .     S
Cu425  N445    2.017   .     S
Cu425  O477    1.959   .     S
Cu426  O475    1.980   .     S
Cu426  N446    2.017   .     S
Cu426  O478    1.955   .     S
Cu427  Cu428   2.684   .     S
Cu427  N447    2.017   .     S
Cu427  O451    1.980   .     S
Cu427  O454    1.959   .     S
Cu428  N448    2.017   .     S
Cu428  O450    1.978   .     S
Cu428  O455    1.955   .     S
O452   Cu188   1.980   1_565 S
O453   Cu188   1.959   1_565 S
O456   Cu187   1.955   1_565 S
O460   Cu306   1.978   1_655 S
O471   Cu305   1.980   1_655 S
O476   Cu306   1.959   1_655 S
O479   Cu305   1.955   1_655 S
O480   Cu187   1.978   1_565 S
C481   O569    1.301   .     A
C481   C510    1.481   .     S
C481   O595    1.299   .     A
C482   N565    1.372   .     A
C482   Cl538   1.763   .     S
C482   C963    1.416   .     S
C483   N566    1.373   .     A
C483   Cl539   1.764   .     S
C484   Cl540   1.764   .     S
C484   C1016   1.416   .     S
C484   N685    1.373   .     S
C485   N808    1.372   .     A
C485   Cl541   1.763   .     S
C486   Cl542   1.763   .     S
C486   C967    1.416   .     S
C486   N567    1.372   .     S
C487   Cl543   1.764   .     S
C487   N568    1.373   .     S
C488   Cl544   1.764   .     S
C488   N807    1.373   .     A
C488   C965    1.416   .     S
C489   C516    1.498   .     S
C489   C500    1.404   .     A
C489   C508    1.415   .     A
C490   C507    1.415   .     A
C490   C517    1.498   .     S
C490   C501    1.404   .     A
C491   C498    1.404   .     A
C491   C518    1.496   .     S
C491   C507    1.412   .     A
C492   C509    1.481   .     S
C492   O580    1.301   .     A
C492   O591    1.299   .     A
C493   C508    1.412   .     A
C493   C519    1.496   .     S
C493   C499    1.404   .     A
C494   C510    1.418   .     A
C494   C505    1.400   .     A
C494   C520    1.490   .     S
C495   C509    1.418   .     A
C495   C521    1.490   .     S
C495   C506    1.400   .     A
C496   C509    1.420   .     A
C496   C502    1.400   .     A
C496   C522    1.489   .     S
C497   C510    1.420   .     A
C497   C504    1.400   .     A
C497   C523    1.489   .     S
C498   C524    1.498   .     S
C498   C512    1.415   .     A
C499   C511    1.415   .     A
C499   C526    1.498   .     S
C500   C527    1.496   .     S
C500   C511    1.412   .     A
C501   C528    1.496   .     S
C501   C512    1.412   .     A
C502   C515    1.418   .     A
C502   C529    1.490   .     S
C503   O599    1.302   .     A
C503   O596    1.298   .     A
C503   C508    1.475   .     S
C504   C530    1.490   .     S
C504   C513    1.418   .     A
C505   C531    1.489   .     S
C505   C513    1.420   .     A
C506   C532    1.489   .     S
C506   C515    1.420   .     A
C507   C514    1.475   .     S
C511   C535    1.475   .     S
C512   C534    1.475   .     S
C513   C533    1.481   .     S
C514   O598    1.302   .     A
C514   O597    1.298   .     A
C515   C525    1.481   .     S
C516   O577    1.221   .     D
C516   H549    1.080   .     S
C517   O578    1.221   .     D
C517   H557    1.080   .     S
C518   H558    1.079   .     S
C518   O579    1.221   .     D
C519   O581    1.221   .     D
C519   H559    1.079   .     S
C520   H560    1.085   .     S
C520   O582    1.221   .     D
C521   O583    1.221   .     D
C521   H561    1.085   .     S
C522   H562    1.085   .     S
C522   O584    1.220   .     D
C523   H563    1.085   .     S
C523   O585    1.220   .     D
C524   O586    1.221   .     D
C524   H564    1.080   .     S
C525   O572    1.299   .     A
C525   O600    1.301   .     A
C526   O587    1.221   .     D
C526   H550    1.080   .     S
C527   H551    1.079   .     S
C527   O588    1.221   .     D
C528   H552    1.079   .     S
C528   O589    1.221   .     D
C529   H553    1.085   .     S
C529   O590    1.221   .     D
C530   H554    1.085   .     S
C530   O592    1.221   .     D
C531   O593    1.220   .     D
C531   H555    1.085   .     S
C532   H556    1.085   .     S
C532   O594    1.220   .     D
C533   O571    1.299   .     A
C533   O570    1.301   .     A
C534   O573    1.298   .     A
C534   O576    1.302   .     A
C535   O574    1.298   .     A
C535   O575    1.302   .     A
C536   Cl537   1.763   .     S
C536   N686    1.372   .     S
Cu545  O569    1.978   .     S
Cu545  Cu546   2.684   .     S
Cu545  N565    2.017   .     S
Cu545  O597    1.959   .     S
Cu545  O711    1.980   1_455 S
Cu545  O719    1.955   1_455 S
Cu546  O595    1.980   .     S
Cu546  N566    2.017   .     S
Cu546  O598    1.955   .     S
Cu546  O700    1.978   1_455 S
Cu546  O716    1.959   1_455 S
Cu547  O840    1.978   1_545 S
Cu547  Cu548   2.684   .     S
Cu547  O816    1.955   1_545 S
Cu547  N567    2.017   .     S
Cu547  O571    1.980   .     S
Cu547  O574    1.959   .     S
Cu548  N568    2.017   .     S
Cu548  O813    1.959   1_545 S
Cu548  O812    1.980   1_545 S
Cu548  O570    1.978   .     S
Cu548  O575    1.955   .     S
N565   C604    1.373   1_455 S
N566   C656    1.372   1_455 S
N567   C728    1.373   1_545 A
N568   C725    1.372   1_545 A
O572   Cu788   1.980   .     S
O573   Cu788   1.959   .     S
O576   Cu787   1.955   .     S
O580   Cu666   1.978   .     S
O591   Cu665   1.980   .     S
O596   Cu666   1.959   .     S
O599   Cu665   1.955   .     S
O600   Cu787   1.978   .     S
C601   O689    1.301   .     A
C601   C630    1.481   .     S
C601   O715    1.299   .     A
C602   N685    1.372   .     A
C602   Cl658   1.763   .     S
C602   C1083   1.416   .     S
C603   N686    1.373   .     A
C603   Cl659   1.764   .     S
C604   Cl660   1.764   .     S
C604   C1136   1.416   .     S
C604   N565    1.373   1_655 S
C605   N928    1.372   .     A
C605   Cl661   1.763   .     S
C606   Cl662   1.763   .     S
C606   C1087   1.416   .     S
C606   N687    1.372   .     S
C607   Cl663   1.764   .     S
C607   N688    1.373   .     S
C608   Cl664   1.764   .     S
C608   N927    1.373   .     A
C608   C1085   1.416   .     S
C609   C636    1.498   .     S
C609   C620    1.404   .     A
C609   C628    1.415   .     A
C610   C627    1.415   .     A
C610   C637    1.498   .     S
C610   C621    1.404   .     A
C611   C618    1.404   .     A
C611   C638    1.496   .     S
C611   C627    1.412   .     A
C612   C629    1.481   .     S
C612   O700    1.301   .     A
C612   O711    1.299   .     A
C613   C628    1.412   .     A
C613   C639    1.496   .     S
C613   C619    1.404   .     A
C614   C630    1.418   .     A
C614   C625    1.400   .     A
C614   C640    1.490   .     S
C615   C629    1.418   .     A
C615   C641    1.490   .     S
C615   C626    1.400   .     A
C616   C629    1.420   .     A
C616   C622    1.400   .     A
C616   C642    1.489   .     S
C617   C630    1.420   .     A
C617   C624    1.400   .     A
C617   C643    1.489   .     S
C618   C644    1.498   .     S
C618   C632    1.415   .     A
C619   C631    1.415   .     A
C619   C646    1.498   .     S
C620   C647    1.496   .     S
C620   C631    1.412   .     A
C621   C648    1.496   .     S
C621   C632    1.412   .     A
C622   C635    1.418   .     A
C622   C649    1.490   .     S
C623   O719    1.302   .     A
C623   O716    1.298   .     A
C623   C628    1.475   .     S
C624   C650    1.490   .     S
C624   C633    1.418   .     A
C625   C651    1.489   .     S
C625   C633    1.420   .     A
C626   C652    1.489   .     S
C626   C635    1.420   .     A
C627   C634    1.475   .     S
C631   C655    1.475   .     S
C632   C654    1.475   .     S
C633   C653    1.481   .     S
C634   O718    1.302   .     A
C634   O717    1.298   .     A
C635   C645    1.481   .     S
C636   O697    1.221   .     D
C636   H669    1.080   .     S
C637   O698    1.221   .     D
C637   H677    1.080   .     S
C638   H678    1.079   .     S
C638   O699    1.221   .     D
C639   O701    1.221   .     D
C639   H679    1.079   .     S
C640   H680    1.085   .     S
C640   O702    1.221   .     D
C641   O703    1.221   .     D
C641   H681    1.085   .     S
C642   H682    1.085   .     S
C642   O704    1.220   .     D
C643   H683    1.085   .     S
C643   O705    1.220   .     D
C644   O706    1.221   .     D
C644   H684    1.080   .     S
C645   O692    1.299   .     A
C645   O720    1.301   .     A
C646   O707    1.221   .     D
C646   H670    1.080   .     S
C647   H671    1.079   .     S
C647   O708    1.221   .     D
C648   H672    1.079   .     S
C648   O709    1.221   .     D
C649   H673    1.085   .     S
C649   O710    1.221   .     D
C650   H674    1.085   .     S
C650   O712    1.221   .     D
C651   O713    1.220   .     D
C651   H675    1.085   .     S
C652   H676    1.085   .     S
C652   O714    1.220   .     D
C653   O691    1.299   .     A
C653   O690    1.301   .     A
C654   O693    1.298   .     A
C654   O696    1.302   .     A
C655   O694    1.298   .     A
C655   O695    1.302   .     A
C656   Cl657   1.763   .     S
C656   N566    1.372   1_655 S
Cu665  O689    1.978   .     S
Cu665  Cu666   2.684   .     S
Cu665  N685    2.017   .     S
Cu665  O717    1.959   .     S
Cu666  O715    1.980   .     S
Cu666  N686    2.017   .     S
Cu666  O718    1.955   .     S
Cu667  O960    1.978   1_545 S
Cu667  Cu668   2.684   .     S
Cu667  O936    1.955   1_545 S
Cu667  N687    2.017   .     S
Cu667  O691    1.980   .     S
Cu667  O694    1.959   .     S
Cu668  N688    2.017   .     S
Cu668  O933    1.959   1_545 S
Cu668  O932    1.980   1_545 S
Cu668  O690    1.978   .     S
Cu668  O695    1.955   .     S
N687   C848    1.373   1_545 A
N688   C845    1.372   1_545 A
O692   Cu908   1.980   .     S
O693   Cu908   1.959   .     S
O696   Cu907   1.955   .     S
O700   Cu546   1.978   1_655 S
O711   Cu545   1.980   1_655 S
O716   Cu546   1.959   1_655 S
O719   Cu545   1.955   1_655 S
O720   Cu907   1.978   .     S
C721   O809    1.301   .     A
C721   C750    1.481   .     S
C721   O835    1.299   .     A
C722   N805    1.372   .     A
C722   Cl778   1.763   .     S
C722   C1203   1.416   .     S
C723   N806    1.373   .     A
C723   Cl779   1.764   .     S
C724   Cl780   1.764   .     S
C724   C1256   1.416   .     S
C724   N925    1.373   .     S
C725   N568    1.372   1_565 A
C725   Cl781   1.763   .     S
C726   Cl782   1.763   .     S
C726   C1207   1.416   .     S
C726   N807    1.372   .     S
C727   Cl783   1.764   .     S
C727   N808    1.373   .     S
C728   Cl784   1.764   .     S
C728   N567    1.373   1_565 A
C728   C1205   1.416   .     S
C729   C756    1.498   .     S
C729   C740    1.404   .     A
C729   C748    1.415   .     A
C730   C747    1.415   .     A
C730   C757    1.498   .     S
C730   C741    1.404   .     A
C731   C738    1.404   .     A
C731   C758    1.496   .     S
C731   C747    1.412   .     A
C732   C749    1.481   .     S
C732   O820    1.301   .     A
C732   O831    1.299   .     A
C733   C748    1.412   .     A
C733   C759    1.496   .     S
C733   C739    1.404   .     A
C734   C750    1.418   .     A
C734   C745    1.400   .     A
C734   C760    1.490   .     S
C735   C749    1.418   .     A
C735   C761    1.490   .     S
C735   C746    1.400   .     A
C736   C749    1.420   .     A
C736   C742    1.400   .     A
C736   C762    1.489   .     S
C737   C750    1.420   .     A
C737   C744    1.400   .     A
C737   C763    1.489   .     S
C738   C764    1.498   .     S
C738   C752    1.415   .     A
C739   C751    1.415   .     A
C739   C766    1.498   .     S
C740   C767    1.496   .     S
C740   C751    1.412   .     A
C741   C768    1.496   .     S
C741   C752    1.412   .     A
C742   C755    1.418   .     A
C742   C769    1.490   .     S
C743   O839    1.302   .     A
C743   O836    1.298   .     A
C743   C748    1.475   .     S
C744   C770    1.490   .     S
C744   C753    1.418   .     A
C745   C771    1.489   .     S
C745   C753    1.420   .     A
C746   C772    1.489   .     S
C746   C755    1.420   .     A
C747   C754    1.475   .     S
C751   C775    1.475   .     S
C752   C774    1.475   .     S
C753   C773    1.481   .     S
C754   O838    1.302   .     A
C754   O837    1.298   .     A
C755   C765    1.481   .     S
C756   O817    1.221   .     D
C756   H789    1.080   .     S
C757   O818    1.221   .     D
C757   H797    1.080   .     S
C758   H798    1.079   .     S
C758   O819    1.221   .     D
C759   O821    1.221   .     D
C759   H799    1.079   .     S
C760   H800    1.085   .     S
C760   O822    1.221   .     D
C761   O823    1.221   .     D
C761   H801    1.085   .     S
C762   H802    1.085   .     S
C762   O824    1.220   .     D
C763   H803    1.085   .     S
C763   O825    1.220   .     D
C764   O826    1.221   .     D
C764   H804    1.080   .     S
C765   O812    1.299   .     A
C765   O840    1.301   .     A
C766   O827    1.221   .     D
C766   H790    1.080   .     S
C767   H791    1.079   .     S
C767   O828    1.221   .     D
C768   H792    1.079   .     S
C768   O829    1.221   .     D
C769   H793    1.085   .     S
C769   O830    1.221   .     D
C770   H794    1.085   .     S
C770   O832    1.221   .     D
C771   O833    1.220   .     D
C771   H795    1.085   .     S
C772   H796    1.085   .     S
C772   O834    1.220   .     D
C773   O811    1.299   .     A
C773   O810    1.301   .     A
C774   O813    1.298   .     A
C774   O816    1.302   .     A
C775   O814    1.298   .     A
C775   O815    1.302   .     A
C776   Cl777   1.763   .     S
C776   N926    1.372   .     S
Cu785  O809    1.978   .     S
Cu785  Cu786   2.684   .     S
Cu785  N805    2.017   .     S
Cu785  O837    1.959   .     S
Cu785  O951    1.980   1_455 S
Cu785  O959    1.955   1_455 S
Cu786  O835    1.980   .     S
Cu786  N806    2.017   .     S
Cu786  O838    1.955   .     S
Cu786  O940    1.978   1_455 S
Cu786  O956    1.959   1_455 S
Cu787  Cu788   2.684   .     S
Cu787  N807    2.017   .     S
Cu787  O811    1.980   .     S
Cu787  O814    1.959   .     S
Cu788  N808    2.017   .     S
Cu788  O810    1.978   .     S
Cu788  O815    1.955   .     S
N805   C844    1.373   1_455 S
N806   C896    1.372   1_455 S
O812   Cu548   1.980   1_565 S
O813   Cu548   1.959   1_565 S
O816   Cu547   1.955   1_565 S
O820   Cu906   1.978   .     S
O831   Cu905   1.980   .     S
O836   Cu906   1.959   .     S
O839   Cu905   1.955   .     S
O840   Cu547   1.978   1_565 S
C841   O929    1.301   .     A
C841   C870    1.481   .     S
C841   O955    1.299   .     A
C842   N925    1.372   .     A
C842   Cl898   1.763   .     S
C842   C1323   1.416   .     S
C843   N926    1.373   .     A
C843   Cl899   1.764   .     S
C844   Cl900   1.764   .     S
C844   C1376   1.416   .     S
C844   N805    1.373   1_655 S
C845   N688    1.372   1_565 A
C845   Cl901   1.763   .     S
C846   Cl902   1.763   .     S
C846   C1327   1.416   .     S
C846   N927    1.372   .     S
C847   Cl903   1.764   .     S
C847   N928    1.373   .     S
C848   Cl904   1.764   .     S
C848   N687    1.373   1_565 A
C848   C1325   1.416   .     S
C849   C876    1.498   .     S
C849   C860    1.404   .     A
C849   C868    1.415   .     A
C850   C867    1.415   .     A
C850   C877    1.498   .     S
C850   C861    1.404   .     A
C851   C858    1.404   .     A
C851   C878    1.496   .     S
C851   C867    1.412   .     A
C852   C869    1.481   .     S
C852   O940    1.301   .     A
C852   O951    1.299   .     A
C853   C868    1.412   .     A
C853   C879    1.496   .     S
C853   C859    1.404   .     A
C854   C870    1.418   .     A
C854   C865    1.400   .     A
C854   C880    1.490   .     S
C855   C869    1.418   .     A
C855   C881    1.490   .     S
C855   C866    1.400   .     A
C856   C869    1.420   .     A
C856   C862    1.400   .     A
C856   C882    1.489   .     S
C857   C870    1.420   .     A
C857   C864    1.400   .     A
C857   C883    1.489   .     S
C858   C884    1.498   .     S
C858   C872    1.415   .     A
C859   C871    1.415   .     A
C859   C886    1.498   .     S
C860   C887    1.496   .     S
C860   C871    1.412   .     A
C861   C888    1.496   .     S
C861   C872    1.412   .     A
C862   C875    1.418   .     A
C862   C889    1.490   .     S
C863   O959    1.302   .     A
C863   O956    1.298   .     A
C863   C868    1.475   .     S
C864   C890    1.490   .     S
C864   C873    1.418   .     A
C865   C891    1.489   .     S
C865   C873    1.420   .     A
C866   C892    1.489   .     S
C866   C875    1.420   .     A
C867   C874    1.475   .     S
C871   C895    1.475   .     S
C872   C894    1.475   .     S
C873   C893    1.481   .     S
C874   O958    1.302   .     A
C874   O957    1.298   .     A
C875   C885    1.481   .     S
C876   O937    1.221   .     D
C876   H909    1.080   .     S
C877   O938    1.221   .     D
C877   H917    1.080   .     S
C878   H918    1.079   .     S
C878   O939    1.221   .     D
C879   O941    1.221   .     D
C879   H919    1.079   .     S
C880   H920    1.085   .     S
C880   O942    1.221   .     D
C881   O943    1.221   .     D
C881   H921    1.085   .     S
C882   H922    1.085   .     S
C882   O944    1.220   .     D
C883   H923    1.085   .     S
C883   O945    1.220   .     D
C884   O946    1.221   .     D
C884   H924    1.080   .     S
C885   O932    1.299   .     A
C885   O960    1.301   .     A
C886   O947    1.221   .     D
C886   H910    1.080   .     S
C887   H911    1.079   .     S
C887   O948    1.221   .     D
C888   H912    1.079   .     S
C888   O949    1.221   .     D
C889   H913    1.085   .     S
C889   O950    1.221   .     D
C890   H914    1.085   .     S
C890   O952    1.221   .     D
C891   O953    1.220   .     D
C891   H915    1.085   .     S
C892   H916    1.085   .     S
C892   O954    1.220   .     D
C893   O931    1.299   .     A
C893   O930    1.301   .     A
C894   O933    1.298   .     A
C894   O936    1.302   .     A
C895   O934    1.298   .     A
C895   O935    1.302   .     A
C896   Cl897   1.763   .     S
C896   N806    1.372   1_655 S
Cu905  O929    1.978   .     S
Cu905  Cu906   2.684   .     S
Cu905  N925    2.017   .     S
Cu905  O957    1.959   .     S
Cu906  O955    1.980   .     S
Cu906  N926    2.017   .     S
Cu906  O958    1.955   .     S
Cu907  Cu908   2.684   .     S
Cu907  N927    2.017   .     S
Cu907  O931    1.980   .     S
Cu907  O934    1.959   .     S
Cu908  N928    2.017   .     S
Cu908  O930    1.978   .     S
Cu908  O935    1.955   .     S
O932   Cu668   1.980   1_565 S
O933   Cu668   1.959   1_565 S
O936   Cu667   1.955   1_565 S
O940   Cu786   1.978   1_655 S
O951   Cu785   1.980   1_655 S
O956   Cu786   1.959   1_655 S
O959   Cu785   1.955   1_655 S
O960   Cu667   1.978   1_565 S
C961   O1049   1.301   .     A
C961   C990    1.481   .     S
C961   O1075   1.299   .     A
C962   N1045   1.372   .     A
C962   Cl1018  1.763   .     S
C962   C3      1.416   1_556 S
C963   N1046   1.373   .     A
C963   Cl1019  1.764   .     S
C964   Cl1020  1.764   .     S
C964   C56     1.416   1_556 S
C964   N1165   1.373   .     S
C965   N1288   1.372   .     A
C965   Cl1021  1.763   .     S
C966   Cl1022  1.763   .     S
C966   C7      1.416   1_556 S
C966   N1047   1.372   .     S
C967   Cl1023  1.764   .     S
C967   N1048   1.373   .     S
C968   Cl1024  1.764   .     S
C968   N1287   1.373   .     A
C968   C5      1.416   1_556 S
C969   C996    1.498   .     S
C969   C980    1.404   .     A
C969   C988    1.415   .     A
C970   C987    1.415   .     A
C970   C997    1.498   .     S
C970   C981    1.404   .     A
C971   C978    1.404   .     A
C971   C998    1.496   .     S
C971   C987    1.412   .     A
C972   C989    1.481   .     S
C972   O1060   1.301   .     A
C972   O1071   1.299   .     A
C973   C988    1.412   .     A
C973   C999    1.496   .     S
C973   C979    1.404   .     A
C974   C990    1.418   .     A
C974   C985    1.400   .     A
C974   C1000   1.490   .     S
C975   C989    1.418   .     A
C975   C1001   1.490   .     S
C975   C986    1.400   .     A
C976   C989    1.420   .     A
C976   C982    1.400   .     A
C976   C1002   1.489   .     S
C977   C990    1.420   .     A
C977   C984    1.400   .     A
C977   C1003   1.489   .     S
C978   C1004   1.498   .     S
C978   C992    1.415   .     A
C979   C991    1.415   .     A
C979   C1006   1.498   .     S
C980   C1007   1.496   .     S
C980   C991    1.412   .     A
C981   C1008   1.496   .     S
C981   C992    1.412   .     A
C982   C995    1.418   .     A
C982   C1009   1.490   .     S
C983   O1079   1.302   .     A
C983   O1076   1.298   .     A
C983   C988    1.475   .     S
C984   C1010   1.490   .     S
C984   C993    1.418   .     A
C985   C1011   1.489   .     S
C985   C993    1.420   .     A
C986   C1012   1.489   .     S
C986   C995    1.420   .     A
C987   C994    1.475   .     S
C991   C1015   1.475   .     S
C992   C1014   1.475   .     S
C993   C1013   1.481   .     S
C994   O1078   1.302   .     A
C994   O1077   1.298   .     A
C995   C1005   1.481   .     S
C996   O1057   1.221   .     D
C996   H1029   1.080   .     S
C997   O1058   1.221   .     D
C997   H1037   1.080   .     S
C998   H1038   1.079   .     S
C998   O1059   1.221   .     D
C999   O1061   1.221   .     D
C999   H1039   1.079   .     S
C1000  H1040   1.085   .     S
C1000  O1062   1.221   .     D
C1001  O1063   1.221   .     D
C1001  H1041   1.085   .     S
C1002  H1042   1.085   .     S
C1002  O1064   1.220   .     D
C1003  H1043   1.085   .     S
C1003  O1065   1.220   .     D
C1004  O1066   1.221   .     D
C1004  H1044   1.080   .     S
C1005  O1052   1.299   .     A
C1005  O1080   1.301   .     A
C1006  O1067   1.221   .     D
C1006  H1030   1.080   .     S
C1007  H1031   1.079   .     S
C1007  O1068   1.221   .     D
C1008  H1032   1.079   .     S
C1008  O1069   1.221   .     D
C1009  H1033   1.085   .     S
C1009  O1070   1.221   .     D
C1010  H1034   1.085   .     S
C1010  O1072   1.221   .     D
C1011  O1073   1.220   .     D
C1011  H1035   1.085   .     S
C1012  H1036   1.085   .     S
C1012  O1074   1.220   .     D
C1013  O1051   1.299   .     A
C1013  O1050   1.301   .     A
C1014  O1053   1.298   .     A
C1014  O1056   1.302   .     A
C1015  O1054   1.298   .     A
C1015  O1055   1.302   .     A
C1016  Cl1017  1.763   .     S
C1016  N1166   1.372   .     S
Cu1025 O1049   1.978   .     S
Cu1025 Cu1026  2.684   .     S
Cu1025 N1045   2.017   .     S
Cu1025 O1077   1.959   .     S
Cu1025 O1191   1.980   1_455 S
Cu1025 O1199   1.955   1_455 S
Cu1026 O1075   1.980   .     S
Cu1026 N1046   2.017   .     S
Cu1026 O1078   1.955   .     S
Cu1026 O1180   1.978   1_455 S
Cu1026 O1196   1.959   1_455 S
Cu1027 O1320   1.978   1_545 S
Cu1027 Cu1028  2.684   .     S
Cu1027 O1296   1.955   1_545 S
Cu1027 N1047   2.017   .     S
Cu1027 O1051   1.980   .     S
Cu1027 O1054   1.959   .     S
Cu1028 N1048   2.017   .     S
Cu1028 O1293   1.959   1_545 S
Cu1028 O1292   1.980   1_545 S
Cu1028 O1050   1.978   .     S
Cu1028 O1055   1.955   .     S
N1045  C1084   1.373   1_455 S
N1046  C1136   1.372   1_455 S
N1047  C1208   1.373   1_545 A
N1048  C1205   1.372   1_545 A
O1052  Cu1268  1.980   .     S
O1053  Cu1268  1.959   .     S
O1056  Cu1267  1.955   .     S
O1060  Cu1146  1.978   .     S
O1071  Cu1145  1.980   .     S
O1076  Cu1146  1.959   .     S
O1079  Cu1145  1.955   .     S
O1080  Cu1267  1.978   .     S
C1081  O1169   1.301   .     A
C1081  C1110   1.481   .     S
C1081  O1195   1.299   .     A
C1082  N1165   1.372   .     A
C1082  Cl1138  1.763   .     S
C1082  C123    1.416   1_556 S
C1083  N1166   1.373   .     A
C1083  Cl1139  1.764   .     S
C1084  Cl1140  1.764   .     S
C1084  C176    1.416   1_556 S
C1084  N1045   1.373   1_655 S
C1085  N1408   1.372   .     A
C1085  Cl1141  1.763   .     S
C1086  Cl1142  1.763   .     S
C1086  C127    1.416   1_556 S
C1086  N1167   1.372   .     S
C1087  Cl1143  1.764   .     S
C1087  N1168   1.373   .     S
C1088  Cl1144  1.764   .     S
C1088  N1407   1.373   .     A
C1088  C125    1.416   1_556 S
C1089  C1116   1.498   .     S
C1089  C1100   1.404   .     A
C1089  C1108   1.415   .     A
C1090  C1107   1.415   .     A
C1090  C1117   1.498   .     S
C1090  C1101   1.404   .     A
C1091  C1098   1.404   .     A
C1091  C1118   1.496   .     S
C1091  C1107   1.412   .     A
C1092  C1109   1.481   .     S
C1092  O1180   1.301   .     A
C1092  O1191   1.299   .     A
C1093  C1108   1.412   .     A
C1093  C1119   1.496   .     S
C1093  C1099   1.404   .     A
C1094  C1110   1.418   .     A
C1094  C1105   1.400   .     A
C1094  C1120   1.490   .     S
C1095  C1109   1.418   .     A
C1095  C1121   1.490   .     S
C1095  C1106   1.400   .     A
C1096  C1109   1.420   .     A
C1096  C1102   1.400   .     A
C1096  C1122   1.489   .     S
C1097  C1110   1.420   .     A
C1097  C1104   1.400   .     A
C1097  C1123   1.489   .     S
C1098  C1124   1.498   .     S
C1098  C1112   1.415   .     A
C1099  C1111   1.415   .     A
C1099  C1126   1.498   .     S
C1100  C1127   1.496   .     S
C1100  C1111   1.412   .     A
C1101  C1128   1.496   .     S
C1101  C1112   1.412   .     A
C1102  C1115   1.418   .     A
C1102  C1129   1.490   .     S
C1103  O1199   1.302   .     A
C1103  O1196   1.298   .     A
C1103  C1108   1.475   .     S
C1104  C1130   1.490   .     S
C1104  C1113   1.418   .     A
C1105  C1131   1.489   .     S
C1105  C1113   1.420   .     A
C1106  C1132   1.489   .     S
C1106  C1115   1.420   .     A
C1107  C1114   1.475   .     S
C1111  C1135   1.475   .     S
C1112  C1134   1.475   .     S
C1113  C1133   1.481   .     S
C1114  O1198   1.302   .     A
C1114  O1197   1.298   .     A
C1115  C1125   1.481   .     S
C1116  O1177   1.221   .     D
C1116  H1149   1.080   .     S
C1117  O1178   1.221   .     D
C1117  H1157   1.080   .     S
C1118  H1158   1.079   .     S
C1118  O1179   1.221   .     D
C1119  O1181   1.221   .     D
C1119  H1159   1.079   .     S
C1120  H1160   1.085   .     S
C1120  O1182   1.221   .     D
C1121  O1183   1.221   .     D
C1121  H1161   1.085   .     S
C1122  H1162   1.085   .     S
C1122  O1184   1.220   .     D
C1123  H1163   1.085   .     S
C1123  O1185   1.220   .     D
C1124  O1186   1.221   .     D
C1124  H1164   1.080   .     S
C1125  O1172   1.299   .     A
C1125  O1200   1.301   .     A
C1126  O1187   1.221   .     D
C1126  H1150   1.080   .     S
C1127  H1151   1.079   .     S
C1127  O1188   1.221   .     D
C1128  H1152   1.079   .     S
C1128  O1189   1.221   .     D
C1129  H1153   1.085   .     S
C1129  O1190   1.221   .     D
C1130  H1154   1.085   .     S
C1130  O1192   1.221   .     D
C1131  O1193   1.220   .     D
C1131  H1155   1.085   .     S
C1132  H1156   1.085   .     S
C1132  O1194   1.220   .     D
C1133  O1171   1.299   .     A
C1133  O1170   1.301   .     A
C1134  O1173   1.298   .     A
C1134  O1176   1.302   .     A
C1135  O1174   1.298   .     A
C1135  O1175   1.302   .     A
C1136  Cl1137  1.763   .     S
C1136  N1046   1.372   1_655 S
Cu1145 O1169   1.978   .     S
Cu1145 Cu1146  2.684   .     S
Cu1145 N1165   2.017   .     S
Cu1145 O1197   1.959   .     S
Cu1146 O1195   1.980   .     S
Cu1146 N1166   2.017   .     S
Cu1146 O1198   1.955   .     S
Cu1147 O1440   1.978   1_545 S
Cu1147 Cu1148  2.684   .     S
Cu1147 O1416   1.955   1_545 S
Cu1147 N1167   2.017   .     S
Cu1147 O1171   1.980   .     S
Cu1147 O1174   1.959   .     S
Cu1148 N1168   2.017   .     S
Cu1148 O1413   1.959   1_545 S
Cu1148 O1412   1.980   1_545 S
Cu1148 O1170   1.978   .     S
Cu1148 O1175   1.955   .     S
N1167  C1328   1.373   1_545 A
N1168  C1325   1.372   1_545 A
O1172  Cu1388  1.980   .     S
O1173  Cu1388  1.959   .     S
O1176  Cu1387  1.955   .     S
O1180  Cu1026  1.978   1_655 S
O1191  Cu1025  1.980   1_655 S
O1196  Cu1026  1.959   1_655 S
O1199  Cu1025  1.955   1_655 S
O1200  Cu1387  1.978   .     S
C1201  O1289   1.301   .     A
C1201  C1230   1.481   .     S
C1201  O1315   1.299   .     A
C1202  N1285   1.372   .     A
C1202  Cl1258  1.763   .     S
C1202  C243    1.416   1_556 S
C1203  N1286   1.373   .     A
C1203  Cl1259  1.764   .     S
C1204  Cl1260  1.764   .     S
C1204  C296    1.416   1_556 S
C1204  N1405   1.373   .     S
C1205  N1048   1.372   1_565 A
C1205  Cl1261  1.763   .     S
C1206  Cl1262  1.763   .     S
C1206  C247    1.416   1_556 S
C1206  N1287   1.372   .     S
C1207  Cl1263  1.764   .     S
C1207  N1288   1.373   .     S
C1208  Cl1264  1.764   .     S
C1208  N1047   1.373   1_565 A
C1208  C245    1.416   1_556 S
C1209  C1236   1.498   .     S
C1209  C1220   1.404   .     A
C1209  C1228   1.415   .     A
C1210  C1227   1.415   .     A
C1210  C1237   1.498   .     S
C1210  C1221   1.404   .     A
C1211  C1218   1.404   .     A
C1211  C1238   1.496   .     S
C1211  C1227   1.412   .     A
C1212  C1229   1.481   .     S
C1212  O1300   1.301   .     A
C1212  O1311   1.299   .     A
C1213  C1228   1.412   .     A
C1213  C1239   1.496   .     S
C1213  C1219   1.404   .     A
C1214  C1230   1.418   .     A
C1214  C1225   1.400   .     A
C1214  C1240   1.490   .     S
C1215  C1229   1.418   .     A
C1215  C1241   1.490   .     S
C1215  C1226   1.400   .     A
C1216  C1229   1.420   .     A
C1216  C1222   1.400   .     A
C1216  C1242   1.489   .     S
C1217  C1230   1.420   .     A
C1217  C1224   1.400   .     A
C1217  C1243   1.489   .     S
C1218  C1244   1.498   .     S
C1218  C1232   1.415   .     A
C1219  C1231   1.415   .     A
C1219  C1246   1.498   .     S
C1220  C1247   1.496   .     S
C1220  C1231   1.412   .     A
C1221  C1248   1.496   .     S
C1221  C1232   1.412   .     A
C1222  C1235   1.418   .     A
C1222  C1249   1.490   .     S
C1223  O1319   1.302   .     A
C1223  O1316   1.298   .     A
C1223  C1228   1.475   .     S
C1224  C1250   1.490   .     S
C1224  C1233   1.418   .     A
C1225  C1251   1.489   .     S
C1225  C1233   1.420   .     A
C1226  C1252   1.489   .     S
C1226  C1235   1.420   .     A
C1227  C1234   1.475   .     S
C1231  C1255   1.475   .     S
C1232  C1254   1.475   .     S
C1233  C1253   1.481   .     S
C1234  O1318   1.302   .     A
C1234  O1317   1.298   .     A
C1235  C1245   1.481   .     S
C1236  O1297   1.221   .     D
C1236  H1269   1.080   .     S
C1237  O1298   1.221   .     D
C1237  H1277   1.080   .     S
C1238  H1278   1.079   .     S
C1238  O1299   1.221   .     D
C1239  O1301   1.221   .     D
C1239  H1279   1.079   .     S
C1240  H1280   1.085   .     S
C1240  O1302   1.221   .     D
C1241  O1303   1.221   .     D
C1241  H1281   1.085   .     S
C1242  H1282   1.085   .     S
C1242  O1304   1.220   .     D
C1243  H1283   1.085   .     S
C1243  O1305   1.220   .     D
C1244  O1306   1.221   .     D
C1244  H1284   1.080   .     S
C1245  O1292   1.299   .     A
C1245  O1320   1.301   .     A
C1246  O1307   1.221   .     D
C1246  H1270   1.080   .     S
C1247  H1271   1.079   .     S
C1247  O1308   1.221   .     D
C1248  H1272   1.079   .     S
C1248  O1309   1.221   .     D
C1249  H1273   1.085   .     S
C1249  O1310   1.221   .     D
C1250  H1274   1.085   .     S
C1250  O1312   1.221   .     D
C1251  O1313   1.220   .     D
C1251  H1275   1.085   .     S
C1252  H1276   1.085   .     S
C1252  O1314   1.220   .     D
C1253  O1291   1.299   .     A
C1253  O1290   1.301   .     A
C1254  O1293   1.298   .     A
C1254  O1296   1.302   .     A
C1255  O1294   1.298   .     A
C1255  O1295   1.302   .     A
C1256  Cl1257  1.763   .     S
C1256  N1406   1.372   .     S
Cu1265 O1289   1.978   .     S
Cu1265 Cu1266  2.684   .     S
Cu1265 N1285   2.017   .     S
Cu1265 O1317   1.959   .     S
Cu1265 O1431   1.980   1_455 S
Cu1265 O1439   1.955   1_455 S
Cu1266 O1315   1.980   .     S
Cu1266 N1286   2.017   .     S
Cu1266 O1318   1.955   .     S
Cu1266 O1420   1.978   1_455 S
Cu1266 O1436   1.959   1_455 S
Cu1267 Cu1268  2.684   .     S
Cu1267 N1287   2.017   .     S
Cu1267 O1291   1.980   .     S
Cu1267 O1294   1.959   .     S
Cu1268 N1288   2.017   .     S
Cu1268 O1290   1.978   .     S
Cu1268 O1295   1.955   .     S
N1285  C1324   1.373   1_455 S
N1286  C1376   1.372   1_455 S
O1292  Cu1028  1.980   1_565 S
O1293  Cu1028  1.959   1_565 S
O1296  Cu1027  1.955   1_565 S
O1300  Cu1386  1.978   .     S
O1311  Cu1385  1.980   .     S
O1316  Cu1386  1.959   .     S
O1319  Cu1385  1.955   .     S
O1320  Cu1027  1.978   1_565 S
C1321  O1409   1.301   .     A
C1321  C1350   1.481   .     S
C1321  O1435   1.299   .     A
C1322  N1405   1.372   .     A
C1322  Cl1378  1.763   .     S
C1322  C363    1.416   1_556 S
C1323  N1406   1.373   .     A
C1323  Cl1379  1.764   .     S
C1324  Cl1380  1.764   .     S
C1324  C416    1.416   1_556 S
C1324  N1285   1.373   1_655 S
C1325  N1168   1.372   1_565 A
C1325  Cl1381  1.763   .     S
C1326  Cl1382  1.763   .     S
C1326  C367    1.416   1_556 S
C1326  N1407   1.372   .     S
C1327  Cl1383  1.764   .     S
C1327  N1408   1.373   .     S
C1328  Cl1384  1.764   .     S
C1328  N1167   1.373   1_565 A
C1328  C365    1.416   1_556 S
C1329  C1356   1.498   .     S
C1329  C1340   1.404   .     A
C1329  C1348   1.415   .     A
C1330  C1347   1.415   .     A
C1330  C1357   1.498   .     S
C1330  C1341   1.404   .     A
C1331  C1338   1.404   .     A
C1331  C1358   1.496   .     S
C1331  C1347   1.412   .     A
C1332  C1349   1.481   .     S
C1332  O1420   1.301   .     A
C1332  O1431   1.299   .     A
C1333  C1348   1.412   .     A
C1333  C1359   1.496   .     S
C1333  C1339   1.404   .     A
C1334  C1350   1.418   .     A
C1334  C1345   1.400   .     A
C1334  C1360   1.490   .     S
C1335  C1349   1.418   .     A
C1335  C1361   1.490   .     S
C1335  C1346   1.400   .     A
C1336  C1349   1.420   .     A
C1336  C1342   1.400   .     A
C1336  C1362   1.489   .     S
C1337  C1350   1.420   .     A
C1337  C1344   1.400   .     A
C1337  C1363   1.489   .     S
C1338  C1364   1.498   .     S
C1338  C1352   1.415   .     A
C1339  C1351   1.415   .     A
C1339  C1366   1.498   .     S
C1340  C1367   1.496   .     S
C1340  C1351   1.412   .     A
C1341  C1368   1.496   .     S
C1341  C1352   1.412   .     A
C1342  C1355   1.418   .     A
C1342  C1369   1.490   .     S
C1343  O1439   1.302   .     A
C1343  O1436   1.298   .     A
C1343  C1348   1.475   .     S
C1344  C1370   1.490   .     S
C1344  C1353   1.418   .     A
C1345  C1371   1.489   .     S
C1345  C1353   1.420   .     A
C1346  C1372   1.489   .     S
C1346  C1355   1.420   .     A
C1347  C1354   1.475   .     S
C1351  C1375   1.475   .     S
C1352  C1374   1.475   .     S
C1353  C1373   1.481   .     S
C1354  O1438   1.302   .     A
C1354  O1437   1.298   .     A
C1355  C1365   1.481   .     S
C1356  O1417   1.221   .     D
C1356  H1389   1.080   .     S
C1357  O1418   1.221   .     D
C1357  H1397   1.080   .     S
C1358  H1398   1.079   .     S
C1358  O1419   1.221   .     D
C1359  O1421   1.221   .     D
C1359  H1399   1.079   .     S
C1360  H1400   1.085   .     S
C1360  O1422   1.221   .     D
C1361  O1423   1.221   .     D
C1361  H1401   1.085   .     S
C1362  H1402   1.085   .     S
C1362  O1424   1.220   .     D
C1363  H1403   1.085   .     S
C1363  O1425   1.220   .     D
C1364  O1426   1.221   .     D
C1364  H1404   1.080   .     S
C1365  O1412   1.299   .     A
C1365  O1440   1.301   .     A
C1366  O1427   1.221   .     D
C1366  H1390   1.080   .     S
C1367  H1391   1.079   .     S
C1367  O1428   1.221   .     D
C1368  H1392   1.079   .     S
C1368  O1429   1.221   .     D
C1369  H1393   1.085   .     S
C1369  O1430   1.221   .     D
C1370  H1394   1.085   .     S
C1370  O1432   1.221   .     D
C1371  O1433   1.220   .     D
C1371  H1395   1.085   .     S
C1372  H1396   1.085   .     S
C1372  O1434   1.220   .     D
C1373  O1411   1.299   .     A
C1373  O1410   1.301   .     A
C1374  O1413   1.298   .     A
C1374  O1416   1.302   .     A
C1375  O1414   1.298   .     A
C1375  O1415   1.302   .     A
C1376  Cl1377  1.763   .     S
C1376  N1286   1.372   1_655 S
Cu1385 O1409   1.978   .     S
Cu1385 Cu1386  2.684   .     S
Cu1385 N1405   2.017   .     S
Cu1385 O1437   1.959   .     S
Cu1386 O1435   1.980   .     S
Cu1386 N1406   2.017   .     S
Cu1386 O1438   1.955   .     S
Cu1387 Cu1388  2.684   .     S
Cu1387 N1407   2.017   .     S
Cu1387 O1411   1.980   .     S
Cu1387 O1414   1.959   .     S
Cu1388 N1408   2.017   .     S
Cu1388 O1410   1.978   .     S
Cu1388 O1415   1.955   .     S
O1412  Cu1148  1.980   1_565 S
O1413  Cu1148  1.959   1_565 S
O1416  Cu1147  1.955   1_565 S
O1420  Cu1266  1.978   1_655 S
O1431  Cu1265  1.980   1_655 S
O1436  Cu1266  1.959   1_655 S
O1439  Cu1265  1.955   1_655 S
O1440  Cu1147  1.978   1_565 S
