data_str_m3_o1_o5_pcu_sym.92
_audit_creation_date              2020-01-03
_audit_creation_method            'Materials Studio'
_symmetry_space_group_name_H-M    'P1'
_symmetry_Int_Tables_number       1
_symmetry_cell_setting            triclinic
loop_
_symmetry_equiv_pos_as_xyz
  x,y,z
_cell_length_a                    32.5003
_cell_length_b                    29.6522
_cell_length_c                    26.7234
_cell_angle_alpha                 90.1538
_cell_angle_beta                  91.0867
_cell_angle_gamma                 89.9516
loop_
_atom_site_label
_atom_site_type_symbol
_atom_site_fract_x
_atom_site_fract_y
_atom_site_fract_z
_atom_site_U_iso_or_equiv
_atom_site_adp_type
_atom_site_occupancy
C1     C     0.08678   0.16692   0.16985   0.00000  Uiso   1.00
C2     C     0.02104   0.20844   0.16377   0.00000  Uiso   1.00
C3     C     0.29115   0.16605   0.16449   0.00000  Uiso   1.00
C4     C     0.04255   0.16800   0.17406   0.00000  Uiso   1.00
C5     C     0.18807   0.02477   0.20272   0.00000  Uiso   1.00
C6     C     0.14576   0.30889   0.13002   0.00000  Uiso   1.00
C7     C     0.14531   0.02420   0.13037   0.00000  Uiso   1.00
C8     C     0.18827   0.30997   0.20279   0.00000  Uiso   1.00
C9     C     0.05185   0.05272   0.18337   0.00000  Uiso   1.00
C10    C     0.28460   0.25154   0.08755   0.00000  Uiso   1.00
C11    C     0.28551   0.05820   0.13879   0.00000  Uiso   1.00
C12    C     0.24672   0.16650   0.16510   0.00000  Uiso   1.00
C13    C     0.04887   0.26938   0.21378   0.00000  Uiso   1.00
C14    C     0.16663   0.16663   0.07292   0.00000  Uiso   1.00
C15    C     0.16676   0.16671   0.26042   0.00000  Uiso   1.00
C16    C     0.16669   0.16662   0.02180   0.00000  Uiso   1.00
C17    C     0.16674   0.16673   0.31153   0.00000  Uiso   1.00
C18    C     0.02164   0.12824   0.18607   0.00000  Uiso   1.00
C19    C     0.31214   0.20698   0.15617   0.00000  Uiso   1.00
C20    C     0.31268   0.12613   0.17812   0.00000  Uiso   1.00
H21    H     0.03211   0.08633   0.24734   0.00000  Uiso   1.00
H22    H     0.31523   0.04707   0.12332   0.00000  Uiso   1.00
H23    H     0.26906   0.07852   0.10985   0.00000  Uiso   1.00
H24    H     0.26671   0.02792   0.14682   0.00000  Uiso   1.00
H25    H     0.03234   0.27425   0.13789   0.00000  Uiso   1.00
H26    H     0.02009   0.28452   0.22805   0.00000  Uiso   1.00
H27    H     0.07324   0.29539   0.21228   0.00000  Uiso   1.00
H28    H     0.05976   0.24292   0.24031   0.00000  Uiso   1.00
H29    H     0.22463   0.02958   0.26155   0.00000  Uiso   1.00
H30    H     0.12726   0.30095   0.06137   0.00000  Uiso   1.00
H31    H     0.10048   0.03009   0.08156   0.00000  Uiso   1.00
H32    H     0.02820   0.02656   0.18958   0.00000  Uiso   1.00
H33    H     0.21835   0.25867   0.22772   0.00000  Uiso   1.00
H34    H     0.08206   0.03942   0.19627   0.00000  Uiso   1.00
H35    H     0.05325   0.06018   0.14276   0.00000  Uiso   1.00
H36    H     0.29925   0.27629   0.15891   0.00000  Uiso   1.00
H37    H     0.31469   0.25572   0.06909   0.00000  Uiso   1.00
H38    H     0.26527   0.28169   0.07963   0.00000  Uiso   1.00
H39    H     0.26856   0.22145   0.07182   0.00000  Uiso   1.00
H40    H     0.30135   0.06493   0.21453   0.00000  Uiso   1.00
N41    N     0.16667   0.28573   0.16667   0.00000  Uiso   1.00
N42    N     0.16667   0.04760   0.16667   0.00000  Uiso   1.00
N43    N     0.04267   0.09279   0.21193   0.00000  Uiso   1.00
N44    N     0.29059   0.24685   0.14104   0.00000  Uiso   1.00
N45    N     0.29184   0.08414   0.18441   0.00000  Uiso   1.00
N46    N     0.04175   0.25086   0.16417   0.00000  Uiso   1.00
O47    O     0.10559   0.20487   0.16666   0.00000  Uiso   1.00
O48    O     0.12575   0.28421   0.09328   0.00000  Uiso   1.00
O49    O     0.12308   0.04886   0.09553   0.00000  Uiso   1.00
O50    O     0.21074   0.28867   0.23990   0.00000  Uiso   1.00
O51    O     0.22774   0.12846   0.16667   0.00000  Uiso   1.00
O52    O     0.22774   0.20487   0.16667   0.00000  Uiso   1.00
O53    O     0.10559   0.12846   0.16666   0.00000  Uiso   1.00
O54    O     0.16667   0.20488   0.09511   0.00000  Uiso   1.00
O55    O     0.16666   0.12845   0.23822   0.00000  Uiso   1.00
O56    O     0.16666   0.20488   0.23822   0.00000  Uiso   1.00
O57    O     0.16667   0.12845   0.09511   0.00000  Uiso   1.00
O58    O     0.20989   0.04976   0.23787   0.00000  Uiso   1.00
Zn59   Zn    0.16667   0.21771   0.16667   0.00000  Uiso   1.00
Zn60   Zn    0.16667   0.11563   0.16667   0.00000  Uiso   1.00
C61    C     0.42011   0.16692   0.16985   0.00000  Uiso   1.00
C62    C     0.35438   0.20844   0.16377   0.00000  Uiso   1.00
C63    C     0.62449   0.16605   0.16449   0.00000  Uiso   1.00
C64    C     0.37588   0.16800   0.17406   0.00000  Uiso   1.00
C65    C     0.52140   0.02477   0.20272   0.00000  Uiso   1.00
C66    C     0.47909   0.30889   0.13002   0.00000  Uiso   1.00
C67    C     0.47864   0.02420   0.13037   0.00000  Uiso   1.00
C68    C     0.52161   0.30997   0.20279   0.00000  Uiso   1.00
C69    C     0.38518   0.05272   0.18337   0.00000  Uiso   1.00
C70    C     0.61793   0.25154   0.08755   0.00000  Uiso   1.00
C71    C     0.61884   0.05820   0.13879   0.00000  Uiso   1.00
C72    C     0.58005   0.16650   0.16510   0.00000  Uiso   1.00
C73    C     0.38220   0.26938   0.21378   0.00000  Uiso   1.00
C74    C     0.49996   0.16663   0.07292   0.00000  Uiso   1.00
C75    C     0.50009   0.16671   0.26042   0.00000  Uiso   1.00
C76    C     0.50003   0.16662   0.02180   0.00000  Uiso   1.00
C77    C     0.50007   0.16673   0.31153   0.00000  Uiso   1.00
C78    C     0.35498   0.12824   0.18607   0.00000  Uiso   1.00
C79    C     0.64547   0.20698   0.15617   0.00000  Uiso   1.00
C80    C     0.64601   0.12613   0.17812   0.00000  Uiso   1.00
H81    H     0.36544   0.08633   0.24734   0.00000  Uiso   1.00
H82    H     0.64856   0.04707   0.12332   0.00000  Uiso   1.00
H83    H     0.60239   0.07852   0.10985   0.00000  Uiso   1.00
H84    H     0.60004   0.02792   0.14682   0.00000  Uiso   1.00
H85    H     0.36567   0.27425   0.13789   0.00000  Uiso   1.00
H86    H     0.35342   0.28452   0.22805   0.00000  Uiso   1.00
H87    H     0.40657   0.29539   0.21228   0.00000  Uiso   1.00
H88    H     0.39310   0.24292   0.24031   0.00000  Uiso   1.00
H89    H     0.55797   0.02958   0.26155   0.00000  Uiso   1.00
H90    H     0.46059   0.30095   0.06137   0.00000  Uiso   1.00
H91    H     0.43382   0.03009   0.08156   0.00000  Uiso   1.00
H92    H     0.36153   0.02656   0.18958   0.00000  Uiso   1.00
H93    H     0.55168   0.25867   0.22772   0.00000  Uiso   1.00
H94    H     0.41539   0.03942   0.19627   0.00000  Uiso   1.00
H95    H     0.38659   0.06018   0.14276   0.00000  Uiso   1.00
H96    H     0.63259   0.27629   0.15891   0.00000  Uiso   1.00
H97    H     0.64802   0.25572   0.06909   0.00000  Uiso   1.00
H98    H     0.59860   0.28169   0.07963   0.00000  Uiso   1.00
H99    H     0.60189   0.22145   0.07182   0.00000  Uiso   1.00
H100   H     0.63468   0.06493   0.21453   0.00000  Uiso   1.00
N101   N     0.50000   0.28573   0.16667   0.00000  Uiso   1.00
N102   N     0.50000   0.04760   0.16667   0.00000  Uiso   1.00
N103   N     0.37601   0.09279   0.21193   0.00000  Uiso   1.00
N104   N     0.62392   0.24685   0.14104   0.00000  Uiso   1.00
N105   N     0.62518   0.08414   0.18441   0.00000  Uiso   1.00
N106   N     0.37509   0.25086   0.16417   0.00000  Uiso   1.00
O107   O     0.43892   0.20487   0.16666   0.00000  Uiso   1.00
O108   O     0.45908   0.28421   0.09328   0.00000  Uiso   1.00
O109   O     0.45642   0.04886   0.09553   0.00000  Uiso   1.00
O110   O     0.54407   0.28867   0.23990   0.00000  Uiso   1.00
O111   O     0.56108   0.12846   0.16667   0.00000  Uiso   1.00
O112   O     0.56108   0.20487   0.16667   0.00000  Uiso   1.00
O113   O     0.43892   0.12846   0.16666   0.00000  Uiso   1.00
O114   O     0.50000   0.20488   0.09511   0.00000  Uiso   1.00
O115   O     0.50000   0.12845   0.23822   0.00000  Uiso   1.00
O116   O     0.50000   0.20488   0.23822   0.00000  Uiso   1.00
O117   O     0.50000   0.12845   0.09511   0.00000  Uiso   1.00
O118   O     0.54323   0.04976   0.23787   0.00000  Uiso   1.00
Zn119  Zn    0.50000   0.21771   0.16667   0.00000  Uiso   1.00
Zn120  Zn    0.50000   0.11563   0.16667   0.00000  Uiso   1.00
C121   C     0.75345   0.16692   0.16985   0.00000  Uiso   1.00
C122   C     0.68771   0.20844   0.16377   0.00000  Uiso   1.00
C123   C     0.95782   0.16605   0.16449   0.00000  Uiso   1.00
C124   C     0.70922   0.16800   0.17406   0.00000  Uiso   1.00
C125   C     0.85473   0.02477   0.20272   0.00000  Uiso   1.00
C126   C     0.81242   0.30889   0.13002   0.00000  Uiso   1.00
C127   C     0.81198   0.02420   0.13037   0.00000  Uiso   1.00
C128   C     0.85494   0.30997   0.20279   0.00000  Uiso   1.00
C129   C     0.71851   0.05272   0.18337   0.00000  Uiso   1.00
C130   C     0.95126   0.25154   0.08755   0.00000  Uiso   1.00
C131   C     0.95217   0.05820   0.13879   0.00000  Uiso   1.00
C132   C     0.91339   0.16650   0.16510   0.00000  Uiso   1.00
C133   C     0.71553   0.26938   0.21378   0.00000  Uiso   1.00
C134   C     0.83330   0.16663   0.07292   0.00000  Uiso   1.00
C135   C     0.83342   0.16671   0.26042   0.00000  Uiso   1.00
C136   C     0.83336   0.16662   0.02180   0.00000  Uiso   1.00
C137   C     0.83340   0.16673   0.31153   0.00000  Uiso   1.00
C138   C     0.68831   0.12824   0.18607   0.00000  Uiso   1.00
C139   C     0.97880   0.20698   0.15617   0.00000  Uiso   1.00
C140   C     0.97934   0.12613   0.17812   0.00000  Uiso   1.00
H141   H     0.69878   0.08633   0.24734   0.00000  Uiso   1.00
H142   H     0.98190   0.04707   0.12332   0.00000  Uiso   1.00
H143   H     0.93573   0.07852   0.10985   0.00000  Uiso   1.00
H144   H     0.93338   0.02792   0.14682   0.00000  Uiso   1.00
H145   H     0.69900   0.27425   0.13789   0.00000  Uiso   1.00
H146   H     0.68675   0.28452   0.22805   0.00000  Uiso   1.00
H147   H     0.73990   0.29539   0.21228   0.00000  Uiso   1.00
H148   H     0.72643   0.24292   0.24031   0.00000  Uiso   1.00
H149   H     0.89130   0.02958   0.26155   0.00000  Uiso   1.00
H150   H     0.79393   0.30095   0.06137   0.00000  Uiso   1.00
H151   H     0.76715   0.03009   0.08156   0.00000  Uiso   1.00
H152   H     0.69487   0.02656   0.18958   0.00000  Uiso   1.00
H153   H     0.88502   0.25867   0.22772   0.00000  Uiso   1.00
H154   H     0.74872   0.03942   0.19627   0.00000  Uiso   1.00
H155   H     0.71992   0.06018   0.14276   0.00000  Uiso   1.00
H156   H     0.96592   0.27629   0.15891   0.00000  Uiso   1.00
H157   H     0.98136   0.25572   0.06909   0.00000  Uiso   1.00
H158   H     0.93194   0.28169   0.07963   0.00000  Uiso   1.00
H159   H     0.93522   0.22145   0.07182   0.00000  Uiso   1.00
H160   H     0.96802   0.06493   0.21453   0.00000  Uiso   1.00
N161   N     0.83333   0.28573   0.16667   0.00000  Uiso   1.00
N162   N     0.83333   0.04760   0.16667   0.00000  Uiso   1.00
N163   N     0.70934   0.09279   0.21193   0.00000  Uiso   1.00
N164   N     0.95726   0.24685   0.14104   0.00000  Uiso   1.00
N165   N     0.95851   0.08414   0.18441   0.00000  Uiso   1.00
N166   N     0.70842   0.25086   0.16417   0.00000  Uiso   1.00
O167   O     0.77226   0.20487   0.16666   0.00000  Uiso   1.00
O168   O     0.79241   0.28421   0.09328   0.00000  Uiso   1.00
O169   O     0.78975   0.04886   0.09553   0.00000  Uiso   1.00
O170   O     0.87740   0.28867   0.23990   0.00000  Uiso   1.00
O171   O     0.89441   0.12846   0.16667   0.00000  Uiso   1.00
O172   O     0.89441   0.20487   0.16667   0.00000  Uiso   1.00
O173   O     0.77226   0.12846   0.16666   0.00000  Uiso   1.00
O174   O     0.83334   0.20488   0.09511   0.00000  Uiso   1.00
O175   O     0.83333   0.12845   0.23822   0.00000  Uiso   1.00
O176   O     0.83333   0.20488   0.23822   0.00000  Uiso   1.00
O177   O     0.83334   0.12845   0.09511   0.00000  Uiso   1.00
O178   O     0.87656   0.04976   0.23787   0.00000  Uiso   1.00
Zn179  Zn    0.83333   0.21771   0.16667   0.00000  Uiso   1.00
Zn180  Zn    0.83333   0.11563   0.16667   0.00000  Uiso   1.00
C181   C     0.08678   0.50026   0.16985   0.00000  Uiso   1.00
C182   C     0.02104   0.54177   0.16377   0.00000  Uiso   1.00
C183   C     0.29115   0.49938   0.16449   0.00000  Uiso   1.00
C184   C     0.04255   0.50133   0.17406   0.00000  Uiso   1.00
C185   C     0.18807   0.35810   0.20272   0.00000  Uiso   1.00
C186   C     0.14576   0.64223   0.13002   0.00000  Uiso   1.00
C187   C     0.14531   0.35753   0.13037   0.00000  Uiso   1.00
C188   C     0.18827   0.64331   0.20279   0.00000  Uiso   1.00
C189   C     0.05185   0.38605   0.18337   0.00000  Uiso   1.00
C190   C     0.28460   0.58487   0.08755   0.00000  Uiso   1.00
C191   C     0.28551   0.39154   0.13879   0.00000  Uiso   1.00
C192   C     0.24672   0.49983   0.16510   0.00000  Uiso   1.00
C193   C     0.04887   0.60271   0.21378   0.00000  Uiso   1.00
C194   C     0.16663   0.49996   0.07292   0.00000  Uiso   1.00
C195   C     0.16676   0.50004   0.26042   0.00000  Uiso   1.00
C196   C     0.16669   0.49995   0.02180   0.00000  Uiso   1.00
C197   C     0.16674   0.50006   0.31153   0.00000  Uiso   1.00
C198   C     0.02164   0.46158   0.18607   0.00000  Uiso   1.00
C199   C     0.31214   0.54031   0.15617   0.00000  Uiso   1.00
C200   C     0.31268   0.45947   0.17812   0.00000  Uiso   1.00
H201   H     0.03211   0.41966   0.24734   0.00000  Uiso   1.00
H202   H     0.31523   0.38040   0.12332   0.00000  Uiso   1.00
H203   H     0.26906   0.41185   0.10985   0.00000  Uiso   1.00
H204   H     0.26671   0.36126   0.14682   0.00000  Uiso   1.00
H205   H     0.03234   0.60758   0.13789   0.00000  Uiso   1.00
H206   H     0.02009   0.61785   0.22805   0.00000  Uiso   1.00
H207   H     0.07324   0.62872   0.21228   0.00000  Uiso   1.00
H208   H     0.05976   0.57625   0.24031   0.00000  Uiso   1.00
H209   H     0.22463   0.36291   0.26155   0.00000  Uiso   1.00
H210   H     0.12726   0.63429   0.06137   0.00000  Uiso   1.00
H211   H     0.10048   0.36342   0.08156   0.00000  Uiso   1.00
H212   H     0.02820   0.35989   0.18958   0.00000  Uiso   1.00
H213   H     0.21835   0.59200   0.22772   0.00000  Uiso   1.00
H214   H     0.08206   0.37275   0.19627   0.00000  Uiso   1.00
H215   H     0.05325   0.39352   0.14276   0.00000  Uiso   1.00
H216   H     0.29925   0.60962   0.15891   0.00000  Uiso   1.00
H217   H     0.31469   0.58905   0.06909   0.00000  Uiso   1.00
H218   H     0.26527   0.61502   0.07963   0.00000  Uiso   1.00
H219   H     0.26856   0.55478   0.07182   0.00000  Uiso   1.00
H220   H     0.30135   0.39826   0.21453   0.00000  Uiso   1.00
N221   N     0.16667   0.61907   0.16667   0.00000  Uiso   1.00
N222   N     0.16667   0.38093   0.16667   0.00000  Uiso   1.00
N223   N     0.04267   0.42612   0.21193   0.00000  Uiso   1.00
N224   N     0.29059   0.58018   0.14104   0.00000  Uiso   1.00
N225   N     0.29184   0.41748   0.18441   0.00000  Uiso   1.00
N226   N     0.04175   0.58419   0.16417   0.00000  Uiso   1.00
O227   O     0.10559   0.53821   0.16666   0.00000  Uiso   1.00
O228   O     0.12575   0.61754   0.09328   0.00000  Uiso   1.00
O229   O     0.12308   0.38219   0.09553   0.00000  Uiso   1.00
O230   O     0.21074   0.62201   0.23990   0.00000  Uiso   1.00
O231   O     0.22774   0.46179   0.16667   0.00000  Uiso   1.00
O232   O     0.22774   0.53821   0.16667   0.00000  Uiso   1.00
O233   O     0.10559   0.46179   0.16666   0.00000  Uiso   1.00
O234   O     0.16667   0.53821   0.09511   0.00000  Uiso   1.00
O235   O     0.16666   0.46179   0.23822   0.00000  Uiso   1.00
O236   O     0.16666   0.53821   0.23822   0.00000  Uiso   1.00
O237   O     0.16667   0.46179   0.09511   0.00000  Uiso   1.00
O238   O     0.20989   0.38309   0.23787   0.00000  Uiso   1.00
Zn239  Zn    0.16667   0.55104   0.16667   0.00000  Uiso   1.00
Zn240  Zn    0.16667   0.44896   0.16667   0.00000  Uiso   1.00
C241   C     0.42011   0.50026   0.16985   0.00000  Uiso   1.00
C242   C     0.35438   0.54177   0.16377   0.00000  Uiso   1.00
C243   C     0.62449   0.49938   0.16449   0.00000  Uiso   1.00
C244   C     0.37588   0.50133   0.17406   0.00000  Uiso   1.00
C245   C     0.52140   0.35810   0.20272   0.00000  Uiso   1.00
C246   C     0.47909   0.64223   0.13002   0.00000  Uiso   1.00
C247   C     0.47864   0.35753   0.13037   0.00000  Uiso   1.00
C248   C     0.52161   0.64331   0.20279   0.00000  Uiso   1.00
C249   C     0.38518   0.38605   0.18337   0.00000  Uiso   1.00
C250   C     0.61793   0.58487   0.08755   0.00000  Uiso   1.00
C251   C     0.61884   0.39154   0.13879   0.00000  Uiso   1.00
C252   C     0.58005   0.49983   0.16510   0.00000  Uiso   1.00
C253   C     0.38220   0.60271   0.21378   0.00000  Uiso   1.00
C254   C     0.49996   0.49996   0.07292   0.00000  Uiso   1.00
C255   C     0.50009   0.50004   0.26042   0.00000  Uiso   1.00
C256   C     0.50003   0.49995   0.02180   0.00000  Uiso   1.00
C257   C     0.50007   0.50006   0.31153   0.00000  Uiso   1.00
C258   C     0.35498   0.46158   0.18607   0.00000  Uiso   1.00
C259   C     0.64547   0.54031   0.15617   0.00000  Uiso   1.00
C260   C     0.64601   0.45947   0.17812   0.00000  Uiso   1.00
H261   H     0.36544   0.41966   0.24734   0.00000  Uiso   1.00
H262   H     0.64856   0.38040   0.12332   0.00000  Uiso   1.00
H263   H     0.60239   0.41185   0.10985   0.00000  Uiso   1.00
H264   H     0.60004   0.36126   0.14682   0.00000  Uiso   1.00
H265   H     0.36567   0.60758   0.13789   0.00000  Uiso   1.00
H266   H     0.35342   0.61785   0.22805   0.00000  Uiso   1.00
H267   H     0.40657   0.62872   0.21228   0.00000  Uiso   1.00
H268   H     0.39310   0.57625   0.24031   0.00000  Uiso   1.00
H269   H     0.55797   0.36291   0.26155   0.00000  Uiso   1.00
H270   H     0.46059   0.63429   0.06137   0.00000  Uiso   1.00
H271   H     0.43382   0.36342   0.08156   0.00000  Uiso   1.00
H272   H     0.36153   0.35989   0.18958   0.00000  Uiso   1.00
H273   H     0.55168   0.59200   0.22772   0.00000  Uiso   1.00
H274   H     0.41539   0.37275   0.19627   0.00000  Uiso   1.00
H275   H     0.38659   0.39352   0.14276   0.00000  Uiso   1.00
H276   H     0.63259   0.60962   0.15891   0.00000  Uiso   1.00
H277   H     0.64802   0.58905   0.06909   0.00000  Uiso   1.00
H278   H     0.59860   0.61502   0.07963   0.00000  Uiso   1.00
H279   H     0.60189   0.55478   0.07182   0.00000  Uiso   1.00
H280   H     0.63468   0.39826   0.21453   0.00000  Uiso   1.00
N281   N     0.50000   0.61907   0.16667   0.00000  Uiso   1.00
N282   N     0.50000   0.38093   0.16667   0.00000  Uiso   1.00
N283   N     0.37601   0.42612   0.21193   0.00000  Uiso   1.00
N284   N     0.62392   0.58018   0.14104   0.00000  Uiso   1.00
N285   N     0.62518   0.41748   0.18441   0.00000  Uiso   1.00
N286   N     0.37509   0.58419   0.16417   0.00000  Uiso   1.00
O287   O     0.43892   0.53821   0.16666   0.00000  Uiso   1.00
O288   O     0.45908   0.61754   0.09328   0.00000  Uiso   1.00
O289   O     0.45642   0.38219   0.09553   0.00000  Uiso   1.00
O290   O     0.54407   0.62201   0.23990   0.00000  Uiso   1.00
O291   O     0.56108   0.46179   0.16667   0.00000  Uiso   1.00
O292   O     0.56108   0.53821   0.16667   0.00000  Uiso   1.00
O293   O     0.43892   0.46179   0.16666   0.00000  Uiso   1.00
O294   O     0.50000   0.53821   0.09511   0.00000  Uiso   1.00
O295   O     0.50000   0.46179   0.23822   0.00000  Uiso   1.00
O296   O     0.50000   0.53821   0.23822   0.00000  Uiso   1.00
O297   O     0.50000   0.46179   0.09511   0.00000  Uiso   1.00
O298   O     0.54323   0.38309   0.23787   0.00000  Uiso   1.00
Zn299  Zn    0.50000   0.55104   0.16667   0.00000  Uiso   1.00
Zn300  Zn    0.50000   0.44896   0.16667   0.00000  Uiso   1.00
C301   C     0.75345   0.50026   0.16985   0.00000  Uiso   1.00
C302   C     0.68771   0.54177   0.16377   0.00000  Uiso   1.00
C303   C     0.95782   0.49938   0.16449   0.00000  Uiso   1.00
C304   C     0.70922   0.50133   0.17406   0.00000  Uiso   1.00
C305   C     0.85473   0.35810   0.20272   0.00000  Uiso   1.00
C306   C     0.81242   0.64223   0.13002   0.00000  Uiso   1.00
C307   C     0.81198   0.35753   0.13037   0.00000  Uiso   1.00
C308   C     0.85494   0.64331   0.20279   0.00000  Uiso   1.00
C309   C     0.71851   0.38605   0.18337   0.00000  Uiso   1.00
C310   C     0.95126   0.58487   0.08755   0.00000  Uiso   1.00
C311   C     0.95217   0.39154   0.13879   0.00000  Uiso   1.00
C312   C     0.91339   0.49983   0.16510   0.00000  Uiso   1.00
C313   C     0.71553   0.60271   0.21378   0.00000  Uiso   1.00
C314   C     0.83330   0.49996   0.07292   0.00000  Uiso   1.00
C315   C     0.83342   0.50004   0.26042   0.00000  Uiso   1.00
C316   C     0.83336   0.49995   0.02180   0.00000  Uiso   1.00
C317   C     0.83340   0.50006   0.31153   0.00000  Uiso   1.00
C318   C     0.68831   0.46158   0.18607   0.00000  Uiso   1.00
C319   C     0.97880   0.54031   0.15617   0.00000  Uiso   1.00
C320   C     0.97934   0.45947   0.17812   0.00000  Uiso   1.00
H321   H     0.69878   0.41966   0.24734   0.00000  Uiso   1.00
H322   H     0.98190   0.38040   0.12332   0.00000  Uiso   1.00
H323   H     0.93573   0.41185   0.10985   0.00000  Uiso   1.00
H324   H     0.93338   0.36126   0.14682   0.00000  Uiso   1.00
H325   H     0.69900   0.60758   0.13789   0.00000  Uiso   1.00
H326   H     0.68675   0.61785   0.22805   0.00000  Uiso   1.00
H327   H     0.73990   0.62872   0.21228   0.00000  Uiso   1.00
H328   H     0.72643   0.57625   0.24031   0.00000  Uiso   1.00
H329   H     0.89130   0.36291   0.26155   0.00000  Uiso   1.00
H330   H     0.79393   0.63429   0.06137   0.00000  Uiso   1.00
H331   H     0.76715   0.36342   0.08156   0.00000  Uiso   1.00
H332   H     0.69487   0.35989   0.18958   0.00000  Uiso   1.00
H333   H     0.88502   0.59200   0.22772   0.00000  Uiso   1.00
H334   H     0.74872   0.37275   0.19627   0.00000  Uiso   1.00
H335   H     0.71992   0.39352   0.14276   0.00000  Uiso   1.00
H336   H     0.96592   0.60962   0.15891   0.00000  Uiso   1.00
H337   H     0.98136   0.58905   0.06909   0.00000  Uiso   1.00
H338   H     0.93194   0.61502   0.07963   0.00000  Uiso   1.00
H339   H     0.93522   0.55478   0.07182   0.00000  Uiso   1.00
H340   H     0.96802   0.39826   0.21453   0.00000  Uiso   1.00
N341   N     0.83333   0.61907   0.16667   0.00000  Uiso   1.00
N342   N     0.83333   0.38093   0.16667   0.00000  Uiso   1.00
N343   N     0.70934   0.42612   0.21193   0.00000  Uiso   1.00
N344   N     0.95726   0.58018   0.14104   0.00000  Uiso   1.00
N345   N     0.95851   0.41748   0.18441   0.00000  Uiso   1.00
N346   N     0.70842   0.58419   0.16417   0.00000  Uiso   1.00
O347   O     0.77226   0.53821   0.16666   0.00000  Uiso   1.00
O348   O     0.79241   0.61754   0.09328   0.00000  Uiso   1.00
O349   O     0.78975   0.38219   0.09553   0.00000  Uiso   1.00
O350   O     0.87740   0.62201   0.23990   0.00000  Uiso   1.00
O351   O     0.89441   0.46179   0.16667   0.00000  Uiso   1.00
O352   O     0.89441   0.53821   0.16667   0.00000  Uiso   1.00
O353   O     0.77226   0.46179   0.16666   0.00000  Uiso   1.00
O354   O     0.83334   0.53821   0.09511   0.00000  Uiso   1.00
O355   O     0.83333   0.46179   0.23822   0.00000  Uiso   1.00
O356   O     0.83333   0.53821   0.23822   0.00000  Uiso   1.00
O357   O     0.83334   0.46179   0.09511   0.00000  Uiso   1.00
O358   O     0.87656   0.38309   0.23787   0.00000  Uiso   1.00
Zn359  Zn    0.83333   0.55104   0.16667   0.00000  Uiso   1.00
Zn360  Zn    0.83333   0.44896   0.16667   0.00000  Uiso   1.00
C361   C     0.08678   0.83359   0.16985   0.00000  Uiso   1.00
C362   C     0.02104   0.87510   0.16377   0.00000  Uiso   1.00
C363   C     0.29115   0.83272   0.16449   0.00000  Uiso   1.00
C364   C     0.04255   0.83467   0.17406   0.00000  Uiso   1.00
C365   C     0.18807   0.69144   0.20272   0.00000  Uiso   1.00
C366   C     0.14576   0.97556   0.13002   0.00000  Uiso   1.00
C367   C     0.14531   0.69086   0.13037   0.00000  Uiso   1.00
C368   C     0.18827   0.97664   0.20279   0.00000  Uiso   1.00
C369   C     0.05185   0.71938   0.18337   0.00000  Uiso   1.00
C370   C     0.28460   0.91821   0.08755   0.00000  Uiso   1.00
C371   C     0.28551   0.72487   0.13879   0.00000  Uiso   1.00
C372   C     0.24672   0.83317   0.16510   0.00000  Uiso   1.00
C373   C     0.04887   0.93605   0.21378   0.00000  Uiso   1.00
C374   C     0.16663   0.83330   0.07292   0.00000  Uiso   1.00
C375   C     0.16676   0.83337   0.26042   0.00000  Uiso   1.00
C376   C     0.16669   0.83329   0.02180   0.00000  Uiso   1.00
C377   C     0.16674   0.83340   0.31153   0.00000  Uiso   1.00
C378   C     0.02164   0.79491   0.18607   0.00000  Uiso   1.00
C379   C     0.31214   0.87365   0.15617   0.00000  Uiso   1.00
C380   C     0.31268   0.79280   0.17812   0.00000  Uiso   1.00
H381   H     0.03211   0.75299   0.24734   0.00000  Uiso   1.00
H382   H     0.31523   0.71373   0.12332   0.00000  Uiso   1.00
H383   H     0.26906   0.74518   0.10985   0.00000  Uiso   1.00
H384   H     0.26671   0.69459   0.14682   0.00000  Uiso   1.00
H385   H     0.03234   0.94091   0.13789   0.00000  Uiso   1.00
H386   H     0.02009   0.95118   0.22805   0.00000  Uiso   1.00
H387   H     0.07324   0.96206   0.21228   0.00000  Uiso   1.00
H388   H     0.05976   0.90959   0.24031   0.00000  Uiso   1.00
H389   H     0.22463   0.69624   0.26155   0.00000  Uiso   1.00
H390   H     0.12726   0.96762   0.06137   0.00000  Uiso   1.00
H391   H     0.10048   0.69675   0.08156   0.00000  Uiso   1.00
H392   H     0.02820   0.69322   0.18958   0.00000  Uiso   1.00
H393   H     0.21835   0.92533   0.22772   0.00000  Uiso   1.00
H394   H     0.08206   0.70608   0.19627   0.00000  Uiso   1.00
H395   H     0.05325   0.72685   0.14276   0.00000  Uiso   1.00
H396   H     0.29925   0.94295   0.15891   0.00000  Uiso   1.00
H397   H     0.31469   0.92238   0.06909   0.00000  Uiso   1.00
H398   H     0.26527   0.94835   0.07963   0.00000  Uiso   1.00
H399   H     0.26856   0.88812   0.07182   0.00000  Uiso   1.00
H400   H     0.30135   0.73160   0.21453   0.00000  Uiso   1.00
N401   N     0.16667   0.95240   0.16667   0.00000  Uiso   1.00
N402   N     0.16667   0.71427   0.16667   0.00000  Uiso   1.00
N403   N     0.04267   0.75946   0.21193   0.00000  Uiso   1.00
N404   N     0.29059   0.91351   0.14104   0.00000  Uiso   1.00
N405   N     0.29184   0.75081   0.18441   0.00000  Uiso   1.00
N406   N     0.04175   0.91752   0.16417   0.00000  Uiso   1.00
O407   O     0.10559   0.87154   0.16666   0.00000  Uiso   1.00
O408   O     0.12575   0.95088   0.09328   0.00000  Uiso   1.00
O409   O     0.12308   0.71553   0.09553   0.00000  Uiso   1.00
O410   O     0.21074   0.95534   0.23990   0.00000  Uiso   1.00
O411   O     0.22774   0.79513   0.16667   0.00000  Uiso   1.00
O412   O     0.22774   0.87154   0.16667   0.00000  Uiso   1.00
O413   O     0.10559   0.79513   0.16666   0.00000  Uiso   1.00
O414   O     0.16667   0.87155   0.09511   0.00000  Uiso   1.00
O415   O     0.16666   0.79512   0.23822   0.00000  Uiso   1.00
O416   O     0.16666   0.87155   0.23822   0.00000  Uiso   1.00
O417   O     0.16667   0.79512   0.09511   0.00000  Uiso   1.00
O418   O     0.20989   0.71643   0.23787   0.00000  Uiso   1.00
Zn419  Zn    0.16667   0.88437   0.16667   0.00000  Uiso   1.00
Zn420  Zn    0.16667   0.78229   0.16667   0.00000  Uiso   1.00
C421   C     0.42011   0.83359   0.16985   0.00000  Uiso   1.00
C422   C     0.35438   0.87510   0.16377   0.00000  Uiso   1.00
C423   C     0.62449   0.83272   0.16449   0.00000  Uiso   1.00
C424   C     0.37588   0.83467   0.17406   0.00000  Uiso   1.00
C425   C     0.52140   0.69144   0.20272   0.00000  Uiso   1.00
C426   C     0.47909   0.97556   0.13002   0.00000  Uiso   1.00
C427   C     0.47864   0.69086   0.13037   0.00000  Uiso   1.00
C428   C     0.52161   0.97664   0.20279   0.00000  Uiso   1.00
C429   C     0.38518   0.71938   0.18337   0.00000  Uiso   1.00
C430   C     0.61793   0.91821   0.08755   0.00000  Uiso   1.00
C431   C     0.61884   0.72487   0.13879   0.00000  Uiso   1.00
C432   C     0.58005   0.83317   0.16510   0.00000  Uiso   1.00
C433   C     0.38220   0.93605   0.21378   0.00000  Uiso   1.00
C434   C     0.49996   0.83330   0.07292   0.00000  Uiso   1.00
C435   C     0.50009   0.83337   0.26042   0.00000  Uiso   1.00
C436   C     0.50003   0.83329   0.02180   0.00000  Uiso   1.00
C437   C     0.50007   0.83340   0.31153   0.00000  Uiso   1.00
C438   C     0.35498   0.79491   0.18607   0.00000  Uiso   1.00
C439   C     0.64547   0.87365   0.15617   0.00000  Uiso   1.00
C440   C     0.64601   0.79280   0.17812   0.00000  Uiso   1.00
H441   H     0.36544   0.75299   0.24734   0.00000  Uiso   1.00
H442   H     0.64856   0.71373   0.12332   0.00000  Uiso   1.00
H443   H     0.60239   0.74518   0.10985   0.00000  Uiso   1.00
H444   H     0.60004   0.69459   0.14682   0.00000  Uiso   1.00
H445   H     0.36567   0.94091   0.13789   0.00000  Uiso   1.00
H446   H     0.35342   0.95118   0.22805   0.00000  Uiso   1.00
H447   H     0.40657   0.96206   0.21228   0.00000  Uiso   1.00
H448   H     0.39310   0.90959   0.24031   0.00000  Uiso   1.00
H449   H     0.55797   0.69624   0.26155   0.00000  Uiso   1.00
H450   H     0.46059   0.96762   0.06137   0.00000  Uiso   1.00
H451   H     0.43382   0.69675   0.08156   0.00000  Uiso   1.00
H452   H     0.36153   0.69322   0.18958   0.00000  Uiso   1.00
H453   H     0.55168   0.92533   0.22772   0.00000  Uiso   1.00
H454   H     0.41539   0.70608   0.19627   0.00000  Uiso   1.00
H455   H     0.38659   0.72685   0.14276   0.00000  Uiso   1.00
H456   H     0.63259   0.94295   0.15891   0.00000  Uiso   1.00
H457   H     0.64802   0.92238   0.06909   0.00000  Uiso   1.00
H458   H     0.59860   0.94835   0.07963   0.00000  Uiso   1.00
H459   H     0.60189   0.88812   0.07182   0.00000  Uiso   1.00
H460   H     0.63468   0.73160   0.21453   0.00000  Uiso   1.00
N461   N     0.50000   0.95240   0.16667   0.00000  Uiso   1.00
N462   N     0.50000   0.71427   0.16667   0.00000  Uiso   1.00
N463   N     0.37601   0.75946   0.21193   0.00000  Uiso   1.00
N464   N     0.62392   0.91351   0.14104   0.00000  Uiso   1.00
N465   N     0.62518   0.75081   0.18441   0.00000  Uiso   1.00
N466   N     0.37509   0.91752   0.16417   0.00000  Uiso   1.00
O467   O     0.43892   0.87154   0.16666   0.00000  Uiso   1.00
O468   O     0.45908   0.95088   0.09328   0.00000  Uiso   1.00
O469   O     0.45642   0.71553   0.09553   0.00000  Uiso   1.00
O470   O     0.54407   0.95534   0.23990   0.00000  Uiso   1.00
O471   O     0.56108   0.79513   0.16667   0.00000  Uiso   1.00
O472   O     0.56108   0.87154   0.16667   0.00000  Uiso   1.00
O473   O     0.43892   0.79513   0.16666   0.00000  Uiso   1.00
O474   O     0.50000   0.87155   0.09511   0.00000  Uiso   1.00
O475   O     0.50000   0.79512   0.23822   0.00000  Uiso   1.00
O476   O     0.50000   0.87155   0.23822   0.00000  Uiso   1.00
O477   O     0.50000   0.79512   0.09511   0.00000  Uiso   1.00
O478   O     0.54323   0.71643   0.23787   0.00000  Uiso   1.00
Zn479  Zn    0.50000   0.88437   0.16667   0.00000  Uiso   1.00
Zn480  Zn    0.50000   0.78229   0.16667   0.00000  Uiso   1.00
C481   C     0.75345   0.83359   0.16985   0.00000  Uiso   1.00
C482   C     0.68771   0.87510   0.16377   0.00000  Uiso   1.00
C483   C     0.95782   0.83272   0.16449   0.00000  Uiso   1.00
C484   C     0.70922   0.83467   0.17406   0.00000  Uiso   1.00
C485   C     0.85473   0.69144   0.20272   0.00000  Uiso   1.00
C486   C     0.81242   0.97556   0.13002   0.00000  Uiso   1.00
C487   C     0.81198   0.69086   0.13037   0.00000  Uiso   1.00
C488   C     0.85494   0.97664   0.20279   0.00000  Uiso   1.00
C489   C     0.71851   0.71938   0.18337   0.00000  Uiso   1.00
C490   C     0.95126   0.91821   0.08755   0.00000  Uiso   1.00
C491   C     0.95217   0.72487   0.13879   0.00000  Uiso   1.00
C492   C     0.91339   0.83317   0.16510   0.00000  Uiso   1.00
C493   C     0.71553   0.93605   0.21378   0.00000  Uiso   1.00
C494   C     0.83330   0.83330   0.07292   0.00000  Uiso   1.00
C495   C     0.83342   0.83337   0.26042   0.00000  Uiso   1.00
C496   C     0.83336   0.83329   0.02180   0.00000  Uiso   1.00
C497   C     0.83340   0.83340   0.31153   0.00000  Uiso   1.00
C498   C     0.68831   0.79491   0.18607   0.00000  Uiso   1.00
C499   C     0.97880   0.87365   0.15617   0.00000  Uiso   1.00
C500   C     0.97934   0.79280   0.17812   0.00000  Uiso   1.00
H501   H     0.69878   0.75299   0.24734   0.00000  Uiso   1.00
H502   H     0.98190   0.71373   0.12332   0.00000  Uiso   1.00
H503   H     0.93573   0.74518   0.10985   0.00000  Uiso   1.00
H504   H     0.93338   0.69459   0.14682   0.00000  Uiso   1.00
H505   H     0.69900   0.94091   0.13789   0.00000  Uiso   1.00
H506   H     0.68675   0.95118   0.22805   0.00000  Uiso   1.00
H507   H     0.73990   0.96206   0.21228   0.00000  Uiso   1.00
H508   H     0.72643   0.90959   0.24031   0.00000  Uiso   1.00
H509   H     0.89130   0.69624   0.26155   0.00000  Uiso   1.00
H510   H     0.79393   0.96762   0.06137   0.00000  Uiso   1.00
H511   H     0.76715   0.69675   0.08156   0.00000  Uiso   1.00
H512   H     0.69487   0.69322   0.18958   0.00000  Uiso   1.00
H513   H     0.88502   0.92533   0.22772   0.00000  Uiso   1.00
H514   H     0.74872   0.70608   0.19627   0.00000  Uiso   1.00
H515   H     0.71992   0.72685   0.14276   0.00000  Uiso   1.00
H516   H     0.96592   0.94295   0.15891   0.00000  Uiso   1.00
H517   H     0.98136   0.92238   0.06909   0.00000  Uiso   1.00
H518   H     0.93194   0.94835   0.07963   0.00000  Uiso   1.00
H519   H     0.93522   0.88812   0.07182   0.00000  Uiso   1.00
H520   H     0.96802   0.73160   0.21453   0.00000  Uiso   1.00
N521   N     0.83333   0.95240   0.16667   0.00000  Uiso   1.00
N522   N     0.83333   0.71427   0.16667   0.00000  Uiso   1.00
N523   N     0.70934   0.75946   0.21193   0.00000  Uiso   1.00
N524   N     0.95726   0.91351   0.14104   0.00000  Uiso   1.00
N525   N     0.95851   0.75081   0.18441   0.00000  Uiso   1.00
N526   N     0.70842   0.91752   0.16417   0.00000  Uiso   1.00
O527   O     0.77226   0.87154   0.16666   0.00000  Uiso   1.00
O528   O     0.79241   0.95088   0.09328   0.00000  Uiso   1.00
O529   O     0.78975   0.71553   0.09553   0.00000  Uiso   1.00
O530   O     0.87740   0.95534   0.23990   0.00000  Uiso   1.00
O531   O     0.89441   0.79513   0.16667   0.00000  Uiso   1.00
O532   O     0.89441   0.87154   0.16667   0.00000  Uiso   1.00
O533   O     0.77226   0.79513   0.16666   0.00000  Uiso   1.00
O534   O     0.83334   0.87155   0.09511   0.00000  Uiso   1.00
O535   O     0.83333   0.79512   0.23822   0.00000  Uiso   1.00
O536   O     0.83333   0.87155   0.23822   0.00000  Uiso   1.00
O537   O     0.83334   0.79512   0.09511   0.00000  Uiso   1.00
O538   O     0.87656   0.71643   0.23787   0.00000  Uiso   1.00
Zn539  Zn    0.83333   0.88437   0.16667   0.00000  Uiso   1.00
Zn540  Zn    0.83333   0.78229   0.16667   0.00000  Uiso   1.00
C541   C     0.08678   0.16692   0.50318   0.00000  Uiso   1.00
C542   C     0.02104   0.20844   0.49710   0.00000  Uiso   1.00
C543   C     0.29115   0.16605   0.49783   0.00000  Uiso   1.00
C544   C     0.04255   0.16800   0.50739   0.00000  Uiso   1.00
C545   C     0.18807   0.02477   0.53606   0.00000  Uiso   1.00
C546   C     0.14576   0.30889   0.46336   0.00000  Uiso   1.00
C547   C     0.14531   0.02420   0.46370   0.00000  Uiso   1.00
C548   C     0.18827   0.30997   0.53612   0.00000  Uiso   1.00
C549   C     0.05185   0.05272   0.51670   0.00000  Uiso   1.00
C550   C     0.28460   0.25154   0.42088   0.00000  Uiso   1.00
C551   C     0.28551   0.05820   0.47212   0.00000  Uiso   1.00
C552   C     0.24672   0.16650   0.49843   0.00000  Uiso   1.00
C553   C     0.04887   0.26938   0.54712   0.00000  Uiso   1.00
C554   C     0.16663   0.16663   0.40625   0.00000  Uiso   1.00
C555   C     0.16676   0.16671   0.59375   0.00000  Uiso   1.00
C556   C     0.16669   0.16662   0.35514   0.00000  Uiso   1.00
C557   C     0.16674   0.16673   0.64487   0.00000  Uiso   1.00
C558   C     0.02164   0.12824   0.51941   0.00000  Uiso   1.00
C559   C     0.31214   0.20698   0.48951   0.00000  Uiso   1.00
C560   C     0.31268   0.12613   0.51146   0.00000  Uiso   1.00
H561   H     0.03211   0.08633   0.58067   0.00000  Uiso   1.00
H562   H     0.31523   0.04707   0.45666   0.00000  Uiso   1.00
H563   H     0.26906   0.07852   0.44318   0.00000  Uiso   1.00
H564   H     0.26671   0.02792   0.48015   0.00000  Uiso   1.00
H565   H     0.03234   0.27425   0.47123   0.00000  Uiso   1.00
H566   H     0.02009   0.28452   0.56139   0.00000  Uiso   1.00
H567   H     0.07324   0.29539   0.54561   0.00000  Uiso   1.00
H568   H     0.05976   0.24292   0.57364   0.00000  Uiso   1.00
H569   H     0.22463   0.02958   0.59488   0.00000  Uiso   1.00
H570   H     0.12726   0.30095   0.39470   0.00000  Uiso   1.00
H571   H     0.10048   0.03009   0.41490   0.00000  Uiso   1.00
H572   H     0.02820   0.02656   0.52292   0.00000  Uiso   1.00
H573   H     0.21835   0.25867   0.56105   0.00000  Uiso   1.00
H574   H     0.08206   0.03942   0.52961   0.00000  Uiso   1.00
H575   H     0.05325   0.06018   0.47609   0.00000  Uiso   1.00
H576   H     0.29925   0.27629   0.49224   0.00000  Uiso   1.00
H577   H     0.31469   0.25572   0.40242   0.00000  Uiso   1.00
H578   H     0.26527   0.28169   0.41297   0.00000  Uiso   1.00
H579   H     0.26856   0.22145   0.40515   0.00000  Uiso   1.00
H580   H     0.30135   0.06493   0.54787   0.00000  Uiso   1.00
N581   N     0.16667   0.28573   0.50000   0.00000  Uiso   1.00
N582   N     0.16667   0.04760   0.50000   0.00000  Uiso   1.00
N583   N     0.04267   0.09279   0.54526   0.00000  Uiso   1.00
N584   N     0.29059   0.24685   0.47437   0.00000  Uiso   1.00
N585   N     0.29184   0.08414   0.51774   0.00000  Uiso   1.00
N586   N     0.04175   0.25086   0.49750   0.00000  Uiso   1.00
O587   O     0.10559   0.20487   0.50000   0.00000  Uiso   1.00
O588   O     0.12575   0.28421   0.42661   0.00000  Uiso   1.00
O589   O     0.12308   0.04886   0.42886   0.00000  Uiso   1.00
O590   O     0.21074   0.28867   0.57323   0.00000  Uiso   1.00
O591   O     0.22774   0.12846   0.50000   0.00000  Uiso   1.00
O592   O     0.22774   0.20487   0.50000   0.00000  Uiso   1.00
O593   O     0.10559   0.12846   0.50000   0.00000  Uiso   1.00
O594   O     0.16667   0.20488   0.42845   0.00000  Uiso   1.00
O595   O     0.16666   0.12845   0.57155   0.00000  Uiso   1.00
O596   O     0.16666   0.20488   0.57155   0.00000  Uiso   1.00
O597   O     0.16667   0.12845   0.42845   0.00000  Uiso   1.00
O598   O     0.20989   0.04976   0.57120   0.00000  Uiso   1.00
Zn599  Zn    0.16667   0.21771   0.50000   0.00000  Uiso   1.00
Zn600  Zn    0.16667   0.11563   0.50000   0.00000  Uiso   1.00
C601   C     0.42011   0.16692   0.50318   0.00000  Uiso   1.00
C602   C     0.35438   0.20844   0.49710   0.00000  Uiso   1.00
C603   C     0.62449   0.16605   0.49783   0.00000  Uiso   1.00
C604   C     0.37588   0.16800   0.50739   0.00000  Uiso   1.00
C605   C     0.52140   0.02477   0.53606   0.00000  Uiso   1.00
C606   C     0.47909   0.30889   0.46336   0.00000  Uiso   1.00
C607   C     0.47864   0.02420   0.46370   0.00000  Uiso   1.00
C608   C     0.52161   0.30997   0.53612   0.00000  Uiso   1.00
C609   C     0.38518   0.05272   0.51670   0.00000  Uiso   1.00
C610   C     0.61793   0.25154   0.42088   0.00000  Uiso   1.00
C611   C     0.61884   0.05820   0.47212   0.00000  Uiso   1.00
C612   C     0.58005   0.16650   0.49843   0.00000  Uiso   1.00
C613   C     0.38220   0.26938   0.54712   0.00000  Uiso   1.00
C614   C     0.49996   0.16663   0.40625   0.00000  Uiso   1.00
C615   C     0.50009   0.16671   0.59375   0.00000  Uiso   1.00
C616   C     0.50003   0.16662   0.35514   0.00000  Uiso   1.00
C617   C     0.50007   0.16673   0.64487   0.00000  Uiso   1.00
C618   C     0.35498   0.12824   0.51941   0.00000  Uiso   1.00
C619   C     0.64547   0.20698   0.48951   0.00000  Uiso   1.00
C620   C     0.64601   0.12613   0.51146   0.00000  Uiso   1.00
H621   H     0.36544   0.08633   0.58067   0.00000  Uiso   1.00
H622   H     0.64856   0.04707   0.45666   0.00000  Uiso   1.00
H623   H     0.60239   0.07852   0.44318   0.00000  Uiso   1.00
H624   H     0.60004   0.02792   0.48015   0.00000  Uiso   1.00
H625   H     0.36567   0.27425   0.47123   0.00000  Uiso   1.00
H626   H     0.35342   0.28452   0.56139   0.00000  Uiso   1.00
H627   H     0.40657   0.29539   0.54561   0.00000  Uiso   1.00
H628   H     0.39310   0.24292   0.57364   0.00000  Uiso   1.00
H629   H     0.55797   0.02958   0.59488   0.00000  Uiso   1.00
H630   H     0.46059   0.30095   0.39470   0.00000  Uiso   1.00
H631   H     0.43382   0.03009   0.41490   0.00000  Uiso   1.00
H632   H     0.36153   0.02656   0.52292   0.00000  Uiso   1.00
H633   H     0.55168   0.25867   0.56105   0.00000  Uiso   1.00
H634   H     0.41539   0.03942   0.52961   0.00000  Uiso   1.00
H635   H     0.38659   0.06018   0.47609   0.00000  Uiso   1.00
H636   H     0.63259   0.27629   0.49224   0.00000  Uiso   1.00
H637   H     0.64802   0.25572   0.40242   0.00000  Uiso   1.00
H638   H     0.59860   0.28169   0.41297   0.00000  Uiso   1.00
H639   H     0.60189   0.22145   0.40515   0.00000  Uiso   1.00
H640   H     0.63468   0.06493   0.54787   0.00000  Uiso   1.00
N641   N     0.50000   0.28573   0.50000   0.00000  Uiso   1.00
N642   N     0.50000   0.04760   0.50000   0.00000  Uiso   1.00
N643   N     0.37601   0.09279   0.54526   0.00000  Uiso   1.00
N644   N     0.62392   0.24685   0.47437   0.00000  Uiso   1.00
N645   N     0.62518   0.08414   0.51774   0.00000  Uiso   1.00
N646   N     0.37509   0.25086   0.49750   0.00000  Uiso   1.00
O647   O     0.43892   0.20487   0.50000   0.00000  Uiso   1.00
O648   O     0.45908   0.28421   0.42661   0.00000  Uiso   1.00
O649   O     0.45642   0.04886   0.42886   0.00000  Uiso   1.00
O650   O     0.54407   0.28867   0.57323   0.00000  Uiso   1.00
O651   O     0.56108   0.12846   0.50000   0.00000  Uiso   1.00
O652   O     0.56108   0.20487   0.50000   0.00000  Uiso   1.00
O653   O     0.43892   0.12846   0.50000   0.00000  Uiso   1.00
O654   O     0.50000   0.20488   0.42845   0.00000  Uiso   1.00
O655   O     0.50000   0.12845   0.57155   0.00000  Uiso   1.00
O656   O     0.50000   0.20488   0.57155   0.00000  Uiso   1.00
O657   O     0.50000   0.12845   0.42845   0.00000  Uiso   1.00
O658   O     0.54323   0.04976   0.57120   0.00000  Uiso   1.00
Zn659  Zn    0.50000   0.21771   0.50000   0.00000  Uiso   1.00
Zn660  Zn    0.50000   0.11563   0.50000   0.00000  Uiso   1.00
C661   C     0.75345   0.16692   0.50318   0.00000  Uiso   1.00
C662   C     0.68771   0.20844   0.49710   0.00000  Uiso   1.00
C663   C     0.95782   0.16605   0.49783   0.00000  Uiso   1.00
C664   C     0.70922   0.16800   0.50739   0.00000  Uiso   1.00
C665   C     0.85473   0.02477   0.53606   0.00000  Uiso   1.00
C666   C     0.81242   0.30889   0.46336   0.00000  Uiso   1.00
C667   C     0.81198   0.02420   0.46370   0.00000  Uiso   1.00
C668   C     0.85494   0.30997   0.53612   0.00000  Uiso   1.00
C669   C     0.71851   0.05272   0.51670   0.00000  Uiso   1.00
C670   C     0.95126   0.25154   0.42088   0.00000  Uiso   1.00
C671   C     0.95217   0.05820   0.47212   0.00000  Uiso   1.00
C672   C     0.91339   0.16650   0.49843   0.00000  Uiso   1.00
C673   C     0.71553   0.26938   0.54712   0.00000  Uiso   1.00
C674   C     0.83330   0.16663   0.40625   0.00000  Uiso   1.00
C675   C     0.83342   0.16671   0.59375   0.00000  Uiso   1.00
C676   C     0.83336   0.16662   0.35514   0.00000  Uiso   1.00
C677   C     0.83340   0.16673   0.64487   0.00000  Uiso   1.00
C678   C     0.68831   0.12824   0.51941   0.00000  Uiso   1.00
C679   C     0.97880   0.20698   0.48951   0.00000  Uiso   1.00
C680   C     0.97934   0.12613   0.51146   0.00000  Uiso   1.00
H681   H     0.69878   0.08633   0.58067   0.00000  Uiso   1.00
H682   H     0.98190   0.04707   0.45666   0.00000  Uiso   1.00
H683   H     0.93573   0.07852   0.44318   0.00000  Uiso   1.00
H684   H     0.93338   0.02792   0.48015   0.00000  Uiso   1.00
H685   H     0.69900   0.27425   0.47123   0.00000  Uiso   1.00
H686   H     0.68675   0.28452   0.56139   0.00000  Uiso   1.00
H687   H     0.73990   0.29539   0.54561   0.00000  Uiso   1.00
H688   H     0.72643   0.24292   0.57364   0.00000  Uiso   1.00
H689   H     0.89130   0.02958   0.59488   0.00000  Uiso   1.00
H690   H     0.79393   0.30095   0.39470   0.00000  Uiso   1.00
H691   H     0.76715   0.03009   0.41490   0.00000  Uiso   1.00
H692   H     0.69487   0.02656   0.52292   0.00000  Uiso   1.00
H693   H     0.88502   0.25867   0.56105   0.00000  Uiso   1.00
H694   H     0.74872   0.03942   0.52961   0.00000  Uiso   1.00
H695   H     0.71992   0.06018   0.47609   0.00000  Uiso   1.00
H696   H     0.96592   0.27629   0.49224   0.00000  Uiso   1.00
H697   H     0.98136   0.25572   0.40242   0.00000  Uiso   1.00
H698   H     0.93194   0.28169   0.41297   0.00000  Uiso   1.00
H699   H     0.93522   0.22145   0.40515   0.00000  Uiso   1.00
H700   H     0.96802   0.06493   0.54787   0.00000  Uiso   1.00
N701   N     0.83333   0.28573   0.50000   0.00000  Uiso   1.00
N702   N     0.83333   0.04760   0.50000   0.00000  Uiso   1.00
N703   N     0.70934   0.09279   0.54526   0.00000  Uiso   1.00
N704   N     0.95726   0.24685   0.47437   0.00000  Uiso   1.00
N705   N     0.95851   0.08414   0.51774   0.00000  Uiso   1.00
N706   N     0.70842   0.25086   0.49750   0.00000  Uiso   1.00
O707   O     0.77226   0.20487   0.50000   0.00000  Uiso   1.00
O708   O     0.79241   0.28421   0.42661   0.00000  Uiso   1.00
O709   O     0.78975   0.04886   0.42886   0.00000  Uiso   1.00
O710   O     0.87740   0.28867   0.57323   0.00000  Uiso   1.00
O711   O     0.89441   0.12846   0.50000   0.00000  Uiso   1.00
O712   O     0.89441   0.20487   0.50000   0.00000  Uiso   1.00
O713   O     0.77226   0.12846   0.50000   0.00000  Uiso   1.00
O714   O     0.83334   0.20488   0.42845   0.00000  Uiso   1.00
O715   O     0.83333   0.12845   0.57155   0.00000  Uiso   1.00
O716   O     0.83333   0.20488   0.57155   0.00000  Uiso   1.00
O717   O     0.83334   0.12845   0.42845   0.00000  Uiso   1.00
O718   O     0.87656   0.04976   0.57120   0.00000  Uiso   1.00
Zn719  Zn    0.83333   0.21771   0.50000   0.00000  Uiso   1.00
Zn720  Zn    0.83333   0.11563   0.50000   0.00000  Uiso   1.00
C721   C     0.08678   0.50026   0.50318   0.00000  Uiso   1.00
C722   C     0.02104   0.54177   0.49710   0.00000  Uiso   1.00
C723   C     0.29115   0.49938   0.49783   0.00000  Uiso   1.00
C724   C     0.04255   0.50133   0.50739   0.00000  Uiso   1.00
C725   C     0.18807   0.35810   0.53606   0.00000  Uiso   1.00
C726   C     0.14576   0.64223   0.46336   0.00000  Uiso   1.00
C727   C     0.14531   0.35753   0.46370   0.00000  Uiso   1.00
C728   C     0.18827   0.64331   0.53612   0.00000  Uiso   1.00
C729   C     0.05185   0.38605   0.51670   0.00000  Uiso   1.00
C730   C     0.28460   0.58487   0.42088   0.00000  Uiso   1.00
C731   C     0.28551   0.39154   0.47212   0.00000  Uiso   1.00
C732   C     0.24672   0.49983   0.49843   0.00000  Uiso   1.00
C733   C     0.04887   0.60271   0.54712   0.00000  Uiso   1.00
C734   C     0.16663   0.49996   0.40625   0.00000  Uiso   1.00
C735   C     0.16676   0.50004   0.59375   0.00000  Uiso   1.00
C736   C     0.16669   0.49995   0.35514   0.00000  Uiso   1.00
C737   C     0.16674   0.50006   0.64487   0.00000  Uiso   1.00
C738   C     0.02164   0.46158   0.51941   0.00000  Uiso   1.00
C739   C     0.31214   0.54031   0.48951   0.00000  Uiso   1.00
C740   C     0.31268   0.45947   0.51146   0.00000  Uiso   1.00
H741   H     0.03211   0.41966   0.58067   0.00000  Uiso   1.00
H742   H     0.31523   0.38040   0.45666   0.00000  Uiso   1.00
H743   H     0.26906   0.41185   0.44318   0.00000  Uiso   1.00
H744   H     0.26671   0.36126   0.48015   0.00000  Uiso   1.00
H745   H     0.03234   0.60758   0.47123   0.00000  Uiso   1.00
H746   H     0.02009   0.61785   0.56139   0.00000  Uiso   1.00
H747   H     0.07324   0.62872   0.54561   0.00000  Uiso   1.00
H748   H     0.05976   0.57625   0.57364   0.00000  Uiso   1.00
H749   H     0.22463   0.36291   0.59488   0.00000  Uiso   1.00
H750   H     0.12726   0.63429   0.39470   0.00000  Uiso   1.00
H751   H     0.10048   0.36342   0.41490   0.00000  Uiso   1.00
H752   H     0.02820   0.35989   0.52292   0.00000  Uiso   1.00
H753   H     0.21835   0.59200   0.56105   0.00000  Uiso   1.00
H754   H     0.08206   0.37275   0.52961   0.00000  Uiso   1.00
H755   H     0.05325   0.39352   0.47609   0.00000  Uiso   1.00
H756   H     0.29925   0.60962   0.49224   0.00000  Uiso   1.00
H757   H     0.31469   0.58905   0.40242   0.00000  Uiso   1.00
H758   H     0.26527   0.61502   0.41297   0.00000  Uiso   1.00
H759   H     0.26856   0.55478   0.40515   0.00000  Uiso   1.00
H760   H     0.30135   0.39826   0.54787   0.00000  Uiso   1.00
N761   N     0.16667   0.61907   0.50000   0.00000  Uiso   1.00
N762   N     0.16667   0.38093   0.50000   0.00000  Uiso   1.00
N763   N     0.04267   0.42612   0.54526   0.00000  Uiso   1.00
N764   N     0.29059   0.58018   0.47437   0.00000  Uiso   1.00
N765   N     0.29184   0.41748   0.51774   0.00000  Uiso   1.00
N766   N     0.04175   0.58419   0.49750   0.00000  Uiso   1.00
O767   O     0.10559   0.53821   0.50000   0.00000  Uiso   1.00
O768   O     0.12575   0.61754   0.42661   0.00000  Uiso   1.00
O769   O     0.12308   0.38219   0.42886   0.00000  Uiso   1.00
O770   O     0.21074   0.62201   0.57323   0.00000  Uiso   1.00
O771   O     0.22774   0.46179   0.50000   0.00000  Uiso   1.00
O772   O     0.22774   0.53821   0.50000   0.00000  Uiso   1.00
O773   O     0.10559   0.46179   0.50000   0.00000  Uiso   1.00
O774   O     0.16667   0.53821   0.42845   0.00000  Uiso   1.00
O775   O     0.16666   0.46179   0.57155   0.00000  Uiso   1.00
O776   O     0.16666   0.53821   0.57155   0.00000  Uiso   1.00
O777   O     0.16667   0.46179   0.42845   0.00000  Uiso   1.00
O778   O     0.20989   0.38309   0.57120   0.00000  Uiso   1.00
Zn779  Zn    0.16667   0.55104   0.50000   0.00000  Uiso   1.00
Zn780  Zn    0.16667   0.44896   0.50000   0.00000  Uiso   1.00
C781   C     0.42011   0.50026   0.50318   0.00000  Uiso   1.00
C782   C     0.35438   0.54177   0.49710   0.00000  Uiso   1.00
C783   C     0.62449   0.49938   0.49783   0.00000  Uiso   1.00
C784   C     0.37588   0.50133   0.50739   0.00000  Uiso   1.00
C785   C     0.52140   0.35810   0.53606   0.00000  Uiso   1.00
C786   C     0.47909   0.64223   0.46336   0.00000  Uiso   1.00
C787   C     0.47864   0.35753   0.46370   0.00000  Uiso   1.00
C788   C     0.52161   0.64331   0.53612   0.00000  Uiso   1.00
C789   C     0.38518   0.38605   0.51670   0.00000  Uiso   1.00
C790   C     0.61793   0.58487   0.42088   0.00000  Uiso   1.00
C791   C     0.61884   0.39154   0.47212   0.00000  Uiso   1.00
C792   C     0.58005   0.49983   0.49843   0.00000  Uiso   1.00
C793   C     0.38220   0.60271   0.54712   0.00000  Uiso   1.00
C794   C     0.49996   0.49996   0.40625   0.00000  Uiso   1.00
C795   C     0.50009   0.50004   0.59375   0.00000  Uiso   1.00
C796   C     0.50003   0.49995   0.35514   0.00000  Uiso   1.00
C797   C     0.50007   0.50006   0.64487   0.00000  Uiso   1.00
C798   C     0.35498   0.46158   0.51941   0.00000  Uiso   1.00
C799   C     0.64547   0.54031   0.48951   0.00000  Uiso   1.00
C800   C     0.64601   0.45947   0.51146   0.00000  Uiso   1.00
H801   H     0.36544   0.41966   0.58067   0.00000  Uiso   1.00
H802   H     0.64856   0.38040   0.45666   0.00000  Uiso   1.00
H803   H     0.60239   0.41185   0.44318   0.00000  Uiso   1.00
H804   H     0.60004   0.36126   0.48015   0.00000  Uiso   1.00
H805   H     0.36567   0.60758   0.47123   0.00000  Uiso   1.00
H806   H     0.35342   0.61785   0.56139   0.00000  Uiso   1.00
H807   H     0.40657   0.62872   0.54561   0.00000  Uiso   1.00
H808   H     0.39310   0.57625   0.57364   0.00000  Uiso   1.00
H809   H     0.55797   0.36291   0.59488   0.00000  Uiso   1.00
H810   H     0.46059   0.63429   0.39470   0.00000  Uiso   1.00
H811   H     0.43382   0.36342   0.41490   0.00000  Uiso   1.00
H812   H     0.36153   0.35989   0.52292   0.00000  Uiso   1.00
H813   H     0.55168   0.59200   0.56105   0.00000  Uiso   1.00
H814   H     0.41539   0.37275   0.52961   0.00000  Uiso   1.00
H815   H     0.38659   0.39352   0.47609   0.00000  Uiso   1.00
H816   H     0.63259   0.60962   0.49224   0.00000  Uiso   1.00
H817   H     0.64802   0.58905   0.40242   0.00000  Uiso   1.00
H818   H     0.59860   0.61502   0.41297   0.00000  Uiso   1.00
H819   H     0.60189   0.55478   0.40515   0.00000  Uiso   1.00
H820   H     0.63468   0.39826   0.54787   0.00000  Uiso   1.00
N821   N     0.50000   0.61907   0.50000   0.00000  Uiso   1.00
N822   N     0.50000   0.38093   0.50000   0.00000  Uiso   1.00
N823   N     0.37601   0.42612   0.54526   0.00000  Uiso   1.00
N824   N     0.62392   0.58018   0.47437   0.00000  Uiso   1.00
N825   N     0.62518   0.41748   0.51774   0.00000  Uiso   1.00
N826   N     0.37509   0.58419   0.49750   0.00000  Uiso   1.00
O827   O     0.43892   0.53821   0.50000   0.00000  Uiso   1.00
O828   O     0.45908   0.61754   0.42661   0.00000  Uiso   1.00
O829   O     0.45642   0.38219   0.42886   0.00000  Uiso   1.00
O830   O     0.54407   0.62201   0.57323   0.00000  Uiso   1.00
O831   O     0.56108   0.46179   0.50000   0.00000  Uiso   1.00
O832   O     0.56108   0.53821   0.50000   0.00000  Uiso   1.00
O833   O     0.43892   0.46179   0.50000   0.00000  Uiso   1.00
O834   O     0.50000   0.53821   0.42845   0.00000  Uiso   1.00
O835   O     0.50000   0.46179   0.57155   0.00000  Uiso   1.00
O836   O     0.50000   0.53821   0.57155   0.00000  Uiso   1.00
O837   O     0.50000   0.46179   0.42845   0.00000  Uiso   1.00
O838   O     0.54323   0.38309   0.57120   0.00000  Uiso   1.00
Zn839  Zn    0.50000   0.55104   0.50000   0.00000  Uiso   1.00
Zn840  Zn    0.50000   0.44896   0.50000   0.00000  Uiso   1.00
C841   C     0.75345   0.50026   0.50318   0.00000  Uiso   1.00
C842   C     0.68771   0.54177   0.49710   0.00000  Uiso   1.00
C843   C     0.95782   0.49938   0.49783   0.00000  Uiso   1.00
C844   C     0.70922   0.50133   0.50739   0.00000  Uiso   1.00
C845   C     0.85473   0.35810   0.53606   0.00000  Uiso   1.00
C846   C     0.81242   0.64223   0.46336   0.00000  Uiso   1.00
C847   C     0.81198   0.35753   0.46370   0.00000  Uiso   1.00
C848   C     0.85494   0.64331   0.53612   0.00000  Uiso   1.00
C849   C     0.71851   0.38605   0.51670   0.00000  Uiso   1.00
C850   C     0.95126   0.58487   0.42088   0.00000  Uiso   1.00
C851   C     0.95217   0.39154   0.47212   0.00000  Uiso   1.00
C852   C     0.91339   0.49983   0.49843   0.00000  Uiso   1.00
C853   C     0.71553   0.60271   0.54712   0.00000  Uiso   1.00
C854   C     0.83330   0.49996   0.40625   0.00000  Uiso   1.00
C855   C     0.83342   0.50004   0.59375   0.00000  Uiso   1.00
C856   C     0.83336   0.49995   0.35514   0.00000  Uiso   1.00
C857   C     0.83340   0.50006   0.64487   0.00000  Uiso   1.00
C858   C     0.68831   0.46158   0.51941   0.00000  Uiso   1.00
C859   C     0.97880   0.54031   0.48951   0.00000  Uiso   1.00
C860   C     0.97934   0.45947   0.51146   0.00000  Uiso   1.00
H861   H     0.69878   0.41966   0.58067   0.00000  Uiso   1.00
H862   H     0.98190   0.38040   0.45666   0.00000  Uiso   1.00
H863   H     0.93573   0.41185   0.44318   0.00000  Uiso   1.00
H864   H     0.93338   0.36126   0.48015   0.00000  Uiso   1.00
H865   H     0.69900   0.60758   0.47123   0.00000  Uiso   1.00
H866   H     0.68675   0.61785   0.56139   0.00000  Uiso   1.00
H867   H     0.73990   0.62872   0.54561   0.00000  Uiso   1.00
H868   H     0.72643   0.57625   0.57364   0.00000  Uiso   1.00
H869   H     0.89130   0.36291   0.59488   0.00000  Uiso   1.00
H870   H     0.79393   0.63429   0.39470   0.00000  Uiso   1.00
H871   H     0.76715   0.36342   0.41490   0.00000  Uiso   1.00
H872   H     0.69487   0.35989   0.52292   0.00000  Uiso   1.00
H873   H     0.88502   0.59200   0.56105   0.00000  Uiso   1.00
H874   H     0.74872   0.37275   0.52961   0.00000  Uiso   1.00
H875   H     0.71992   0.39352   0.47609   0.00000  Uiso   1.00
H876   H     0.96592   0.60962   0.49224   0.00000  Uiso   1.00
H877   H     0.98136   0.58905   0.40242   0.00000  Uiso   1.00
H878   H     0.93194   0.61502   0.41297   0.00000  Uiso   1.00
H879   H     0.93522   0.55478   0.40515   0.00000  Uiso   1.00
H880   H     0.96802   0.39826   0.54787   0.00000  Uiso   1.00
N881   N     0.83333   0.61907   0.50000   0.00000  Uiso   1.00
N882   N     0.83333   0.38093   0.50000   0.00000  Uiso   1.00
N883   N     0.70934   0.42612   0.54526   0.00000  Uiso   1.00
N884   N     0.95726   0.58018   0.47437   0.00000  Uiso   1.00
N885   N     0.95851   0.41748   0.51774   0.00000  Uiso   1.00
N886   N     0.70842   0.58419   0.49750   0.00000  Uiso   1.00
O887   O     0.77226   0.53821   0.50000   0.00000  Uiso   1.00
O888   O     0.79241   0.61754   0.42661   0.00000  Uiso   1.00
O889   O     0.78975   0.38219   0.42886   0.00000  Uiso   1.00
O890   O     0.87740   0.62201   0.57323   0.00000  Uiso   1.00
O891   O     0.89441   0.46179   0.50000   0.00000  Uiso   1.00
O892   O     0.89441   0.53821   0.50000   0.00000  Uiso   1.00
O893   O     0.77226   0.46179   0.50000   0.00000  Uiso   1.00
O894   O     0.83334   0.53821   0.42845   0.00000  Uiso   1.00
O895   O     0.83333   0.46179   0.57155   0.00000  Uiso   1.00
O896   O     0.83333   0.53821   0.57155   0.00000  Uiso   1.00
O897   O     0.83334   0.46179   0.42845   0.00000  Uiso   1.00
O898   O     0.87656   0.38309   0.57120   0.00000  Uiso   1.00
Zn899  Zn    0.83333   0.55104   0.50000   0.00000  Uiso   1.00
Zn900  Zn    0.83333   0.44896   0.50000   0.00000  Uiso   1.00
C901   C     0.08678   0.83359   0.50318   0.00000  Uiso   1.00
C902   C     0.02104   0.87510   0.49710   0.00000  Uiso   1.00
C903   C     0.29115   0.83272   0.49783   0.00000  Uiso   1.00
C904   C     0.04255   0.83467   0.50739   0.00000  Uiso   1.00
C905   C     0.18807   0.69144   0.53606   0.00000  Uiso   1.00
C906   C     0.14576   0.97556   0.46336   0.00000  Uiso   1.00
C907   C     0.14531   0.69086   0.46370   0.00000  Uiso   1.00
C908   C     0.18827   0.97664   0.53612   0.00000  Uiso   1.00
C909   C     0.05185   0.71938   0.51670   0.00000  Uiso   1.00
C910   C     0.28460   0.91821   0.42088   0.00000  Uiso   1.00
C911   C     0.28551   0.72487   0.47212   0.00000  Uiso   1.00
C912   C     0.24672   0.83317   0.49843   0.00000  Uiso   1.00
C913   C     0.04887   0.93605   0.54712   0.00000  Uiso   1.00
C914   C     0.16663   0.83330   0.40625   0.00000  Uiso   1.00
C915   C     0.16676   0.83337   0.59375   0.00000  Uiso   1.00
C916   C     0.16669   0.83329   0.35514   0.00000  Uiso   1.00
C917   C     0.16674   0.83340   0.64487   0.00000  Uiso   1.00
C918   C     0.02164   0.79491   0.51941   0.00000  Uiso   1.00
C919   C     0.31214   0.87365   0.48951   0.00000  Uiso   1.00
C920   C     0.31268   0.79280   0.51146   0.00000  Uiso   1.00
H921   H     0.03211   0.75299   0.58067   0.00000  Uiso   1.00
H922   H     0.31523   0.71373   0.45666   0.00000  Uiso   1.00
H923   H     0.26906   0.74518   0.44318   0.00000  Uiso   1.00
H924   H     0.26671   0.69459   0.48015   0.00000  Uiso   1.00
H925   H     0.03234   0.94091   0.47123   0.00000  Uiso   1.00
H926   H     0.02009   0.95118   0.56139   0.00000  Uiso   1.00
H927   H     0.07324   0.96206   0.54561   0.00000  Uiso   1.00
H928   H     0.05976   0.90959   0.57364   0.00000  Uiso   1.00
H929   H     0.22463   0.69624   0.59488   0.00000  Uiso   1.00
H930   H     0.12726   0.96762   0.39470   0.00000  Uiso   1.00
H931   H     0.10048   0.69675   0.41490   0.00000  Uiso   1.00
H932   H     0.02820   0.69322   0.52292   0.00000  Uiso   1.00
H933   H     0.21835   0.92533   0.56105   0.00000  Uiso   1.00
H934   H     0.08206   0.70608   0.52961   0.00000  Uiso   1.00
H935   H     0.05325   0.72685   0.47609   0.00000  Uiso   1.00
H936   H     0.29925   0.94295   0.49224   0.00000  Uiso   1.00
H937   H     0.31469   0.92238   0.40242   0.00000  Uiso   1.00
H938   H     0.26527   0.94835   0.41297   0.00000  Uiso   1.00
H939   H     0.26856   0.88812   0.40515   0.00000  Uiso   1.00
H940   H     0.30135   0.73160   0.54787   0.00000  Uiso   1.00
N941   N     0.16667   0.95240   0.50000   0.00000  Uiso   1.00
N942   N     0.16667   0.71427   0.50000   0.00000  Uiso   1.00
N943   N     0.04267   0.75946   0.54526   0.00000  Uiso   1.00
N944   N     0.29059   0.91351   0.47437   0.00000  Uiso   1.00
N945   N     0.29184   0.75081   0.51774   0.00000  Uiso   1.00
N946   N     0.04175   0.91752   0.49750   0.00000  Uiso   1.00
O947   O     0.10559   0.87154   0.50000   0.00000  Uiso   1.00
O948   O     0.12575   0.95088   0.42661   0.00000  Uiso   1.00
O949   O     0.12308   0.71553   0.42886   0.00000  Uiso   1.00
O950   O     0.21074   0.95534   0.57323   0.00000  Uiso   1.00
O951   O     0.22774   0.79513   0.50000   0.00000  Uiso   1.00
O952   O     0.22774   0.87154   0.50000   0.00000  Uiso   1.00
O953   O     0.10559   0.79513   0.50000   0.00000  Uiso   1.00
O954   O     0.16667   0.87155   0.42845   0.00000  Uiso   1.00
O955   O     0.16666   0.79512   0.57155   0.00000  Uiso   1.00
O956   O     0.16666   0.87155   0.57155   0.00000  Uiso   1.00
O957   O     0.16667   0.79512   0.42845   0.00000  Uiso   1.00
O958   O     0.20989   0.71643   0.57120   0.00000  Uiso   1.00
Zn959  Zn    0.16667   0.88437   0.50000   0.00000  Uiso   1.00
Zn960  Zn    0.16667   0.78229   0.50000   0.00000  Uiso   1.00
C961   C     0.42011   0.83359   0.50318   0.00000  Uiso   1.00
C962   C     0.35438   0.87510   0.49710   0.00000  Uiso   1.00
C963   C     0.62449   0.83272   0.49783   0.00000  Uiso   1.00
C964   C     0.37588   0.83467   0.50739   0.00000  Uiso   1.00
C965   C     0.52140   0.69144   0.53606   0.00000  Uiso   1.00
C966   C     0.47909   0.97556   0.46336   0.00000  Uiso   1.00
C967   C     0.47864   0.69086   0.46370   0.00000  Uiso   1.00
C968   C     0.52161   0.97664   0.53612   0.00000  Uiso   1.00
C969   C     0.38518   0.71938   0.51670   0.00000  Uiso   1.00
C970   C     0.61793   0.91821   0.42088   0.00000  Uiso   1.00
C971   C     0.61884   0.72487   0.47212   0.00000  Uiso   1.00
C972   C     0.58005   0.83317   0.49843   0.00000  Uiso   1.00
C973   C     0.38220   0.93605   0.54712   0.00000  Uiso   1.00
C974   C     0.49996   0.83330   0.40625   0.00000  Uiso   1.00
C975   C     0.50009   0.83337   0.59375   0.00000  Uiso   1.00
C976   C     0.50003   0.83329   0.35514   0.00000  Uiso   1.00
C977   C     0.50007   0.83340   0.64487   0.00000  Uiso   1.00
C978   C     0.35498   0.79491   0.51941   0.00000  Uiso   1.00
C979   C     0.64547   0.87365   0.48951   0.00000  Uiso   1.00
C980   C     0.64601   0.79280   0.51146   0.00000  Uiso   1.00
H981   H     0.36544   0.75299   0.58067   0.00000  Uiso   1.00
H982   H     0.64856   0.71373   0.45666   0.00000  Uiso   1.00
H983   H     0.60239   0.74518   0.44318   0.00000  Uiso   1.00
H984   H     0.60004   0.69459   0.48015   0.00000  Uiso   1.00
H985   H     0.36567   0.94091   0.47123   0.00000  Uiso   1.00
H986   H     0.35342   0.95118   0.56139   0.00000  Uiso   1.00
H987   H     0.40657   0.96206   0.54561   0.00000  Uiso   1.00
H988   H     0.39310   0.90959   0.57364   0.00000  Uiso   1.00
H989   H     0.55797   0.69624   0.59488   0.00000  Uiso   1.00
H990   H     0.46059   0.96762   0.39470   0.00000  Uiso   1.00
H991   H     0.43382   0.69675   0.41490   0.00000  Uiso   1.00
H992   H     0.36153   0.69322   0.52292   0.00000  Uiso   1.00
H993   H     0.55168   0.92533   0.56105   0.00000  Uiso   1.00
H994   H     0.41539   0.70608   0.52961   0.00000  Uiso   1.00
H995   H     0.38659   0.72685   0.47609   0.00000  Uiso   1.00
H996   H     0.63259   0.94295   0.49224   0.00000  Uiso   1.00
H997   H     0.64802   0.92238   0.40242   0.00000  Uiso   1.00
H998   H     0.59860   0.94835   0.41297   0.00000  Uiso   1.00
H999   H     0.60189   0.88812   0.40515   0.00000  Uiso   1.00
H1000  H     0.63468   0.73160   0.54787   0.00000  Uiso   1.00
N1001  N     0.50000   0.95240   0.50000   0.00000  Uiso   1.00
N1002  N     0.50000   0.71427   0.50000   0.00000  Uiso   1.00
N1003  N     0.37601   0.75946   0.54526   0.00000  Uiso   1.00
N1004  N     0.62392   0.91351   0.47437   0.00000  Uiso   1.00
N1005  N     0.62518   0.75081   0.51774   0.00000  Uiso   1.00
N1006  N     0.37509   0.91752   0.49750   0.00000  Uiso   1.00
O1007  O     0.43892   0.87154   0.50000   0.00000  Uiso   1.00
O1008  O     0.45908   0.95088   0.42661   0.00000  Uiso   1.00
O1009  O     0.45642   0.71553   0.42886   0.00000  Uiso   1.00
O1010  O     0.54407   0.95534   0.57323   0.00000  Uiso   1.00
O1011  O     0.56108   0.79513   0.50000   0.00000  Uiso   1.00
O1012  O     0.56108   0.87154   0.50000   0.00000  Uiso   1.00
O1013  O     0.43892   0.79513   0.50000   0.00000  Uiso   1.00
O1014  O     0.50000   0.87155   0.42845   0.00000  Uiso   1.00
O1015  O     0.50000   0.79512   0.57155   0.00000  Uiso   1.00
O1016  O     0.50000   0.87155   0.57155   0.00000  Uiso   1.00
O1017  O     0.50000   0.79512   0.42845   0.00000  Uiso   1.00
O1018  O     0.54323   0.71643   0.57120   0.00000  Uiso   1.00
Zn1019 Zn    0.50000   0.88437   0.50000   0.00000  Uiso   1.00
Zn1020 Zn    0.50000   0.78229   0.50000   0.00000  Uiso   1.00
C1021  C     0.75345   0.83359   0.50318   0.00000  Uiso   1.00
C1022  C     0.68771   0.87510   0.49710   0.00000  Uiso   1.00
C1023  C     0.95782   0.83272   0.49783   0.00000  Uiso   1.00
C1024  C     0.70922   0.83467   0.50739   0.00000  Uiso   1.00
C1025  C     0.85473   0.69144   0.53606   0.00000  Uiso   1.00
C1026  C     0.81242   0.97556   0.46336   0.00000  Uiso   1.00
C1027  C     0.81198   0.69086   0.46370   0.00000  Uiso   1.00
C1028  C     0.85494   0.97664   0.53612   0.00000  Uiso   1.00
C1029  C     0.71851   0.71938   0.51670   0.00000  Uiso   1.00
C1030  C     0.95126   0.91821   0.42088   0.00000  Uiso   1.00
C1031  C     0.95217   0.72487   0.47212   0.00000  Uiso   1.00
C1032  C     0.91339   0.83317   0.49843   0.00000  Uiso   1.00
C1033  C     0.71553   0.93605   0.54712   0.00000  Uiso   1.00
C1034  C     0.83330   0.83330   0.40625   0.00000  Uiso   1.00
C1035  C     0.83342   0.83337   0.59375   0.00000  Uiso   1.00
C1036  C     0.83336   0.83329   0.35514   0.00000  Uiso   1.00
C1037  C     0.83340   0.83340   0.64487   0.00000  Uiso   1.00
C1038  C     0.68831   0.79491   0.51941   0.00000  Uiso   1.00
C1039  C     0.97880   0.87365   0.48951   0.00000  Uiso   1.00
C1040  C     0.97934   0.79280   0.51146   0.00000  Uiso   1.00
H1041  H     0.69878   0.75299   0.58067   0.00000  Uiso   1.00
H1042  H     0.98190   0.71373   0.45666   0.00000  Uiso   1.00
H1043  H     0.93573   0.74518   0.44318   0.00000  Uiso   1.00
H1044  H     0.93338   0.69459   0.48015   0.00000  Uiso   1.00
H1045  H     0.69900   0.94091   0.47123   0.00000  Uiso   1.00
H1046  H     0.68675   0.95118   0.56139   0.00000  Uiso   1.00
H1047  H     0.73990   0.96206   0.54561   0.00000  Uiso   1.00
H1048  H     0.72643   0.90959   0.57364   0.00000  Uiso   1.00
H1049  H     0.89130   0.69624   0.59488   0.00000  Uiso   1.00
H1050  H     0.79393   0.96762   0.39470   0.00000  Uiso   1.00
H1051  H     0.76715   0.69675   0.41490   0.00000  Uiso   1.00
H1052  H     0.69487   0.69322   0.52292   0.00000  Uiso   1.00
H1053  H     0.88502   0.92533   0.56105   0.00000  Uiso   1.00
H1054  H     0.74872   0.70608   0.52961   0.00000  Uiso   1.00
H1055  H     0.71992   0.72685   0.47609   0.00000  Uiso   1.00
H1056  H     0.96592   0.94295   0.49224   0.00000  Uiso   1.00
H1057  H     0.98136   0.92238   0.40242   0.00000  Uiso   1.00
H1058  H     0.93194   0.94835   0.41297   0.00000  Uiso   1.00
H1059  H     0.93522   0.88812   0.40515   0.00000  Uiso   1.00
H1060  H     0.96802   0.73160   0.54787   0.00000  Uiso   1.00
N1061  N     0.83333   0.95240   0.50000   0.00000  Uiso   1.00
N1062  N     0.83333   0.71427   0.50000   0.00000  Uiso   1.00
N1063  N     0.70934   0.75946   0.54526   0.00000  Uiso   1.00
N1064  N     0.95726   0.91351   0.47437   0.00000  Uiso   1.00
N1065  N     0.95851   0.75081   0.51774   0.00000  Uiso   1.00
N1066  N     0.70842   0.91752   0.49750   0.00000  Uiso   1.00
O1067  O     0.77226   0.87154   0.50000   0.00000  Uiso   1.00
O1068  O     0.79241   0.95088   0.42661   0.00000  Uiso   1.00
O1069  O     0.78975   0.71553   0.42886   0.00000  Uiso   1.00
O1070  O     0.87740   0.95534   0.57323   0.00000  Uiso   1.00
O1071  O     0.89441   0.79513   0.50000   0.00000  Uiso   1.00
O1072  O     0.89441   0.87154   0.50000   0.00000  Uiso   1.00
O1073  O     0.77226   0.79513   0.50000   0.00000  Uiso   1.00
O1074  O     0.83334   0.87155   0.42845   0.00000  Uiso   1.00
O1075  O     0.83333   0.79512   0.57155   0.00000  Uiso   1.00
O1076  O     0.83333   0.87155   0.57155   0.00000  Uiso   1.00
O1077  O     0.83334   0.79512   0.42845   0.00000  Uiso   1.00
O1078  O     0.87656   0.71643   0.57120   0.00000  Uiso   1.00
Zn1079 Zn    0.83333   0.88437   0.50000   0.00000  Uiso   1.00
Zn1080 Zn    0.83333   0.78229   0.50000   0.00000  Uiso   1.00
C1081  C     0.08678   0.16692   0.83651   0.00000  Uiso   1.00
C1082  C     0.02104   0.20844   0.83043   0.00000  Uiso   1.00
C1083  C     0.29115   0.16605   0.83116   0.00000  Uiso   1.00
C1084  C     0.04255   0.16800   0.84072   0.00000  Uiso   1.00
C1085  C     0.18807   0.02477   0.86939   0.00000  Uiso   1.00
C1086  C     0.14576   0.30889   0.79669   0.00000  Uiso   1.00
C1087  C     0.14531   0.02420   0.79704   0.00000  Uiso   1.00
C1088  C     0.18827   0.30997   0.86946   0.00000  Uiso   1.00
C1089  C     0.05185   0.05272   0.85003   0.00000  Uiso   1.00
C1090  C     0.28460   0.25154   0.75422   0.00000  Uiso   1.00
C1091  C     0.28551   0.05820   0.80545   0.00000  Uiso   1.00
C1092  C     0.24672   0.16650   0.83177   0.00000  Uiso   1.00
C1093  C     0.04887   0.26938   0.88045   0.00000  Uiso   1.00
C1094  C     0.16663   0.16663   0.73959   0.00000  Uiso   1.00
C1095  C     0.16676   0.16671   0.92708   0.00000  Uiso   1.00
C1096  C     0.16669   0.16662   0.68847   0.00000  Uiso   1.00
C1097  C     0.16674   0.16673   0.97820   0.00000  Uiso   1.00
C1098  C     0.02164   0.12824   0.85274   0.00000  Uiso   1.00
C1099  C     0.31214   0.20698   0.82284   0.00000  Uiso   1.00
C1100  C     0.31268   0.12613   0.84479   0.00000  Uiso   1.00
H1101  H     0.03211   0.08633   0.91400   0.00000  Uiso   1.00
H1102  H     0.31523   0.04707   0.78999   0.00000  Uiso   1.00
H1103  H     0.26906   0.07852   0.77652   0.00000  Uiso   1.00
H1104  H     0.26671   0.02792   0.81348   0.00000  Uiso   1.00
H1105  H     0.03234   0.27425   0.80456   0.00000  Uiso   1.00
H1106  H     0.02009   0.28452   0.89472   0.00000  Uiso   1.00
H1107  H     0.07324   0.29539   0.87894   0.00000  Uiso   1.00
H1108  H     0.05976   0.24292   0.90697   0.00000  Uiso   1.00
H1109  H     0.22463   0.02958   0.92822   0.00000  Uiso   1.00
H1110  H     0.12726   0.30095   0.72804   0.00000  Uiso   1.00
H1111  H     0.10048   0.03009   0.74823   0.00000  Uiso   1.00
H1112  H     0.02820   0.02656   0.85625   0.00000  Uiso   1.00
H1113  H     0.21835   0.25867   0.89438   0.00000  Uiso   1.00
H1114  H     0.08206   0.03942   0.86294   0.00000  Uiso   1.00
H1115  H     0.05325   0.06018   0.80942   0.00000  Uiso   1.00
H1116  H     0.29925   0.27629   0.82557   0.00000  Uiso   1.00
H1117  H     0.31469   0.25572   0.73575   0.00000  Uiso   1.00
H1118  H     0.26527   0.28169   0.74630   0.00000  Uiso   1.00
H1119  H     0.26856   0.22145   0.73849   0.00000  Uiso   1.00
H1120  H     0.30135   0.06493   0.88120   0.00000  Uiso   1.00
N1121  N     0.16667   0.28573   0.83333   0.00000  Uiso   1.00
N1122  N     0.16667   0.04760   0.83333   0.00000  Uiso   1.00
N1123  N     0.04267   0.09279   0.87859   0.00000  Uiso   1.00
N1124  N     0.29059   0.24685   0.80771   0.00000  Uiso   1.00
N1125  N     0.29184   0.08414   0.85108   0.00000  Uiso   1.00
N1126  N     0.04175   0.25086   0.83084   0.00000  Uiso   1.00
O1127  O     0.10559   0.20487   0.83333   0.00000  Uiso   1.00
O1128  O     0.12575   0.28421   0.75995   0.00000  Uiso   1.00
O1129  O     0.12308   0.04886   0.76220   0.00000  Uiso   1.00
O1130  O     0.21074   0.28867   0.90657   0.00000  Uiso   1.00
O1131  O     0.22774   0.12846   0.83334   0.00000  Uiso   1.00
O1132  O     0.22774   0.20487   0.83334   0.00000  Uiso   1.00
O1133  O     0.10559   0.12846   0.83333   0.00000  Uiso   1.00
O1134  O     0.16667   0.20488   0.76178   0.00000  Uiso   1.00
O1135  O     0.16666   0.12845   0.90489   0.00000  Uiso   1.00
O1136  O     0.16666   0.20488   0.90489   0.00000  Uiso   1.00
O1137  O     0.16667   0.12845   0.76178   0.00000  Uiso   1.00
O1138  O     0.20989   0.04976   0.90454   0.00000  Uiso   1.00
Zn1139 Zn    0.16667   0.21771   0.83333   0.00000  Uiso   1.00
Zn1140 Zn    0.16667   0.11563   0.83333   0.00000  Uiso   1.00
C1141  C     0.42011   0.16692   0.83651   0.00000  Uiso   1.00
C1142  C     0.35438   0.20844   0.83043   0.00000  Uiso   1.00
C1143  C     0.62449   0.16605   0.83116   0.00000  Uiso   1.00
C1144  C     0.37588   0.16800   0.84072   0.00000  Uiso   1.00
C1145  C     0.52140   0.02477   0.86939   0.00000  Uiso   1.00
C1146  C     0.47909   0.30889   0.79669   0.00000  Uiso   1.00
C1147  C     0.47864   0.02420   0.79704   0.00000  Uiso   1.00
C1148  C     0.52161   0.30997   0.86946   0.00000  Uiso   1.00
C1149  C     0.38518   0.05272   0.85003   0.00000  Uiso   1.00
C1150  C     0.61793   0.25154   0.75422   0.00000  Uiso   1.00
C1151  C     0.61884   0.05820   0.80545   0.00000  Uiso   1.00
C1152  C     0.58005   0.16650   0.83177   0.00000  Uiso   1.00
C1153  C     0.38220   0.26938   0.88045   0.00000  Uiso   1.00
C1154  C     0.49996   0.16663   0.73959   0.00000  Uiso   1.00
C1155  C     0.50009   0.16671   0.92708   0.00000  Uiso   1.00
C1156  C     0.50003   0.16662   0.68847   0.00000  Uiso   1.00
C1157  C     0.50007   0.16673   0.97820   0.00000  Uiso   1.00
C1158  C     0.35498   0.12824   0.85274   0.00000  Uiso   1.00
C1159  C     0.64547   0.20698   0.82284   0.00000  Uiso   1.00
C1160  C     0.64601   0.12613   0.84479   0.00000  Uiso   1.00
H1161  H     0.36544   0.08633   0.91400   0.00000  Uiso   1.00
H1162  H     0.64856   0.04707   0.78999   0.00000  Uiso   1.00
H1163  H     0.60239   0.07852   0.77652   0.00000  Uiso   1.00
H1164  H     0.60004   0.02792   0.81348   0.00000  Uiso   1.00
H1165  H     0.36567   0.27425   0.80456   0.00000  Uiso   1.00
H1166  H     0.35342   0.28452   0.89472   0.00000  Uiso   1.00
H1167  H     0.40657   0.29539   0.87894   0.00000  Uiso   1.00
H1168  H     0.39310   0.24292   0.90697   0.00000  Uiso   1.00
H1169  H     0.55797   0.02958   0.92822   0.00000  Uiso   1.00
H1170  H     0.46059   0.30095   0.72804   0.00000  Uiso   1.00
H1171  H     0.43382   0.03009   0.74823   0.00000  Uiso   1.00
H1172  H     0.36153   0.02656   0.85625   0.00000  Uiso   1.00
H1173  H     0.55168   0.25867   0.89438   0.00000  Uiso   1.00
H1174  H     0.41539   0.03942   0.86294   0.00000  Uiso   1.00
H1175  H     0.38659   0.06018   0.80942   0.00000  Uiso   1.00
H1176  H     0.63259   0.27629   0.82557   0.00000  Uiso   1.00
H1177  H     0.64802   0.25572   0.73575   0.00000  Uiso   1.00
H1178  H     0.59860   0.28169   0.74630   0.00000  Uiso   1.00
H1179  H     0.60189   0.22145   0.73849   0.00000  Uiso   1.00
H1180  H     0.63468   0.06493   0.88120   0.00000  Uiso   1.00
N1181  N     0.50000   0.28573   0.83333   0.00000  Uiso   1.00
N1182  N     0.50000   0.04760   0.83333   0.00000  Uiso   1.00
N1183  N     0.37601   0.09279   0.87859   0.00000  Uiso   1.00
N1184  N     0.62392   0.24685   0.80771   0.00000  Uiso   1.00
N1185  N     0.62518   0.08414   0.85108   0.00000  Uiso   1.00
N1186  N     0.37509   0.25086   0.83084   0.00000  Uiso   1.00
O1187  O     0.43892   0.20487   0.83333   0.00000  Uiso   1.00
O1188  O     0.45908   0.28421   0.75995   0.00000  Uiso   1.00
O1189  O     0.45642   0.04886   0.76220   0.00000  Uiso   1.00
O1190  O     0.54407   0.28867   0.90657   0.00000  Uiso   1.00
O1191  O     0.56108   0.12846   0.83334   0.00000  Uiso   1.00
O1192  O     0.56108   0.20487   0.83334   0.00000  Uiso   1.00
O1193  O     0.43892   0.12846   0.83333   0.00000  Uiso   1.00
O1194  O     0.50000   0.20488   0.76178   0.00000  Uiso   1.00
O1195  O     0.50000   0.12845   0.90489   0.00000  Uiso   1.00
O1196  O     0.50000   0.20488   0.90489   0.00000  Uiso   1.00
O1197  O     0.50000   0.12845   0.76178   0.00000  Uiso   1.00
O1198  O     0.54323   0.04976   0.90454   0.00000  Uiso   1.00
Zn1199 Zn    0.50000   0.21771   0.83333   0.00000  Uiso   1.00
Zn1200 Zn    0.50000   0.11563   0.83333   0.00000  Uiso   1.00
C1201  C     0.75345   0.16692   0.83651   0.00000  Uiso   1.00
C1202  C     0.68771   0.20844   0.83043   0.00000  Uiso   1.00
C1203  C     0.95782   0.16605   0.83116   0.00000  Uiso   1.00
C1204  C     0.70922   0.16800   0.84072   0.00000  Uiso   1.00
C1205  C     0.85473   0.02477   0.86939   0.00000  Uiso   1.00
C1206  C     0.81242   0.30889   0.79669   0.00000  Uiso   1.00
C1207  C     0.81198   0.02420   0.79704   0.00000  Uiso   1.00
C1208  C     0.85494   0.30997   0.86946   0.00000  Uiso   1.00
C1209  C     0.71851   0.05272   0.85003   0.00000  Uiso   1.00
C1210  C     0.95126   0.25154   0.75422   0.00000  Uiso   1.00
C1211  C     0.95217   0.05820   0.80545   0.00000  Uiso   1.00
C1212  C     0.91339   0.16650   0.83177   0.00000  Uiso   1.00
C1213  C     0.71553   0.26938   0.88045   0.00000  Uiso   1.00
C1214  C     0.83330   0.16663   0.73959   0.00000  Uiso   1.00
C1215  C     0.83342   0.16671   0.92708   0.00000  Uiso   1.00
C1216  C     0.83336   0.16662   0.68847   0.00000  Uiso   1.00
C1217  C     0.83340   0.16673   0.97820   0.00000  Uiso   1.00
C1218  C     0.68831   0.12824   0.85274   0.00000  Uiso   1.00
C1219  C     0.97880   0.20698   0.82284   0.00000  Uiso   1.00
C1220  C     0.97934   0.12613   0.84479   0.00000  Uiso   1.00
H1221  H     0.69878   0.08633   0.91400   0.00000  Uiso   1.00
H1222  H     0.98190   0.04707   0.78999   0.00000  Uiso   1.00
H1223  H     0.93573   0.07852   0.77652   0.00000  Uiso   1.00
H1224  H     0.93338   0.02792   0.81348   0.00000  Uiso   1.00
H1225  H     0.69900   0.27425   0.80456   0.00000  Uiso   1.00
H1226  H     0.68675   0.28452   0.89472   0.00000  Uiso   1.00
H1227  H     0.73990   0.29539   0.87894   0.00000  Uiso   1.00
H1228  H     0.72643   0.24292   0.90697   0.00000  Uiso   1.00
H1229  H     0.89130   0.02958   0.92822   0.00000  Uiso   1.00
H1230  H     0.79393   0.30095   0.72804   0.00000  Uiso   1.00
H1231  H     0.76715   0.03009   0.74823   0.00000  Uiso   1.00
H1232  H     0.69487   0.02656   0.85625   0.00000  Uiso   1.00
H1233  H     0.88502   0.25867   0.89438   0.00000  Uiso   1.00
H1234  H     0.74872   0.03942   0.86294   0.00000  Uiso   1.00
H1235  H     0.71992   0.06018   0.80942   0.00000  Uiso   1.00
H1236  H     0.96592   0.27629   0.82557   0.00000  Uiso   1.00
H1237  H     0.98136   0.25572   0.73575   0.00000  Uiso   1.00
H1238  H     0.93194   0.28169   0.74630   0.00000  Uiso   1.00
H1239  H     0.93522   0.22145   0.73849   0.00000  Uiso   1.00
H1240  H     0.96802   0.06493   0.88120   0.00000  Uiso   1.00
N1241  N     0.83333   0.28573   0.83333   0.00000  Uiso   1.00
N1242  N     0.83333   0.04760   0.83333   0.00000  Uiso   1.00
N1243  N     0.70934   0.09279   0.87859   0.00000  Uiso   1.00
N1244  N     0.95726   0.24685   0.80771   0.00000  Uiso   1.00
N1245  N     0.95851   0.08414   0.85108   0.00000  Uiso   1.00
N1246  N     0.70842   0.25086   0.83084   0.00000  Uiso   1.00
O1247  O     0.77226   0.20487   0.83333   0.00000  Uiso   1.00
O1248  O     0.79241   0.28421   0.75995   0.00000  Uiso   1.00
O1249  O     0.78975   0.04886   0.76220   0.00000  Uiso   1.00
O1250  O     0.87740   0.28867   0.90657   0.00000  Uiso   1.00
O1251  O     0.89441   0.12846   0.83334   0.00000  Uiso   1.00
O1252  O     0.89441   0.20487   0.83334   0.00000  Uiso   1.00
O1253  O     0.77226   0.12846   0.83333   0.00000  Uiso   1.00
O1254  O     0.83334   0.20488   0.76178   0.00000  Uiso   1.00
O1255  O     0.83333   0.12845   0.90489   0.00000  Uiso   1.00
O1256  O     0.83333   0.20488   0.90489   0.00000  Uiso   1.00
O1257  O     0.83334   0.12845   0.76178   0.00000  Uiso   1.00
O1258  O     0.87656   0.04976   0.90454   0.00000  Uiso   1.00
Zn1259 Zn    0.83333   0.21771   0.83333   0.00000  Uiso   1.00
Zn1260 Zn    0.83333   0.11563   0.83333   0.00000  Uiso   1.00
C1261  C     0.08678   0.50026   0.83651   0.00000  Uiso   1.00
C1262  C     0.02104   0.54177   0.83043   0.00000  Uiso   1.00
C1263  C     0.29115   0.49938   0.83116   0.00000  Uiso   1.00
C1264  C     0.04255   0.50133   0.84072   0.00000  Uiso   1.00
C1265  C     0.18807   0.35810   0.86939   0.00000  Uiso   1.00
C1266  C     0.14576   0.64223   0.79669   0.00000  Uiso   1.00
C1267  C     0.14531   0.35753   0.79704   0.00000  Uiso   1.00
C1268  C     0.18827   0.64331   0.86946   0.00000  Uiso   1.00
C1269  C     0.05185   0.38605   0.85003   0.00000  Uiso   1.00
C1270  C     0.28460   0.58487   0.75422   0.00000  Uiso   1.00
C1271  C     0.28551   0.39154   0.80545   0.00000  Uiso   1.00
C1272  C     0.24672   0.49983   0.83177   0.00000  Uiso   1.00
C1273  C     0.04887   0.60271   0.88045   0.00000  Uiso   1.00
C1274  C     0.16663   0.49996   0.73959   0.00000  Uiso   1.00
C1275  C     0.16676   0.50004   0.92708   0.00000  Uiso   1.00
C1276  C     0.16669   0.49995   0.68847   0.00000  Uiso   1.00
C1277  C     0.16674   0.50006   0.97820   0.00000  Uiso   1.00
C1278  C     0.02164   0.46158   0.85274   0.00000  Uiso   1.00
C1279  C     0.31214   0.54031   0.82284   0.00000  Uiso   1.00
C1280  C     0.31268   0.45947   0.84479   0.00000  Uiso   1.00
H1281  H     0.03211   0.41966   0.91400   0.00000  Uiso   1.00
H1282  H     0.31523   0.38040   0.78999   0.00000  Uiso   1.00
H1283  H     0.26906   0.41185   0.77652   0.00000  Uiso   1.00
H1284  H     0.26671   0.36126   0.81348   0.00000  Uiso   1.00
H1285  H     0.03234   0.60758   0.80456   0.00000  Uiso   1.00
H1286  H     0.02009   0.61785   0.89472   0.00000  Uiso   1.00
H1287  H     0.07324   0.62872   0.87894   0.00000  Uiso   1.00
H1288  H     0.05976   0.57625   0.90697   0.00000  Uiso   1.00
H1289  H     0.22463   0.36291   0.92822   0.00000  Uiso   1.00
H1290  H     0.12726   0.63429   0.72804   0.00000  Uiso   1.00
H1291  H     0.10048   0.36342   0.74823   0.00000  Uiso   1.00
H1292  H     0.02820   0.35989   0.85625   0.00000  Uiso   1.00
H1293  H     0.21835   0.59200   0.89438   0.00000  Uiso   1.00
H1294  H     0.08206   0.37275   0.86294   0.00000  Uiso   1.00
H1295  H     0.05325   0.39352   0.80942   0.00000  Uiso   1.00
H1296  H     0.29925   0.60962   0.82557   0.00000  Uiso   1.00
H1297  H     0.31469   0.58905   0.73575   0.00000  Uiso   1.00
H1298  H     0.26527   0.61502   0.74630   0.00000  Uiso   1.00
H1299  H     0.26856   0.55478   0.73849   0.00000  Uiso   1.00
H1300  H     0.30135   0.39826   0.88120   0.00000  Uiso   1.00
N1301  N     0.16667   0.61907   0.83333   0.00000  Uiso   1.00
N1302  N     0.16667   0.38093   0.83333   0.00000  Uiso   1.00
N1303  N     0.04267   0.42612   0.87859   0.00000  Uiso   1.00
N1304  N     0.29059   0.58018   0.80771   0.00000  Uiso   1.00
N1305  N     0.29184   0.41748   0.85108   0.00000  Uiso   1.00
N1306  N     0.04175   0.58419   0.83084   0.00000  Uiso   1.00
O1307  O     0.10559   0.53821   0.83333   0.00000  Uiso   1.00
O1308  O     0.12575   0.61754   0.75995   0.00000  Uiso   1.00
O1309  O     0.12308   0.38219   0.76220   0.00000  Uiso   1.00
O1310  O     0.21074   0.62201   0.90657   0.00000  Uiso   1.00
O1311  O     0.22774   0.46179   0.83334   0.00000  Uiso   1.00
O1312  O     0.22774   0.53821   0.83334   0.00000  Uiso   1.00
O1313  O     0.10559   0.46179   0.83333   0.00000  Uiso   1.00
O1314  O     0.16667   0.53821   0.76178   0.00000  Uiso   1.00
O1315  O     0.16666   0.46179   0.90489   0.00000  Uiso   1.00
O1316  O     0.16666   0.53821   0.90489   0.00000  Uiso   1.00
O1317  O     0.16667   0.46179   0.76178   0.00000  Uiso   1.00
O1318  O     0.20989   0.38309   0.90454   0.00000  Uiso   1.00
Zn1319 Zn    0.16667   0.55104   0.83333   0.00000  Uiso   1.00
Zn1320 Zn    0.16667   0.44896   0.83333   0.00000  Uiso   1.00
C1321  C     0.42011   0.50026   0.83651   0.00000  Uiso   1.00
C1322  C     0.35438   0.54177   0.83043   0.00000  Uiso   1.00
C1323  C     0.62449   0.49938   0.83116   0.00000  Uiso   1.00
C1324  C     0.37588   0.50133   0.84072   0.00000  Uiso   1.00
C1325  C     0.52140   0.35810   0.86939   0.00000  Uiso   1.00
C1326  C     0.47909   0.64223   0.79669   0.00000  Uiso   1.00
C1327  C     0.47864   0.35753   0.79704   0.00000  Uiso   1.00
C1328  C     0.52161   0.64331   0.86946   0.00000  Uiso   1.00
C1329  C     0.38518   0.38605   0.85003   0.00000  Uiso   1.00
C1330  C     0.61793   0.58487   0.75422   0.00000  Uiso   1.00
C1331  C     0.61884   0.39154   0.80545   0.00000  Uiso   1.00
C1332  C     0.58005   0.49983   0.83177   0.00000  Uiso   1.00
C1333  C     0.38220   0.60271   0.88045   0.00000  Uiso   1.00
C1334  C     0.49996   0.49996   0.73959   0.00000  Uiso   1.00
C1335  C     0.50009   0.50004   0.92708   0.00000  Uiso   1.00
C1336  C     0.50003   0.49995   0.68847   0.00000  Uiso   1.00
C1337  C     0.50007   0.50006   0.97820   0.00000  Uiso   1.00
C1338  C     0.35498   0.46158   0.85274   0.00000  Uiso   1.00
C1339  C     0.64547   0.54031   0.82284   0.00000  Uiso   1.00
C1340  C     0.64601   0.45947   0.84479   0.00000  Uiso   1.00
H1341  H     0.36544   0.41966   0.91400   0.00000  Uiso   1.00
H1342  H     0.64856   0.38040   0.78999   0.00000  Uiso   1.00
H1343  H     0.60239   0.41185   0.77652   0.00000  Uiso   1.00
H1344  H     0.60004   0.36126   0.81348   0.00000  Uiso   1.00
H1345  H     0.36567   0.60758   0.80456   0.00000  Uiso   1.00
H1346  H     0.35342   0.61785   0.89472   0.00000  Uiso   1.00
H1347  H     0.40657   0.62872   0.87894   0.00000  Uiso   1.00
H1348  H     0.39310   0.57625   0.90697   0.00000  Uiso   1.00
H1349  H     0.55797   0.36291   0.92822   0.00000  Uiso   1.00
H1350  H     0.46059   0.63429   0.72804   0.00000  Uiso   1.00
H1351  H     0.43382   0.36342   0.74823   0.00000  Uiso   1.00
H1352  H     0.36153   0.35989   0.85625   0.00000  Uiso   1.00
H1353  H     0.55168   0.59200   0.89438   0.00000  Uiso   1.00
H1354  H     0.41539   0.37275   0.86294   0.00000  Uiso   1.00
H1355  H     0.38659   0.39352   0.80942   0.00000  Uiso   1.00
H1356  H     0.63259   0.60962   0.82557   0.00000  Uiso   1.00
H1357  H     0.64802   0.58905   0.73575   0.00000  Uiso   1.00
H1358  H     0.59860   0.61502   0.74630   0.00000  Uiso   1.00
H1359  H     0.60189   0.55478   0.73849   0.00000  Uiso   1.00
H1360  H     0.63468   0.39826   0.88120   0.00000  Uiso   1.00
N1361  N     0.50000   0.61907   0.83333   0.00000  Uiso   1.00
N1362  N     0.50000   0.38093   0.83333   0.00000  Uiso   1.00
N1363  N     0.37601   0.42612   0.87859   0.00000  Uiso   1.00
N1364  N     0.62392   0.58018   0.80771   0.00000  Uiso   1.00
N1365  N     0.62518   0.41748   0.85108   0.00000  Uiso   1.00
N1366  N     0.37509   0.58419   0.83084   0.00000  Uiso   1.00
O1367  O     0.43892   0.53821   0.83333   0.00000  Uiso   1.00
O1368  O     0.45908   0.61754   0.75995   0.00000  Uiso   1.00
O1369  O     0.45642   0.38219   0.76220   0.00000  Uiso   1.00
O1370  O     0.54407   0.62201   0.90657   0.00000  Uiso   1.00
O1371  O     0.56108   0.46179   0.83334   0.00000  Uiso   1.00
O1372  O     0.56108   0.53821   0.83334   0.00000  Uiso   1.00
O1373  O     0.43892   0.46179   0.83333   0.00000  Uiso   1.00
O1374  O     0.50000   0.53821   0.76178   0.00000  Uiso   1.00
O1375  O     0.50000   0.46179   0.90489   0.00000  Uiso   1.00
O1376  O     0.50000   0.53821   0.90489   0.00000  Uiso   1.00
O1377  O     0.50000   0.46179   0.76178   0.00000  Uiso   1.00
O1378  O     0.54323   0.38309   0.90454   0.00000  Uiso   1.00
Zn1379 Zn    0.50000   0.55104   0.83333   0.00000  Uiso   1.00
Zn1380 Zn    0.50000   0.44896   0.83333   0.00000  Uiso   1.00
C1381  C     0.75345   0.50026   0.83651   0.00000  Uiso   1.00
C1382  C     0.68771   0.54177   0.83043   0.00000  Uiso   1.00
C1383  C     0.95782   0.49938   0.83116   0.00000  Uiso   1.00
C1384  C     0.70922   0.50133   0.84072   0.00000  Uiso   1.00
C1385  C     0.85473   0.35810   0.86939   0.00000  Uiso   1.00
C1386  C     0.81242   0.64223   0.79669   0.00000  Uiso   1.00
C1387  C     0.81198   0.35753   0.79704   0.00000  Uiso   1.00
C1388  C     0.85494   0.64331   0.86946   0.00000  Uiso   1.00
C1389  C     0.71851   0.38605   0.85003   0.00000  Uiso   1.00
C1390  C     0.95126   0.58487   0.75422   0.00000  Uiso   1.00
C1391  C     0.95217   0.39154   0.80545   0.00000  Uiso   1.00
C1392  C     0.91339   0.49983   0.83177   0.00000  Uiso   1.00
C1393  C     0.71553   0.60271   0.88045   0.00000  Uiso   1.00
C1394  C     0.83330   0.49996   0.73959   0.00000  Uiso   1.00
C1395  C     0.83342   0.50004   0.92708   0.00000  Uiso   1.00
C1396  C     0.83336   0.49995   0.68847   0.00000  Uiso   1.00
C1397  C     0.83340   0.50006   0.97820   0.00000  Uiso   1.00
C1398  C     0.68831   0.46158   0.85274   0.00000  Uiso   1.00
C1399  C     0.97880   0.54031   0.82284   0.00000  Uiso   1.00
C1400  C     0.97934   0.45947   0.84479   0.00000  Uiso   1.00
H1401  H     0.69878   0.41966   0.91400   0.00000  Uiso   1.00
H1402  H     0.98190   0.38040   0.78999   0.00000  Uiso   1.00
H1403  H     0.93573   0.41185   0.77652   0.00000  Uiso   1.00
H1404  H     0.93338   0.36126   0.81348   0.00000  Uiso   1.00
H1405  H     0.69900   0.60758   0.80456   0.00000  Uiso   1.00
H1406  H     0.68675   0.61785   0.89472   0.00000  Uiso   1.00
H1407  H     0.73990   0.62872   0.87894   0.00000  Uiso   1.00
H1408  H     0.72643   0.57625   0.90697   0.00000  Uiso   1.00
H1409  H     0.89130   0.36291   0.92822   0.00000  Uiso   1.00
H1410  H     0.79393   0.63429   0.72804   0.00000  Uiso   1.00
H1411  H     0.76715   0.36342   0.74823   0.00000  Uiso   1.00
H1412  H     0.69487   0.35989   0.85625   0.00000  Uiso   1.00
H1413  H     0.88502   0.59200   0.89438   0.00000  Uiso   1.00
H1414  H     0.74872   0.37275   0.86294   0.00000  Uiso   1.00
H1415  H     0.71992   0.39352   0.80942   0.00000  Uiso   1.00
H1416  H     0.96592   0.60962   0.82557   0.00000  Uiso   1.00
H1417  H     0.98136   0.58905   0.73575   0.00000  Uiso   1.00
H1418  H     0.93194   0.61502   0.74630   0.00000  Uiso   1.00
H1419  H     0.93522   0.55478   0.73849   0.00000  Uiso   1.00
H1420  H     0.96802   0.39826   0.88120   0.00000  Uiso   1.00
N1421  N     0.83333   0.61907   0.83333   0.00000  Uiso   1.00
N1422  N     0.83333   0.38093   0.83333   0.00000  Uiso   1.00
N1423  N     0.70934   0.42612   0.87859   0.00000  Uiso   1.00
N1424  N     0.95726   0.58018   0.80771   0.00000  Uiso   1.00
N1425  N     0.95851   0.41748   0.85108   0.00000  Uiso   1.00
N1426  N     0.70842   0.58419   0.83084   0.00000  Uiso   1.00
O1427  O     0.77226   0.53821   0.83333   0.00000  Uiso   1.00
O1428  O     0.79241   0.61754   0.75995   0.00000  Uiso   1.00
O1429  O     0.78975   0.38219   0.76220   0.00000  Uiso   1.00
O1430  O     0.87740   0.62201   0.90657   0.00000  Uiso   1.00
O1431  O     0.89441   0.46179   0.83334   0.00000  Uiso   1.00
O1432  O     0.89441   0.53821   0.83334   0.00000  Uiso   1.00
O1433  O     0.77226   0.46179   0.83333   0.00000  Uiso   1.00
O1434  O     0.83334   0.53821   0.76178   0.00000  Uiso   1.00
O1435  O     0.83333   0.46179   0.90489   0.00000  Uiso   1.00
O1436  O     0.83333   0.53821   0.90489   0.00000  Uiso   1.00
O1437  O     0.83334   0.46179   0.76178   0.00000  Uiso   1.00
O1438  O     0.87656   0.38309   0.90454   0.00000  Uiso   1.00
Zn1439 Zn    0.83333   0.55104   0.83333   0.00000  Uiso   1.00
Zn1440 Zn    0.83333   0.44896   0.83333   0.00000  Uiso   1.00
C1441  C     0.08678   0.83359   0.83651   0.00000  Uiso   1.00
C1442  C     0.02104   0.87510   0.83043   0.00000  Uiso   1.00
C1443  C     0.29115   0.83272   0.83116   0.00000  Uiso   1.00
C1444  C     0.04255   0.83467   0.84072   0.00000  Uiso   1.00
C1445  C     0.18807   0.69144   0.86939   0.00000  Uiso   1.00
C1446  C     0.14576   0.97556   0.79669   0.00000  Uiso   1.00
C1447  C     0.14531   0.69086   0.79704   0.00000  Uiso   1.00
C1448  C     0.18827   0.97664   0.86946   0.00000  Uiso   1.00
C1449  C     0.05185   0.71938   0.85003   0.00000  Uiso   1.00
C1450  C     0.28460   0.91821   0.75422   0.00000  Uiso   1.00
C1451  C     0.28551   0.72487   0.80545   0.00000  Uiso   1.00
C1452  C     0.24672   0.83317   0.83177   0.00000  Uiso   1.00
C1453  C     0.04887   0.93605   0.88045   0.00000  Uiso   1.00
C1454  C     0.16663   0.83330   0.73959   0.00000  Uiso   1.00
C1455  C     0.16676   0.83337   0.92708   0.00000  Uiso   1.00
C1456  C     0.16669   0.83329   0.68847   0.00000  Uiso   1.00
C1457  C     0.16674   0.83340   0.97820   0.00000  Uiso   1.00
C1458  C     0.02164   0.79491   0.85274   0.00000  Uiso   1.00
C1459  C     0.31214   0.87365   0.82284   0.00000  Uiso   1.00
C1460  C     0.31268   0.79280   0.84479   0.00000  Uiso   1.00
H1461  H     0.03211   0.75299   0.91400   0.00000  Uiso   1.00
H1462  H     0.31523   0.71373   0.78999   0.00000  Uiso   1.00
H1463  H     0.26906   0.74518   0.77652   0.00000  Uiso   1.00
H1464  H     0.26671   0.69459   0.81348   0.00000  Uiso   1.00
H1465  H     0.03234   0.94091   0.80456   0.00000  Uiso   1.00
H1466  H     0.02009   0.95118   0.89472   0.00000  Uiso   1.00
H1467  H     0.07324   0.96206   0.87894   0.00000  Uiso   1.00
H1468  H     0.05976   0.90959   0.90697   0.00000  Uiso   1.00
H1469  H     0.22463   0.69624   0.92822   0.00000  Uiso   1.00
H1470  H     0.12726   0.96762   0.72804   0.00000  Uiso   1.00
H1471  H     0.10048   0.69675   0.74823   0.00000  Uiso   1.00
H1472  H     0.02820   0.69322   0.85625   0.00000  Uiso   1.00
H1473  H     0.21835   0.92533   0.89438   0.00000  Uiso   1.00
H1474  H     0.08206   0.70608   0.86294   0.00000  Uiso   1.00
H1475  H     0.05325   0.72685   0.80942   0.00000  Uiso   1.00
H1476  H     0.29925   0.94295   0.82557   0.00000  Uiso   1.00
H1477  H     0.31469   0.92238   0.73575   0.00000  Uiso   1.00
H1478  H     0.26527   0.94835   0.74630   0.00000  Uiso   1.00
H1479  H     0.26856   0.88812   0.73849   0.00000  Uiso   1.00
H1480  H     0.30135   0.73160   0.88120   0.00000  Uiso   1.00
N1481  N     0.16667   0.95240   0.83333   0.00000  Uiso   1.00
N1482  N     0.16667   0.71427   0.83333   0.00000  Uiso   1.00
N1483  N     0.04267   0.75946   0.87859   0.00000  Uiso   1.00
N1484  N     0.29059   0.91351   0.80771   0.00000  Uiso   1.00
N1485  N     0.29184   0.75081   0.85108   0.00000  Uiso   1.00
N1486  N     0.04175   0.91752   0.83084   0.00000  Uiso   1.00
O1487  O     0.10559   0.87154   0.83333   0.00000  Uiso   1.00
O1488  O     0.12575   0.95088   0.75995   0.00000  Uiso   1.00
O1489  O     0.12308   0.71553   0.76220   0.00000  Uiso   1.00
O1490  O     0.21074   0.95534   0.90657   0.00000  Uiso   1.00
O1491  O     0.22774   0.79513   0.83334   0.00000  Uiso   1.00
O1492  O     0.22774   0.87154   0.83334   0.00000  Uiso   1.00
O1493  O     0.10559   0.79513   0.83333   0.00000  Uiso   1.00
O1494  O     0.16667   0.87155   0.76178   0.00000  Uiso   1.00
O1495  O     0.16666   0.79512   0.90489   0.00000  Uiso   1.00
O1496  O     0.16666   0.87155   0.90489   0.00000  Uiso   1.00
O1497  O     0.16667   0.79512   0.76178   0.00000  Uiso   1.00
O1498  O     0.20989   0.71643   0.90454   0.00000  Uiso   1.00
Zn1499 Zn    0.16667   0.88437   0.83333   0.00000  Uiso   1.00
Zn1500 Zn    0.16667   0.78229   0.83333   0.00000  Uiso   1.00
C1501  C     0.42011   0.83359   0.83651   0.00000  Uiso   1.00
C1502  C     0.35438   0.87510   0.83043   0.00000  Uiso   1.00
C1503  C     0.62449   0.83272   0.83116   0.00000  Uiso   1.00
C1504  C     0.37588   0.83467   0.84072   0.00000  Uiso   1.00
C1505  C     0.52140   0.69144   0.86939   0.00000  Uiso   1.00
C1506  C     0.47909   0.97556   0.79669   0.00000  Uiso   1.00
C1507  C     0.47864   0.69086   0.79704   0.00000  Uiso   1.00
C1508  C     0.52161   0.97664   0.86946   0.00000  Uiso   1.00
C1509  C     0.38518   0.71938   0.85003   0.00000  Uiso   1.00
C1510  C     0.61793   0.91821   0.75422   0.00000  Uiso   1.00
C1511  C     0.61884   0.72487   0.80545   0.00000  Uiso   1.00
C1512  C     0.58005   0.83317   0.83177   0.00000  Uiso   1.00
C1513  C     0.38220   0.93605   0.88045   0.00000  Uiso   1.00
C1514  C     0.49996   0.83330   0.73959   0.00000  Uiso   1.00
C1515  C     0.50009   0.83337   0.92708   0.00000  Uiso   1.00
C1516  C     0.50003   0.83329   0.68847   0.00000  Uiso   1.00
C1517  C     0.50007   0.83340   0.97820   0.00000  Uiso   1.00
C1518  C     0.35498   0.79491   0.85274   0.00000  Uiso   1.00
C1519  C     0.64547   0.87365   0.82284   0.00000  Uiso   1.00
C1520  C     0.64601   0.79280   0.84479   0.00000  Uiso   1.00
H1521  H     0.36544   0.75299   0.91400   0.00000  Uiso   1.00
H1522  H     0.64856   0.71373   0.78999   0.00000  Uiso   1.00
H1523  H     0.60239   0.74518   0.77652   0.00000  Uiso   1.00
H1524  H     0.60004   0.69459   0.81348   0.00000  Uiso   1.00
H1525  H     0.36567   0.94091   0.80456   0.00000  Uiso   1.00
H1526  H     0.35342   0.95118   0.89472   0.00000  Uiso   1.00
H1527  H     0.40657   0.96206   0.87894   0.00000  Uiso   1.00
H1528  H     0.39310   0.90959   0.90697   0.00000  Uiso   1.00
H1529  H     0.55797   0.69624   0.92822   0.00000  Uiso   1.00
H1530  H     0.46059   0.96762   0.72804   0.00000  Uiso   1.00
H1531  H     0.43382   0.69675   0.74823   0.00000  Uiso   1.00
H1532  H     0.36153   0.69322   0.85625   0.00000  Uiso   1.00
H1533  H     0.55168   0.92533   0.89438   0.00000  Uiso   1.00
H1534  H     0.41539   0.70608   0.86294   0.00000  Uiso   1.00
H1535  H     0.38659   0.72685   0.80942   0.00000  Uiso   1.00
H1536  H     0.63259   0.94295   0.82557   0.00000  Uiso   1.00
H1537  H     0.64802   0.92238   0.73575   0.00000  Uiso   1.00
H1538  H     0.59860   0.94835   0.74630   0.00000  Uiso   1.00
H1539  H     0.60189   0.88812   0.73849   0.00000  Uiso   1.00
H1540  H     0.63468   0.73160   0.88120   0.00000  Uiso   1.00
N1541  N     0.50000   0.95240   0.83333   0.00000  Uiso   1.00
N1542  N     0.50000   0.71427   0.83333   0.00000  Uiso   1.00
N1543  N     0.37601   0.75946   0.87859   0.00000  Uiso   1.00
N1544  N     0.62392   0.91351   0.80771   0.00000  Uiso   1.00
N1545  N     0.62518   0.75081   0.85108   0.00000  Uiso   1.00
N1546  N     0.37509   0.91752   0.83084   0.00000  Uiso   1.00
O1547  O     0.43892   0.87154   0.83333   0.00000  Uiso   1.00
O1548  O     0.45908   0.95088   0.75995   0.00000  Uiso   1.00
O1549  O     0.45642   0.71553   0.76220   0.00000  Uiso   1.00
O1550  O     0.54407   0.95534   0.90657   0.00000  Uiso   1.00
O1551  O     0.56108   0.79513   0.83334   0.00000  Uiso   1.00
O1552  O     0.56108   0.87154   0.83334   0.00000  Uiso   1.00
O1553  O     0.43892   0.79513   0.83333   0.00000  Uiso   1.00
O1554  O     0.50000   0.87155   0.76178   0.00000  Uiso   1.00
O1555  O     0.50000   0.79512   0.90489   0.00000  Uiso   1.00
O1556  O     0.50000   0.87155   0.90489   0.00000  Uiso   1.00
O1557  O     0.50000   0.79512   0.76178   0.00000  Uiso   1.00
O1558  O     0.54323   0.71643   0.90454   0.00000  Uiso   1.00
Zn1559 Zn    0.50000   0.88437   0.83333   0.00000  Uiso   1.00
Zn1560 Zn    0.50000   0.78229   0.83333   0.00000  Uiso   1.00
C1561  C     0.75345   0.83359   0.83651   0.00000  Uiso   1.00
C1562  C     0.68771   0.87510   0.83043   0.00000  Uiso   1.00
C1563  C     0.95782   0.83272   0.83116   0.00000  Uiso   1.00
C1564  C     0.70922   0.83467   0.84072   0.00000  Uiso   1.00
C1565  C     0.85473   0.69144   0.86939   0.00000  Uiso   1.00
C1566  C     0.81242   0.97556   0.79669   0.00000  Uiso   1.00
C1567  C     0.81198   0.69086   0.79704   0.00000  Uiso   1.00
C1568  C     0.85494   0.97664   0.86946   0.00000  Uiso   1.00
C1569  C     0.71851   0.71938   0.85003   0.00000  Uiso   1.00
C1570  C     0.95126   0.91821   0.75422   0.00000  Uiso   1.00
C1571  C     0.95217   0.72487   0.80545   0.00000  Uiso   1.00
C1572  C     0.91339   0.83317   0.83177   0.00000  Uiso   1.00
C1573  C     0.71553   0.93605   0.88045   0.00000  Uiso   1.00
C1574  C     0.83330   0.83330   0.73959   0.00000  Uiso   1.00
C1575  C     0.83342   0.83337   0.92708   0.00000  Uiso   1.00
C1576  C     0.83336   0.83329   0.68847   0.00000  Uiso   1.00
C1577  C     0.83340   0.83340   0.97820   0.00000  Uiso   1.00
C1578  C     0.68831   0.79491   0.85274   0.00000  Uiso   1.00
C1579  C     0.97880   0.87365   0.82284   0.00000  Uiso   1.00
C1580  C     0.97934   0.79280   0.84479   0.00000  Uiso   1.00
H1581  H     0.69878   0.75299   0.91400   0.00000  Uiso   1.00
H1582  H     0.98190   0.71373   0.78999   0.00000  Uiso   1.00
H1583  H     0.93573   0.74518   0.77652   0.00000  Uiso   1.00
H1584  H     0.93338   0.69459   0.81348   0.00000  Uiso   1.00
H1585  H     0.69900   0.94091   0.80456   0.00000  Uiso   1.00
H1586  H     0.68675   0.95118   0.89472   0.00000  Uiso   1.00
H1587  H     0.73990   0.96206   0.87894   0.00000  Uiso   1.00
H1588  H     0.72643   0.90959   0.90697   0.00000  Uiso   1.00
H1589  H     0.89130   0.69624   0.92822   0.00000  Uiso   1.00
H1590  H     0.79393   0.96762   0.72804   0.00000  Uiso   1.00
H1591  H     0.76715   0.69675   0.74823   0.00000  Uiso   1.00
H1592  H     0.69487   0.69322   0.85625   0.00000  Uiso   1.00
H1593  H     0.88502   0.92533   0.89438   0.00000  Uiso   1.00
H1594  H     0.74872   0.70608   0.86294   0.00000  Uiso   1.00
H1595  H     0.71992   0.72685   0.80942   0.00000  Uiso   1.00
H1596  H     0.96592   0.94295   0.82557   0.00000  Uiso   1.00
H1597  H     0.98136   0.92238   0.73575   0.00000  Uiso   1.00
H1598  H     0.93194   0.94835   0.74630   0.00000  Uiso   1.00
H1599  H     0.93522   0.88812   0.73849   0.00000  Uiso   1.00
H1600  H     0.96802   0.73160   0.88120   0.00000  Uiso   1.00
N1601  N     0.83333   0.95240   0.83333   0.00000  Uiso   1.00
N1602  N     0.83333   0.71427   0.83333   0.00000  Uiso   1.00
N1603  N     0.70934   0.75946   0.87859   0.00000  Uiso   1.00
N1604  N     0.95726   0.91351   0.80771   0.00000  Uiso   1.00
N1605  N     0.95851   0.75081   0.85108   0.00000  Uiso   1.00
N1606  N     0.70842   0.91752   0.83084   0.00000  Uiso   1.00
O1607  O     0.77226   0.87154   0.83333   0.00000  Uiso   1.00
O1608  O     0.79241   0.95088   0.75995   0.00000  Uiso   1.00
O1609  O     0.78975   0.71553   0.76220   0.00000  Uiso   1.00
O1610  O     0.87740   0.95534   0.90657   0.00000  Uiso   1.00
O1611  O     0.89441   0.79513   0.83334   0.00000  Uiso   1.00
O1612  O     0.89441   0.87154   0.83334   0.00000  Uiso   1.00
O1613  O     0.77226   0.79513   0.83333   0.00000  Uiso   1.00
O1614  O     0.83334   0.87155   0.76178   0.00000  Uiso   1.00
O1615  O     0.83333   0.79512   0.90489   0.00000  Uiso   1.00
O1616  O     0.83333   0.87155   0.90489   0.00000  Uiso   1.00
O1617  O     0.83334   0.79512   0.76178   0.00000  Uiso   1.00
O1618  O     0.87656   0.71643   0.90454   0.00000  Uiso   1.00
Zn1619 Zn    0.83333   0.88437   0.83333   0.00000  Uiso   1.00
Zn1620 Zn    0.83333   0.78229   0.83333   0.00000  Uiso   1.00
loop_
_geom_bond_atom_site_label_1
_geom_bond_atom_site_label_2
_geom_bond_distance
_geom_bond_site_symmetry_2
_ccdc_geom_bond_type
C1     C4      1.444   .     S
C1     O53     1.297   .     A
C1     O47     1.285   .     A
C2     C4      1.412   .     A
C2     N46     1.427   .     S
C2     C139    1.385   1_455 S
C3     C19     1.413   .     A
C3     C20     1.419   .     A
C3     C12     1.445   .     S
C4     C18     1.402   .     A
C5     N42     1.359   .     A
C5     O58     1.381   .     S
C5     C368    1.427   1_545 S
C6     O48     1.377   .     S
C6     N41     1.367   .     A
C6     C187    1.442   .     S
C7     O49     1.379   .     S
C7     N42     1.370   .     A
C7     C366    1.442   1_545 S
C8     N41     1.383   .     A
C8     O50     1.375   .     S
C8     C185    1.427   .     S
C9     H34     1.107   .     S
C9     N43     1.445   .     S
C9     H35     1.110   .     S
C9     H32     1.108   .     S
C10    H38     1.111   .     S
C10    H37     1.111   .     S
C10    N44     1.446   .     S
C10    H39     1.111   .     S
C11    H22     1.108   .     S
C11    N45     1.451   .     S
C11    H24     1.110   .     S
C11    H23     1.110   .     S
C12    O51     1.287   .     A
C12    O52     1.295   .     A
C13    H28     1.112   .     S
C13    N46     1.448   .     S
C13    H26     1.111   .     S
C13    H27     1.107   .     S
C14    O54     1.278   .     A
C14    C16     1.366   .     S
C14    O57     1.279   .     A
C15    O56     1.279   .     A
C15    C17     1.366   .     S
C15    O55     1.279   .     A
C16    C1097   1.165   1_554 S
C17    C556    1.165   .     S
C18    N43     1.426   .     S
C18    C140    1.389   1_455 S
C19    N44     1.429   .     S
C19    C62     1.385   .     S
C20    N45     1.430   .     S
C20    C78     1.389   .     S
H21    N43     1.031   .     S
H25    N46     1.030   .     S
H29    O58     0.989   .     S
H30    O48     0.990   .     S
H31    O49     0.989   .     S
H33    O50     0.980   .     S
H36    N44     1.031   .     S
H40    N45     1.030   .     S
N41    Zn59    2.017   .     S
N42    Zn60    2.017   .     S
O47    Zn59    2.021   .     S
O51    Zn60    2.021   .     S
O52    Zn59    2.021   .     S
O53    Zn60    2.021   .     S
O54    Zn59    1.949   .     S
O55    Zn60    1.949   .     S
O56    Zn59    1.951   .     S
O57    Zn60    1.951   .     S
C61    C64     1.444   .     S
C61    O113    1.297   .     A
C61    O107    1.285   .     A
C62    C64     1.412   .     A
C62    N106    1.427   .     S
C63    C79     1.413   .     A
C63    C80     1.419   .     A
C63    C72     1.445   .     S
C64    C78     1.402   .     A
C65    N102    1.359   .     A
C65    O118    1.381   .     S
C65    C428    1.427   1_545 S
C66    O108    1.377   .     S
C66    N101    1.367   .     A
C66    C247    1.442   .     S
C67    O109    1.379   .     S
C67    N102    1.370   .     A
C67    C426    1.442   1_545 S
C68    N101    1.383   .     A
C68    O110    1.375   .     S
C68    C245    1.427   .     S
C69    H94     1.107   .     S
C69    N103    1.445   .     S
C69    H95     1.110   .     S
C69    H92     1.108   .     S
C70    H98     1.111   .     S
C70    H97     1.111   .     S
C70    N104    1.446   .     S
C70    H99     1.111   .     S
C71    H82     1.108   .     S
C71    N105    1.451   .     S
C71    H84     1.110   .     S
C71    H83     1.110   .     S
C72    O111    1.287   .     A
C72    O112    1.295   .     A
C73    H88     1.112   .     S
C73    N106    1.448   .     S
C73    H86     1.111   .     S
C73    H87     1.107   .     S
C74    O114    1.278   .     A
C74    C76     1.366   .     S
C74    O117    1.279   .     A
C75    O116    1.279   .     A
C75    C77     1.366   .     S
C75    O115    1.279   .     A
C76    C1157   1.165   1_554 S
C77    C616    1.165   .     S
C78    N103    1.426   .     S
C79    N104    1.429   .     S
C79    C122    1.385   .     S
C80    N105    1.430   .     S
C80    C138    1.389   .     S
H81    N103    1.031   .     S
H85    N106    1.030   .     S
H89    O118    0.989   .     S
H90    O108    0.990   .     S
H91    O109    0.989   .     S
H93    O110    0.980   .     S
H96    N104    1.031   .     S
H100   N105    1.030   .     S
N101   Zn119   2.017   .     S
N102   Zn120   2.017   .     S
O107   Zn119   2.021   .     S
O111   Zn120   2.021   .     S
O112   Zn119   2.021   .     S
O113   Zn120   2.021   .     S
O114   Zn119   1.949   .     S
O115   Zn120   1.949   .     S
O116   Zn119   1.951   .     S
O117   Zn120   1.951   .     S
C121   C124    1.444   .     S
C121   O173    1.297   .     A
C121   O167    1.285   .     A
C122   C124    1.412   .     A
C122   N166    1.427   .     S
C123   C139    1.413   .     A
C123   C140    1.419   .     A
C123   C132    1.445   .     S
C124   C138    1.402   .     A
C125   N162    1.359   .     A
C125   O178    1.381   .     S
C125   C488    1.427   1_545 S
C126   O168    1.377   .     S
C126   N161    1.367   .     A
C126   C307    1.442   .     S
C127   O169    1.379   .     S
C127   N162    1.370   .     A
C127   C486    1.442   1_545 S
C128   N161    1.383   .     A
C128   O170    1.375   .     S
C128   C305    1.427   .     S
C129   H154    1.107   .     S
C129   N163    1.445   .     S
C129   H155    1.110   .     S
C129   H152    1.108   .     S
C130   H158    1.111   .     S
C130   H157    1.111   .     S
C130   N164    1.446   .     S
C130   H159    1.111   .     S
C131   H142    1.108   .     S
C131   N165    1.451   .     S
C131   H144    1.110   .     S
C131   H143    1.110   .     S
C132   O171    1.287   .     A
C132   O172    1.295   .     A
C133   H148    1.112   .     S
C133   N166    1.448   .     S
C133   H146    1.111   .     S
C133   H147    1.107   .     S
C134   O174    1.278   .     A
C134   C136    1.366   .     S
C134   O177    1.279   .     A
C135   O176    1.279   .     A
C135   C137    1.366   .     S
C135   O175    1.279   .     A
C136   C1217   1.165   1_554 S
C137   C676    1.165   .     S
C138   N163    1.426   .     S
C139   N164    1.429   .     S
C139   C2      1.385   1_655 S
C140   N165    1.430   .     S
C140   C18     1.389   1_655 S
H141   N163    1.031   .     S
H145   N166    1.030   .     S
H149   O178    0.989   .     S
H150   O168    0.990   .     S
H151   O169    0.989   .     S
H153   O170    0.980   .     S
H156   N164    1.031   .     S
H160   N165    1.030   .     S
N161   Zn179   2.017   .     S
N162   Zn180   2.017   .     S
O167   Zn179   2.021   .     S
O171   Zn180   2.021   .     S
O172   Zn179   2.021   .     S
O173   Zn180   2.021   .     S
O174   Zn179   1.949   .     S
O175   Zn180   1.949   .     S
O176   Zn179   1.951   .     S
O177   Zn180   1.951   .     S
C181   C184    1.444   .     S
C181   O233    1.297   .     A
C181   O227    1.285   .     A
C182   C184    1.412   .     A
C182   N226    1.427   .     S
C182   C319    1.385   1_455 S
C183   C199    1.413   .     A
C183   C200    1.419   .     A
C183   C192    1.445   .     S
C184   C198    1.402   .     A
C185   N222    1.359   .     A
C185   O238    1.381   .     S
C186   O228    1.377   .     S
C186   N221    1.367   .     A
C186   C367    1.442   .     S
C187   O229    1.379   .     S
C187   N222    1.370   .     A
C188   N221    1.383   .     A
C188   O230    1.375   .     S
C188   C365    1.427   .     S
C189   H214    1.107   .     S
C189   N223    1.445   .     S
C189   H215    1.110   .     S
C189   H212    1.108   .     S
C190   H218    1.111   .     S
C190   H217    1.111   .     S
C190   N224    1.446   .     S
C190   H219    1.111   .     S
C191   H202    1.108   .     S
C191   N225    1.451   .     S
C191   H204    1.110   .     S
C191   H203    1.110   .     S
C192   O231    1.287   .     A
C192   O232    1.295   .     A
C193   H208    1.112   .     S
C193   N226    1.448   .     S
C193   H206    1.111   .     S
C193   H207    1.107   .     S
C194   O234    1.278   .     A
C194   C196    1.366   .     S
C194   O237    1.279   .     A
C195   O236    1.279   .     A
C195   C197    1.366   .     S
C195   O235    1.279   .     A
C196   C1277   1.165   1_554 S
C197   C736    1.165   .     S
C198   N223    1.426   .     S
C198   C320    1.389   1_455 S
C199   N224    1.429   .     S
C199   C242    1.385   .     S
C200   N225    1.430   .     S
C200   C258    1.389   .     S
H201   N223    1.031   .     S
H205   N226    1.030   .     S
H209   O238    0.989   .     S
H210   O228    0.990   .     S
H211   O229    0.989   .     S
H213   O230    0.980   .     S
H216   N224    1.031   .     S
H220   N225    1.030   .     S
N221   Zn239   2.017   .     S
N222   Zn240   2.017   .     S
O227   Zn239   2.021   .     S
O231   Zn240   2.021   .     S
O232   Zn239   2.021   .     S
O233   Zn240   2.021   .     S
O234   Zn239   1.949   .     S
O235   Zn240   1.949   .     S
O236   Zn239   1.951   .     S
O237   Zn240   1.951   .     S
C241   C244    1.444   .     S
C241   O293    1.297   .     A
C241   O287    1.285   .     A
C242   C244    1.412   .     A
C242   N286    1.427   .     S
C243   C259    1.413   .     A
C243   C260    1.419   .     A
C243   C252    1.445   .     S
C244   C258    1.402   .     A
C245   N282    1.359   .     A
C245   O298    1.381   .     S
C246   O288    1.377   .     S
C246   N281    1.367   .     A
C246   C427    1.442   .     S
C247   O289    1.379   .     S
C247   N282    1.370   .     A
C248   N281    1.383   .     A
C248   O290    1.375   .     S
C248   C425    1.427   .     S
C249   H274    1.107   .     S
C249   N283    1.445   .     S
C249   H275    1.110   .     S
C249   H272    1.108   .     S
C250   H278    1.111   .     S
C250   H277    1.111   .     S
C250   N284    1.446   .     S
C250   H279    1.111   .     S
C251   H262    1.108   .     S
C251   N285    1.451   .     S
C251   H264    1.110   .     S
C251   H263    1.110   .     S
C252   O291    1.287   .     A
C252   O292    1.295   .     A
C253   H268    1.112   .     S
C253   N286    1.448   .     S
C253   H266    1.111   .     S
C253   H267    1.107   .     S
C254   O294    1.278   .     A
C254   C256    1.366   .     S
C254   O297    1.279   .     A
C255   O296    1.279   .     A
C255   C257    1.366   .     S
C255   O295    1.279   .     A
C256   C1337   1.165   1_554 S
C257   C796    1.165   .     S
C258   N283    1.426   .     S
C259   N284    1.429   .     S
C259   C302    1.385   .     S
C260   N285    1.430   .     S
C260   C318    1.389   .     S
H261   N283    1.031   .     S
H265   N286    1.030   .     S
H269   O298    0.989   .     S
H270   O288    0.990   .     S
H271   O289    0.989   .     S
H273   O290    0.980   .     S
H276   N284    1.031   .     S
H280   N285    1.030   .     S
N281   Zn299   2.017   .     S
N282   Zn300   2.017   .     S
O287   Zn299   2.021   .     S
O291   Zn300   2.021   .     S
O292   Zn299   2.021   .     S
O293   Zn300   2.021   .     S
O294   Zn299   1.949   .     S
O295   Zn300   1.949   .     S
O296   Zn299   1.951   .     S
O297   Zn300   1.951   .     S
C301   C304    1.444   .     S
C301   O353    1.297   .     A
C301   O347    1.285   .     A
C302   C304    1.412   .     A
C302   N346    1.427   .     S
C303   C319    1.413   .     A
C303   C320    1.419   .     A
C303   C312    1.445   .     S
C304   C318    1.402   .     A
C305   N342    1.359   .     A
C305   O358    1.381   .     S
C306   O348    1.377   .     S
C306   N341    1.367   .     A
C306   C487    1.442   .     S
C307   O349    1.379   .     S
C307   N342    1.370   .     A
C308   N341    1.383   .     A
C308   O350    1.375   .     S
C308   C485    1.427   .     S
C309   H334    1.107   .     S
C309   N343    1.445   .     S
C309   H335    1.110   .     S
C309   H332    1.108   .     S
C310   H338    1.111   .     S
C310   H337    1.111   .     S
C310   N344    1.446   .     S
C310   H339    1.111   .     S
C311   H322    1.108   .     S
C311   N345    1.451   .     S
C311   H324    1.110   .     S
C311   H323    1.110   .     S
C312   O351    1.287   .     A
C312   O352    1.295   .     A
C313   H328    1.112   .     S
C313   N346    1.448   .     S
C313   H326    1.111   .     S
C313   H327    1.107   .     S
C314   O354    1.278   .     A
C314   C316    1.366   .     S
C314   O357    1.279   .     A
C315   O356    1.279   .     A
C315   C317    1.366   .     S
C315   O355    1.279   .     A
C316   C1397   1.165   1_554 S
C317   C856    1.165   .     S
C318   N343    1.426   .     S
C319   N344    1.429   .     S
C319   C182    1.385   1_655 S
C320   N345    1.430   .     S
C320   C198    1.389   1_655 S
H321   N343    1.031   .     S
H325   N346    1.030   .     S
H329   O358    0.989   .     S
H330   O348    0.990   .     S
H331   O349    0.989   .     S
H333   O350    0.980   .     S
H336   N344    1.031   .     S
H340   N345    1.030   .     S
N341   Zn359   2.017   .     S
N342   Zn360   2.017   .     S
O347   Zn359   2.021   .     S
O351   Zn360   2.021   .     S
O352   Zn359   2.021   .     S
O353   Zn360   2.021   .     S
O354   Zn359   1.949   .     S
O355   Zn360   1.949   .     S
O356   Zn359   1.951   .     S
O357   Zn360   1.951   .     S
C361   C364    1.444   .     S
C361   O413    1.297   .     A
C361   O407    1.285   .     A
C362   C364    1.412   .     A
C362   N406    1.427   .     S
C362   C499    1.385   1_455 S
C363   C379    1.413   .     A
C363   C380    1.419   .     A
C363   C372    1.445   .     S
C364   C378    1.402   .     A
C365   N402    1.359   .     A
C365   O418    1.381   .     S
C366   O408    1.377   .     S
C366   N401    1.367   .     A
C366   C7      1.442   1_565 S
C367   O409    1.379   .     S
C367   N402    1.370   .     A
C368   N401    1.383   .     A
C368   O410    1.375   .     S
C368   C5      1.427   1_565 S
C369   H394    1.107   .     S
C369   N403    1.445   .     S
C369   H395    1.110   .     S
C369   H392    1.108   .     S
C370   H398    1.111   .     S
C370   H397    1.111   .     S
C370   N404    1.446   .     S
C370   H399    1.111   .     S
C371   H382    1.108   .     S
C371   N405    1.451   .     S
C371   H384    1.110   .     S
C371   H383    1.110   .     S
C372   O411    1.287   .     A
C372   O412    1.295   .     A
C373   H388    1.112   .     S
C373   N406    1.448   .     S
C373   H386    1.111   .     S
C373   H387    1.107   .     S
C374   O414    1.278   .     A
C374   C376    1.366   .     S
C374   O417    1.279   .     A
C375   O416    1.279   .     A
C375   C377    1.366   .     S
C375   O415    1.279   .     A
C376   C1457   1.165   1_554 S
C377   C916    1.165   .     S
C378   N403    1.426   .     S
C378   C500    1.389   1_455 S
C379   N404    1.429   .     S
C379   C422    1.385   .     S
C380   N405    1.430   .     S
C380   C438    1.389   .     S
H381   N403    1.031   .     S
H385   N406    1.030   .     S
H389   O418    0.989   .     S
H390   O408    0.990   .     S
H391   O409    0.989   .     S
H393   O410    0.980   .     S
H396   N404    1.031   .     S
H400   N405    1.030   .     S
N401   Zn419   2.017   .     S
N402   Zn420   2.017   .     S
O407   Zn419   2.021   .     S
O411   Zn420   2.021   .     S
O412   Zn419   2.021   .     S
O413   Zn420   2.021   .     S
O414   Zn419   1.949   .     S
O415   Zn420   1.949   .     S
O416   Zn419   1.951   .     S
O417   Zn420   1.951   .     S
C421   C424    1.444   .     S
C421   O473    1.297   .     A
C421   O467    1.285   .     A
C422   C424    1.412   .     A
C422   N466    1.427   .     S
C423   C439    1.413   .     A
C423   C440    1.419   .     A
C423   C432    1.445   .     S
C424   C438    1.402   .     A
C425   N462    1.359   .     A
C425   O478    1.381   .     S
C426   O468    1.377   .     S
C426   N461    1.367   .     A
C426   C67     1.442   1_565 S
C427   O469    1.379   .     S
C427   N462    1.370   .     A
C428   N461    1.383   .     A
C428   O470    1.375   .     S
C428   C65     1.427   1_565 S
C429   H454    1.107   .     S
C429   N463    1.445   .     S
C429   H455    1.110   .     S
C429   H452    1.108   .     S
C430   H458    1.111   .     S
C430   H457    1.111   .     S
C430   N464    1.446   .     S
C430   H459    1.111   .     S
C431   H442    1.108   .     S
C431   N465    1.451   .     S
C431   H444    1.110   .     S
C431   H443    1.110   .     S
C432   O471    1.287   .     A
C432   O472    1.295   .     A
C433   H448    1.112   .     S
C433   N466    1.448   .     S
C433   H446    1.111   .     S
C433   H447    1.107   .     S
C434   O474    1.278   .     A
C434   C436    1.366   .     S
C434   O477    1.279   .     A
C435   O476    1.279   .     A
C435   C437    1.366   .     S
C435   O475    1.279   .     A
C436   C1517   1.165   1_554 S
C437   C976    1.165   .     S
C438   N463    1.426   .     S
C439   N464    1.429   .     S
C439   C482    1.385   .     S
C440   N465    1.430   .     S
C440   C498    1.389   .     S
H441   N463    1.031   .     S
H445   N466    1.030   .     S
H449   O478    0.989   .     S
H450   O468    0.990   .     S
H451   O469    0.989   .     S
H453   O470    0.980   .     S
H456   N464    1.031   .     S
H460   N465    1.030   .     S
N461   Zn479   2.017   .     S
N462   Zn480   2.017   .     S
O467   Zn479   2.021   .     S
O471   Zn480   2.021   .     S
O472   Zn479   2.021   .     S
O473   Zn480   2.021   .     S
O474   Zn479   1.949   .     S
O475   Zn480   1.949   .     S
O476   Zn479   1.951   .     S
O477   Zn480   1.951   .     S
C481   C484    1.444   .     S
C481   O533    1.297   .     A
C481   O527    1.285   .     A
C482   C484    1.412   .     A
C482   N526    1.427   .     S
C483   C499    1.413   .     A
C483   C500    1.419   .     A
C483   C492    1.445   .     S
C484   C498    1.402   .     A
C485   N522    1.359   .     A
C485   O538    1.381   .     S
C486   O528    1.377   .     S
C486   N521    1.367   .     A
C486   C127    1.442   1_565 S
C487   O529    1.379   .     S
C487   N522    1.370   .     A
C488   N521    1.383   .     A
C488   O530    1.375   .     S
C488   C125    1.427   1_565 S
C489   H514    1.107   .     S
C489   N523    1.445   .     S
C489   H515    1.110   .     S
C489   H512    1.108   .     S
C490   H518    1.111   .     S
C490   H517    1.111   .     S
C490   N524    1.446   .     S
C490   H519    1.111   .     S
C491   H502    1.108   .     S
C491   N525    1.451   .     S
C491   H504    1.110   .     S
C491   H503    1.110   .     S
C492   O531    1.287   .     A
C492   O532    1.295   .     A
C493   H508    1.112   .     S
C493   N526    1.448   .     S
C493   H506    1.111   .     S
C493   H507    1.107   .     S
C494   O534    1.278   .     A
C494   C496    1.366   .     S
C494   O537    1.279   .     A
C495   O536    1.279   .     A
C495   C497    1.366   .     S
C495   O535    1.279   .     A
C496   C1577   1.165   1_554 S
C497   C1036   1.165   .     S
C498   N523    1.426   .     S
C499   N524    1.429   .     S
C499   C362    1.385   1_655 S
C500   N525    1.430   .     S
C500   C378    1.389   1_655 S
H501   N523    1.031   .     S
H505   N526    1.030   .     S
H509   O538    0.989   .     S
H510   O528    0.990   .     S
H511   O529    0.989   .     S
H513   O530    0.980   .     S
H516   N524    1.031   .     S
H520   N525    1.030   .     S
N521   Zn539   2.017   .     S
N522   Zn540   2.017   .     S
O527   Zn539   2.021   .     S
O531   Zn540   2.021   .     S
O532   Zn539   2.021   .     S
O533   Zn540   2.021   .     S
O534   Zn539   1.949   .     S
O535   Zn540   1.949   .     S
O536   Zn539   1.951   .     S
O537   Zn540   1.951   .     S
C541   C544    1.444   .     S
C541   O593    1.297   .     A
C541   O587    1.285   .     A
C542   C544    1.412   .     A
C542   N586    1.427   .     S
C542   C679    1.385   1_455 S
C543   C559    1.413   .     A
C543   C560    1.419   .     A
C543   C552    1.445   .     S
C544   C558    1.402   .     A
C545   N582    1.359   .     A
C545   O598    1.381   .     S
C545   C908    1.427   1_545 S
C546   O588    1.377   .     S
C546   N581    1.367   .     A
C546   C727    1.442   .     S
C547   O589    1.379   .     S
C547   N582    1.370   .     A
C547   C906    1.442   1_545 S
C548   N581    1.383   .     A
C548   O590    1.375   .     S
C548   C725    1.427   .     S
C549   H574    1.107   .     S
C549   N583    1.445   .     S
C549   H575    1.110   .     S
C549   H572    1.108   .     S
C550   H578    1.111   .     S
C550   H577    1.111   .     S
C550   N584    1.446   .     S
C550   H579    1.111   .     S
C551   H562    1.108   .     S
C551   N585    1.451   .     S
C551   H564    1.110   .     S
C551   H563    1.110   .     S
C552   O591    1.287   .     A
C552   O592    1.295   .     A
C553   H568    1.112   .     S
C553   N586    1.448   .     S
C553   H566    1.111   .     S
C553   H567    1.107   .     S
C554   O594    1.278   .     A
C554   C556    1.366   .     S
C554   O597    1.279   .     A
C555   O596    1.279   .     A
C555   C557    1.366   .     S
C555   O595    1.279   .     A
C557   C1096   1.165   .     S
C558   N583    1.426   .     S
C558   C680    1.389   1_455 S
C559   N584    1.429   .     S
C559   C602    1.385   .     S
C560   N585    1.430   .     S
C560   C618    1.389   .     S
H561   N583    1.031   .     S
H565   N586    1.030   .     S
H569   O598    0.989   .     S
H570   O588    0.990   .     S
H571   O589    0.989   .     S
H573   O590    0.980   .     S
H576   N584    1.031   .     S
H580   N585    1.030   .     S
N581   Zn599   2.017   .     S
N582   Zn600   2.017   .     S
O587   Zn599   2.021   .     S
O591   Zn600   2.021   .     S
O592   Zn599   2.021   .     S
O593   Zn600   2.021   .     S
O594   Zn599   1.949   .     S
O595   Zn600   1.949   .     S
O596   Zn599   1.951   .     S
O597   Zn600   1.951   .     S
C601   C604    1.444   .     S
C601   O653    1.297   .     A
C601   O647    1.285   .     A
C602   C604    1.412   .     A
C602   N646    1.427   .     S
C603   C619    1.413   .     A
C603   C620    1.419   .     A
C603   C612    1.445   .     S
C604   C618    1.402   .     A
C605   N642    1.359   .     A
C605   O658    1.381   .     S
C605   C968    1.427   1_545 S
C606   O648    1.377   .     S
C606   N641    1.367   .     A
C606   C787    1.442   .     S
C607   O649    1.379   .     S
C607   N642    1.370   .     A
C607   C966    1.442   1_545 S
C608   N641    1.383   .     A
C608   O650    1.375   .     S
C608   C785    1.427   .     S
C609   H634    1.107   .     S
C609   N643    1.445   .     S
C609   H635    1.110   .     S
C609   H632    1.108   .     S
C610   H638    1.111   .     S
C610   H637    1.111   .     S
C610   N644    1.446   .     S
C610   H639    1.111   .     S
C611   H622    1.108   .     S
C611   N645    1.451   .     S
C611   H624    1.110   .     S
C611   H623    1.110   .     S
C612   O651    1.287   .     A
C612   O652    1.295   .     A
C613   H628    1.112   .     S
C613   N646    1.448   .     S
C613   H626    1.111   .     S
C613   H627    1.107   .     S
C614   O654    1.278   .     A
C614   C616    1.366   .     S
C614   O657    1.279   .     A
C615   O656    1.279   .     A
C615   C617    1.366   .     S
C615   O655    1.279   .     A
C617   C1156   1.165   .     S
C618   N643    1.426   .     S
C619   N644    1.429   .     S
C619   C662    1.385   .     S
C620   N645    1.430   .     S
C620   C678    1.389   .     S
H621   N643    1.031   .     S
H625   N646    1.030   .     S
H629   O658    0.989   .     S
H630   O648    0.990   .     S
H631   O649    0.989   .     S
H633   O650    0.980   .     S
H636   N644    1.031   .     S
H640   N645    1.030   .     S
N641   Zn659   2.017   .     S
N642   Zn660   2.017   .     S
O647   Zn659   2.021   .     S
O651   Zn660   2.021   .     S
O652   Zn659   2.021   .     S
O653   Zn660   2.021   .     S
O654   Zn659   1.949   .     S
O655   Zn660   1.949   .     S
O656   Zn659   1.951   .     S
O657   Zn660   1.951   .     S
C661   C664    1.444   .     S
C661   O713    1.297   .     A
C661   O707    1.285   .     A
C662   C664    1.412   .     A
C662   N706    1.427   .     S
C663   C679    1.413   .     A
C663   C680    1.419   .     A
C663   C672    1.445   .     S
C664   C678    1.402   .     A
C665   N702    1.359   .     A
C665   O718    1.381   .     S
C665   C1028   1.427   1_545 S
C666   O708    1.377   .     S
C666   N701    1.367   .     A
C666   C847    1.442   .     S
C667   O709    1.379   .     S
C667   N702    1.370   .     A
C667   C1026   1.442   1_545 S
C668   N701    1.383   .     A
C668   O710    1.375   .     S
C668   C845    1.427   .     S
C669   H694    1.107   .     S
C669   N703    1.445   .     S
C669   H695    1.110   .     S
C669   H692    1.108   .     S
C670   H698    1.111   .     S
C670   H697    1.111   .     S
C670   N704    1.446   .     S
C670   H699    1.111   .     S
C671   H682    1.108   .     S
C671   N705    1.451   .     S
C671   H684    1.110   .     S
C671   H683    1.110   .     S
C672   O711    1.287   .     A
C672   O712    1.295   .     A
C673   H688    1.112   .     S
C673   N706    1.448   .     S
C673   H686    1.111   .     S
C673   H687    1.107   .     S
C674   O714    1.278   .     A
C674   C676    1.366   .     S
C674   O717    1.279   .     A
C675   O716    1.279   .     A
C675   C677    1.366   .     S
C675   O715    1.279   .     A
C677   C1216   1.165   .     S
C678   N703    1.426   .     S
C679   N704    1.429   .     S
C679   C542    1.385   1_655 S
C680   N705    1.430   .     S
C680   C558    1.389   1_655 S
H681   N703    1.031   .     S
H685   N706    1.030   .     S
H689   O718    0.989   .     S
H690   O708    0.990   .     S
H691   O709    0.989   .     S
H693   O710    0.980   .     S
H696   N704    1.031   .     S
H700   N705    1.030   .     S
N701   Zn719   2.017   .     S
N702   Zn720   2.017   .     S
O707   Zn719   2.021   .     S
O711   Zn720   2.021   .     S
O712   Zn719   2.021   .     S
O713   Zn720   2.021   .     S
O714   Zn719   1.949   .     S
O715   Zn720   1.949   .     S
O716   Zn719   1.951   .     S
O717   Zn720   1.951   .     S
C721   C724    1.444   .     S
C721   O773    1.297   .     A
C721   O767    1.285   .     A
C722   C724    1.412   .     A
C722   N766    1.427   .     S
C722   C859    1.385   1_455 S
C723   C739    1.413   .     A
C723   C740    1.419   .     A
C723   C732    1.445   .     S
C724   C738    1.402   .     A
C725   N762    1.359   .     A
C725   O778    1.381   .     S
C726   O768    1.377   .     S
C726   N761    1.367   .     A
C726   C907    1.442   .     S
C727   O769    1.379   .     S
C727   N762    1.370   .     A
C728   N761    1.383   .     A
C728   O770    1.375   .     S
C728   C905    1.427   .     S
C729   H754    1.107   .     S
C729   N763    1.445   .     S
C729   H755    1.110   .     S
C729   H752    1.108   .     S
C730   H758    1.111   .     S
C730   H757    1.111   .     S
C730   N764    1.446   .     S
C730   H759    1.111   .     S
C731   H742    1.108   .     S
C731   N765    1.451   .     S
C731   H744    1.110   .     S
C731   H743    1.110   .     S
C732   O771    1.287   .     A
C732   O772    1.295   .     A
C733   H748    1.112   .     S
C733   N766    1.448   .     S
C733   H746    1.111   .     S
C733   H747    1.107   .     S
C734   O774    1.278   .     A
C734   C736    1.366   .     S
C734   O777    1.279   .     A
C735   O776    1.279   .     A
C735   C737    1.366   .     S
C735   O775    1.279   .     A
C737   C1276   1.165   .     S
C738   N763    1.426   .     S
C738   C860    1.389   1_455 S
C739   N764    1.429   .     S
C739   C782    1.385   .     S
C740   N765    1.430   .     S
C740   C798    1.389   .     S
H741   N763    1.031   .     S
H745   N766    1.030   .     S
H749   O778    0.989   .     S
H750   O768    0.990   .     S
H751   O769    0.989   .     S
H753   O770    0.980   .     S
H756   N764    1.031   .     S
H760   N765    1.030   .     S
N761   Zn779   2.017   .     S
N762   Zn780   2.017   .     S
O767   Zn779   2.021   .     S
O771   Zn780   2.021   .     S
O772   Zn779   2.021   .     S
O773   Zn780   2.021   .     S
O774   Zn779   1.949   .     S
O775   Zn780   1.949   .     S
O776   Zn779   1.951   .     S
O777   Zn780   1.951   .     S
C781   C784    1.444   .     S
C781   O833    1.297   .     A
C781   O827    1.285   .     A
C782   C784    1.412   .     A
C782   N826    1.427   .     S
C783   C799    1.413   .     A
C783   C800    1.419   .     A
C783   C792    1.445   .     S
C784   C798    1.402   .     A
C785   N822    1.359   .     A
C785   O838    1.381   .     S
C786   O828    1.377   .     S
C786   N821    1.367   .     A
C786   C967    1.442   .     S
C787   O829    1.379   .     S
C787   N822    1.370   .     A
C788   N821    1.383   .     A
C788   O830    1.375   .     S
C788   C965    1.427   .     S
C789   H814    1.107   .     S
C789   N823    1.445   .     S
C789   H815    1.110   .     S
C789   H812    1.108   .     S
C790   H818    1.111   .     S
C790   H817    1.111   .     S
C790   N824    1.446   .     S
C790   H819    1.111   .     S
C791   H802    1.108   .     S
C791   N825    1.451   .     S
C791   H804    1.110   .     S
C791   H803    1.110   .     S
C792   O831    1.287   .     A
C792   O832    1.295   .     A
C793   H808    1.112   .     S
C793   N826    1.448   .     S
C793   H806    1.111   .     S
C793   H807    1.107   .     S
C794   O834    1.278   .     A
C794   C796    1.366   .     S
C794   O837    1.279   .     A
C795   O836    1.279   .     A
C795   C797    1.366   .     S
C795   O835    1.279   .     A
C797   C1336   1.165   .     S
C798   N823    1.426   .     S
C799   N824    1.429   .     S
C799   C842    1.385   .     S
C800   N825    1.430   .     S
C800   C858    1.389   .     S
H801   N823    1.031   .     S
H805   N826    1.030   .     S
H809   O838    0.989   .     S
H810   O828    0.990   .     S
H811   O829    0.989   .     S
H813   O830    0.980   .     S
H816   N824    1.031   .     S
H820   N825    1.030   .     S
N821   Zn839   2.017   .     S
N822   Zn840   2.017   .     S
O827   Zn839   2.021   .     S
O831   Zn840   2.021   .     S
O832   Zn839   2.021   .     S
O833   Zn840   2.021   .     S
O834   Zn839   1.949   .     S
O835   Zn840   1.949   .     S
O836   Zn839   1.951   .     S
O837   Zn840   1.951   .     S
C841   C844    1.444   .     S
C841   O893    1.297   .     A
C841   O887    1.285   .     A
C842   C844    1.412   .     A
C842   N886    1.427   .     S
C843   C859    1.413   .     A
C843   C860    1.419   .     A
C843   C852    1.445   .     S
C844   C858    1.402   .     A
C845   N882    1.359   .     A
C845   O898    1.381   .     S
C846   O888    1.377   .     S
C846   N881    1.367   .     A
C846   C1027   1.442   .     S
C847   O889    1.379   .     S
C847   N882    1.370   .     A
C848   N881    1.383   .     A
C848   O890    1.375   .     S
C848   C1025   1.427   .     S
C849   H874    1.107   .     S
C849   N883    1.445   .     S
C849   H875    1.110   .     S
C849   H872    1.108   .     S
C850   H878    1.111   .     S
C850   H877    1.111   .     S
C850   N884    1.446   .     S
C850   H879    1.111   .     S
C851   H862    1.108   .     S
C851   N885    1.451   .     S
C851   H864    1.110   .     S
C851   H863    1.110   .     S
C852   O891    1.287   .     A
C852   O892    1.295   .     A
C853   H868    1.112   .     S
C853   N886    1.448   .     S
C853   H866    1.111   .     S
C853   H867    1.107   .     S
C854   O894    1.278   .     A
C854   C856    1.366   .     S
C854   O897    1.279   .     A
C855   O896    1.279   .     A
C855   C857    1.366   .     S
C855   O895    1.279   .     A
C857   C1396   1.165   .     S
C858   N883    1.426   .     S
C859   N884    1.429   .     S
C859   C722    1.385   1_655 S
C860   N885    1.430   .     S
C860   C738    1.389   1_655 S
H861   N883    1.031   .     S
H865   N886    1.030   .     S
H869   O898    0.989   .     S
H870   O888    0.990   .     S
H871   O889    0.989   .     S
H873   O890    0.980   .     S
H876   N884    1.031   .     S
H880   N885    1.030   .     S
N881   Zn899   2.017   .     S
N882   Zn900   2.017   .     S
O887   Zn899   2.021   .     S
O891   Zn900   2.021   .     S
O892   Zn899   2.021   .     S
O893   Zn900   2.021   .     S
O894   Zn899   1.949   .     S
O895   Zn900   1.949   .     S
O896   Zn899   1.951   .     S
O897   Zn900   1.951   .     S
C901   C904    1.444   .     S
C901   O953    1.297   .     A
C901   O947    1.285   .     A
C902   C904    1.412   .     A
C902   N946    1.427   .     S
C902   C1039   1.385   1_455 S
C903   C919    1.413   .     A
C903   C920    1.419   .     A
C903   C912    1.445   .     S
C904   C918    1.402   .     A
C905   N942    1.359   .     A
C905   O958    1.381   .     S
C906   O948    1.377   .     S
C906   N941    1.367   .     A
C906   C547    1.442   1_565 S
C907   O949    1.379   .     S
C907   N942    1.370   .     A
C908   N941    1.383   .     A
C908   O950    1.375   .     S
C908   C545    1.427   1_565 S
C909   H934    1.107   .     S
C909   N943    1.445   .     S
C909   H935    1.110   .     S
C909   H932    1.108   .     S
C910   H938    1.111   .     S
C910   H937    1.111   .     S
C910   N944    1.446   .     S
C910   H939    1.111   .     S
C911   H922    1.108   .     S
C911   N945    1.451   .     S
C911   H924    1.110   .     S
C911   H923    1.110   .     S
C912   O951    1.287   .     A
C912   O952    1.295   .     A
C913   H928    1.112   .     S
C913   N946    1.448   .     S
C913   H926    1.111   .     S
C913   H927    1.107   .     S
C914   O954    1.278   .     A
C914   C916    1.366   .     S
C914   O957    1.279   .     A
C915   O956    1.279   .     A
C915   C917    1.366   .     S
C915   O955    1.279   .     A
C917   C1456   1.165   .     S
C918   N943    1.426   .     S
C918   C1040   1.389   1_455 S
C919   N944    1.429   .     S
C919   C962    1.385   .     S
C920   N945    1.430   .     S
C920   C978    1.389   .     S
H921   N943    1.031   .     S
H925   N946    1.030   .     S
H929   O958    0.989   .     S
H930   O948    0.990   .     S
H931   O949    0.989   .     S
H933   O950    0.980   .     S
H936   N944    1.031   .     S
H940   N945    1.030   .     S
N941   Zn959   2.017   .     S
N942   Zn960   2.017   .     S
O947   Zn959   2.021   .     S
O951   Zn960   2.021   .     S
O952   Zn959   2.021   .     S
O953   Zn960   2.021   .     S
O954   Zn959   1.949   .     S
O955   Zn960   1.949   .     S
O956   Zn959   1.951   .     S
O957   Zn960   1.951   .     S
C961   C964    1.444   .     S
C961   O1013   1.297   .     A
C961   O1007   1.285   .     A
C962   C964    1.412   .     A
C962   N1006   1.427   .     S
C963   C979    1.413   .     A
C963   C980    1.419   .     A
C963   C972    1.445   .     S
C964   C978    1.402   .     A
C965   N1002   1.359   .     A
C965   O1018   1.381   .     S
C966   O1008   1.377   .     S
C966   N1001   1.367   .     A
C966   C607    1.442   1_565 S
C967   O1009   1.379   .     S
C967   N1002   1.370   .     A
C968   N1001   1.383   .     A
C968   O1010   1.375   .     S
C968   C605    1.427   1_565 S
C969   H994    1.107   .     S
C969   N1003   1.445   .     S
C969   H995    1.110   .     S
C969   H992    1.108   .     S
C970   H998    1.111   .     S
C970   H997    1.111   .     S
C970   N1004   1.446   .     S
C970   H999    1.111   .     S
C971   H982    1.108   .     S
C971   N1005   1.451   .     S
C971   H984    1.110   .     S
C971   H983    1.110   .     S
C972   O1011   1.287   .     A
C972   O1012   1.295   .     A
C973   H988    1.112   .     S
C973   N1006   1.448   .     S
C973   H986    1.111   .     S
C973   H987    1.107   .     S
C974   O1014   1.278   .     A
C974   C976    1.366   .     S
C974   O1017   1.279   .     A
C975   O1016   1.279   .     A
C975   C977    1.366   .     S
C975   O1015   1.279   .     A
C977   C1516   1.165   .     S
C978   N1003   1.426   .     S
C979   N1004   1.429   .     S
C979   C1022   1.385   .     S
C980   N1005   1.430   .     S
C980   C1038   1.389   .     S
H981   N1003   1.031   .     S
H985   N1006   1.030   .     S
H989   O1018   0.989   .     S
H990   O1008   0.990   .     S
H991   O1009   0.989   .     S
H993   O1010   0.980   .     S
H996   N1004   1.031   .     S
H1000  N1005   1.030   .     S
N1001  Zn1019  2.017   .     S
N1002  Zn1020  2.017   .     S
O1007  Zn1019  2.021   .     S
O1011  Zn1020  2.021   .     S
O1012  Zn1019  2.021   .     S
O1013  Zn1020  2.021   .     S
O1014  Zn1019  1.949   .     S
O1015  Zn1020  1.949   .     S
O1016  Zn1019  1.951   .     S
O1017  Zn1020  1.951   .     S
C1021  C1024   1.444   .     S
C1021  O1073   1.297   .     A
C1021  O1067   1.285   .     A
C1022  C1024   1.412   .     A
C1022  N1066   1.427   .     S
C1023  C1039   1.413   .     A
C1023  C1040   1.419   .     A
C1023  C1032   1.445   .     S
C1024  C1038   1.402   .     A
C1025  N1062   1.359   .     A
C1025  O1078   1.381   .     S
C1026  O1068   1.377   .     S
C1026  N1061   1.367   .     A
C1026  C667    1.442   1_565 S
C1027  O1069   1.379   .     S
C1027  N1062   1.370   .     A
C1028  N1061   1.383   .     A
C1028  O1070   1.375   .     S
C1028  C665    1.427   1_565 S
C1029  H1054   1.107   .     S
C1029  N1063   1.445   .     S
C1029  H1055   1.110   .     S
C1029  H1052   1.108   .     S
C1030  H1058   1.111   .     S
C1030  H1057   1.111   .     S
C1030  N1064   1.446   .     S
C1030  H1059   1.111   .     S
C1031  H1042   1.108   .     S
C1031  N1065   1.451   .     S
C1031  H1044   1.110   .     S
C1031  H1043   1.110   .     S
C1032  O1071   1.287   .     A
C1032  O1072   1.295   .     A
C1033  H1048   1.112   .     S
C1033  N1066   1.448   .     S
C1033  H1046   1.111   .     S
C1033  H1047   1.107   .     S
C1034  O1074   1.278   .     A
C1034  C1036   1.366   .     S
C1034  O1077   1.279   .     A
C1035  O1076   1.279   .     A
C1035  C1037   1.366   .     S
C1035  O1075   1.279   .     A
C1037  C1576   1.165   .     S
C1038  N1063   1.426   .     S
C1039  N1064   1.429   .     S
C1039  C902    1.385   1_655 S
C1040  N1065   1.430   .     S
C1040  C918    1.389   1_655 S
H1041  N1063   1.031   .     S
H1045  N1066   1.030   .     S
H1049  O1078   0.989   .     S
H1050  O1068   0.990   .     S
H1051  O1069   0.989   .     S
H1053  O1070   0.980   .     S
H1056  N1064   1.031   .     S
H1060  N1065   1.030   .     S
N1061  Zn1079  2.017   .     S
N1062  Zn1080  2.017   .     S
O1067  Zn1079  2.021   .     S
O1071  Zn1080  2.021   .     S
O1072  Zn1079  2.021   .     S
O1073  Zn1080  2.021   .     S
O1074  Zn1079  1.949   .     S
O1075  Zn1080  1.949   .     S
O1076  Zn1079  1.951   .     S
O1077  Zn1080  1.951   .     S
C1081  C1084   1.444   .     S
C1081  O1133   1.297   .     A
C1081  O1127   1.285   .     A
C1082  C1084   1.412   .     A
C1082  N1126   1.427   .     S
C1082  C1219   1.385   1_455 S
C1083  C1099   1.413   .     A
C1083  C1100   1.419   .     A
C1083  C1092   1.445   .     S
C1084  C1098   1.402   .     A
C1085  N1122   1.359   .     A
C1085  O1138   1.381   .     S
C1085  C1448   1.427   1_545 S
C1086  O1128   1.377   .     S
C1086  N1121   1.367   .     A
C1086  C1267   1.442   .     S
C1087  O1129   1.379   .     S
C1087  N1122   1.370   .     A
C1087  C1446   1.442   1_545 S
C1088  N1121   1.383   .     A
C1088  O1130   1.375   .     S
C1088  C1265   1.427   .     S
C1089  H1114   1.107   .     S
C1089  N1123   1.445   .     S
C1089  H1115   1.110   .     S
C1089  H1112   1.108   .     S
C1090  H1118   1.111   .     S
C1090  H1117   1.111   .     S
C1090  N1124   1.446   .     S
C1090  H1119   1.111   .     S
C1091  H1102   1.108   .     S
C1091  N1125   1.451   .     S
C1091  H1104   1.110   .     S
C1091  H1103   1.110   .     S
C1092  O1131   1.287   .     A
C1092  O1132   1.295   .     A
C1093  H1108   1.112   .     S
C1093  N1126   1.448   .     S
C1093  H1106   1.111   .     S
C1093  H1107   1.107   .     S
C1094  O1134   1.278   .     A
C1094  C1096   1.366   .     S
C1094  O1137   1.279   .     A
C1095  O1136   1.279   .     A
C1095  C1097   1.366   .     S
C1095  O1135   1.279   .     A
C1097  C16     1.165   1_556 S
C1098  N1123   1.426   .     S
C1098  C1220   1.389   1_455 S
C1099  N1124   1.429   .     S
C1099  C1142   1.385   .     S
C1100  N1125   1.430   .     S
C1100  C1158   1.389   .     S
H1101  N1123   1.031   .     S
H1105  N1126   1.030   .     S
H1109  O1138   0.989   .     S
H1110  O1128   0.990   .     S
H1111  O1129   0.989   .     S
H1113  O1130   0.980   .     S
H1116  N1124   1.031   .     S
H1120  N1125   1.030   .     S
N1121  Zn1139  2.017   .     S
N1122  Zn1140  2.017   .     S
O1127  Zn1139  2.021   .     S
O1131  Zn1140  2.021   .     S
O1132  Zn1139  2.021   .     S
O1133  Zn1140  2.021   .     S
O1134  Zn1139  1.949   .     S
O1135  Zn1140  1.949   .     S
O1136  Zn1139  1.951   .     S
O1137  Zn1140  1.951   .     S
C1141  C1144   1.444   .     S
C1141  O1193   1.297   .     A
C1141  O1187   1.285   .     A
C1142  C1144   1.412   .     A
C1142  N1186   1.427   .     S
C1143  C1159   1.413   .     A
C1143  C1160   1.419   .     A
C1143  C1152   1.445   .     S
C1144  C1158   1.402   .     A
C1145  N1182   1.359   .     A
C1145  O1198   1.381   .     S
C1145  C1508   1.427   1_545 S
C1146  O1188   1.377   .     S
C1146  N1181   1.367   .     A
C1146  C1327   1.442   .     S
C1147  O1189   1.379   .     S
C1147  N1182   1.370   .     A
C1147  C1506   1.442   1_545 S
C1148  N1181   1.383   .     A
C1148  O1190   1.375   .     S
C1148  C1325   1.427   .     S
C1149  H1174   1.107   .     S
C1149  N1183   1.445   .     S
C1149  H1175   1.110   .     S
C1149  H1172   1.108   .     S
C1150  H1178   1.111   .     S
C1150  H1177   1.111   .     S
C1150  N1184   1.446   .     S
C1150  H1179   1.111   .     S
C1151  H1162   1.108   .     S
C1151  N1185   1.451   .     S
C1151  H1164   1.110   .     S
C1151  H1163   1.110   .     S
C1152  O1191   1.287   .     A
C1152  O1192   1.295   .     A
C1153  H1168   1.112   .     S
C1153  N1186   1.448   .     S
C1153  H1166   1.111   .     S
C1153  H1167   1.107   .     S
C1154  O1194   1.278   .     A
C1154  C1156   1.366   .     S
C1154  O1197   1.279   .     A
C1155  O1196   1.279   .     A
C1155  C1157   1.366   .     S
C1155  O1195   1.279   .     A
C1157  C76     1.165   1_556 S
C1158  N1183   1.426   .     S
C1159  N1184   1.429   .     S
C1159  C1202   1.385   .     S
C1160  N1185   1.430   .     S
C1160  C1218   1.389   .     S
H1161  N1183   1.031   .     S
H1165  N1186   1.030   .     S
H1169  O1198   0.989   .     S
H1170  O1188   0.990   .     S
H1171  O1189   0.989   .     S
H1173  O1190   0.980   .     S
H1176  N1184   1.031   .     S
H1180  N1185   1.030   .     S
N1181  Zn1199  2.017   .     S
N1182  Zn1200  2.017   .     S
O1187  Zn1199  2.021   .     S
O1191  Zn1200  2.021   .     S
O1192  Zn1199  2.021   .     S
O1193  Zn1200  2.021   .     S
O1194  Zn1199  1.949   .     S
O1195  Zn1200  1.949   .     S
O1196  Zn1199  1.951   .     S
O1197  Zn1200  1.951   .     S
C1201  C1204   1.444   .     S
C1201  O1253   1.297   .     A
C1201  O1247   1.285   .     A
C1202  C1204   1.412   .     A
C1202  N1246   1.427   .     S
C1203  C1219   1.413   .     A
C1203  C1220   1.419   .     A
C1203  C1212   1.445   .     S
C1204  C1218   1.402   .     A
C1205  N1242   1.359   .     A
C1205  O1258   1.381   .     S
C1205  C1568   1.427   1_545 S
C1206  O1248   1.377   .     S
C1206  N1241   1.367   .     A
C1206  C1387   1.442   .     S
C1207  O1249   1.379   .     S
C1207  N1242   1.370   .     A
C1207  C1566   1.442   1_545 S
C1208  N1241   1.383   .     A
C1208  O1250   1.375   .     S
C1208  C1385   1.427   .     S
C1209  H1234   1.107   .     S
C1209  N1243   1.445   .     S
C1209  H1235   1.110   .     S
C1209  H1232   1.108   .     S
C1210  H1238   1.111   .     S
C1210  H1237   1.111   .     S
C1210  N1244   1.446   .     S
C1210  H1239   1.111   .     S
C1211  H1222   1.108   .     S
C1211  N1245   1.451   .     S
C1211  H1224   1.110   .     S
C1211  H1223   1.110   .     S
C1212  O1251   1.287   .     A
C1212  O1252   1.295   .     A
C1213  H1228   1.112   .     S
C1213  N1246   1.448   .     S
C1213  H1226   1.111   .     S
C1213  H1227   1.107   .     S
C1214  O1254   1.278   .     A
C1214  C1216   1.366   .     S
C1214  O1257   1.279   .     A
C1215  O1256   1.279   .     A
C1215  C1217   1.366   .     S
C1215  O1255   1.279   .     A
C1217  C136    1.165   1_556 S
C1218  N1243   1.426   .     S
C1219  N1244   1.429   .     S
C1219  C1082   1.385   1_655 S
C1220  N1245   1.430   .     S
C1220  C1098   1.389   1_655 S
H1221  N1243   1.031   .     S
H1225  N1246   1.030   .     S
H1229  O1258   0.989   .     S
H1230  O1248   0.990   .     S
H1231  O1249   0.989   .     S
H1233  O1250   0.980   .     S
H1236  N1244   1.031   .     S
H1240  N1245   1.030   .     S
N1241  Zn1259  2.017   .     S
N1242  Zn1260  2.017   .     S
O1247  Zn1259  2.021   .     S
O1251  Zn1260  2.021   .     S
O1252  Zn1259  2.021   .     S
O1253  Zn1260  2.021   .     S
O1254  Zn1259  1.949   .     S
O1255  Zn1260  1.949   .     S
O1256  Zn1259  1.951   .     S
O1257  Zn1260  1.951   .     S
C1261  C1264   1.444   .     S
C1261  O1313   1.297   .     A
C1261  O1307   1.285   .     A
C1262  C1264   1.412   .     A
C1262  N1306   1.427   .     S
C1262  C1399   1.385   1_455 S
C1263  C1279   1.413   .     A
C1263  C1280   1.419   .     A
C1263  C1272   1.445   .     S
C1264  C1278   1.402   .     A
C1265  N1302   1.359   .     A
C1265  O1318   1.381   .     S
C1266  O1308   1.377   .     S
C1266  N1301   1.367   .     A
C1266  C1447   1.442   .     S
C1267  O1309   1.379   .     S
C1267  N1302   1.370   .     A
C1268  N1301   1.383   .     A
C1268  O1310   1.375   .     S
C1268  C1445   1.427   .     S
C1269  H1294   1.107   .     S
C1269  N1303   1.445   .     S
C1269  H1295   1.110   .     S
C1269  H1292   1.108   .     S
C1270  H1298   1.111   .     S
C1270  H1297   1.111   .     S
C1270  N1304   1.446   .     S
C1270  H1299   1.111   .     S
C1271  H1282   1.108   .     S
C1271  N1305   1.451   .     S
C1271  H1284   1.110   .     S
C1271  H1283   1.110   .     S
C1272  O1311   1.287   .     A
C1272  O1312   1.295   .     A
C1273  H1288   1.112   .     S
C1273  N1306   1.448   .     S
C1273  H1286   1.111   .     S
C1273  H1287   1.107   .     S
C1274  O1314   1.278   .     A
C1274  C1276   1.366   .     S
C1274  O1317   1.279   .     A
C1275  O1316   1.279   .     A
C1275  C1277   1.366   .     S
C1275  O1315   1.279   .     A
C1277  C196    1.165   1_556 S
C1278  N1303   1.426   .     S
C1278  C1400   1.389   1_455 S
C1279  N1304   1.429   .     S
C1279  C1322   1.385   .     S
C1280  N1305   1.430   .     S
C1280  C1338   1.389   .     S
H1281  N1303   1.031   .     S
H1285  N1306   1.030   .     S
H1289  O1318   0.989   .     S
H1290  O1308   0.990   .     S
H1291  O1309   0.989   .     S
H1293  O1310   0.980   .     S
H1296  N1304   1.031   .     S
H1300  N1305   1.030   .     S
N1301  Zn1319  2.017   .     S
N1302  Zn1320  2.017   .     S
O1307  Zn1319  2.021   .     S
O1311  Zn1320  2.021   .     S
O1312  Zn1319  2.021   .     S
O1313  Zn1320  2.021   .     S
O1314  Zn1319  1.949   .     S
O1315  Zn1320  1.949   .     S
O1316  Zn1319  1.951   .     S
O1317  Zn1320  1.951   .     S
C1321  C1324   1.444   .     S
C1321  O1373   1.297   .     A
C1321  O1367   1.285   .     A
C1322  C1324   1.412   .     A
C1322  N1366   1.427   .     S
C1323  C1339   1.413   .     A
C1323  C1340   1.419   .     A
C1323  C1332   1.445   .     S
C1324  C1338   1.402   .     A
C1325  N1362   1.359   .     A
C1325  O1378   1.381   .     S
C1326  O1368   1.377   .     S
C1326  N1361   1.367   .     A
C1326  C1507   1.442   .     S
C1327  O1369   1.379   .     S
C1327  N1362   1.370   .     A
C1328  N1361   1.383   .     A
C1328  O1370   1.375   .     S
C1328  C1505   1.427   .     S
C1329  H1354   1.107   .     S
C1329  N1363   1.445   .     S
C1329  H1355   1.110   .     S
C1329  H1352   1.108   .     S
C1330  H1358   1.111   .     S
C1330  H1357   1.111   .     S
C1330  N1364   1.446   .     S
C1330  H1359   1.111   .     S
C1331  H1342   1.108   .     S
C1331  N1365   1.451   .     S
C1331  H1344   1.110   .     S
C1331  H1343   1.110   .     S
C1332  O1371   1.287   .     A
C1332  O1372   1.295   .     A
C1333  H1348   1.112   .     S
C1333  N1366   1.448   .     S
C1333  H1346   1.111   .     S
C1333  H1347   1.107   .     S
C1334  O1374   1.278   .     A
C1334  C1336   1.366   .     S
C1334  O1377   1.279   .     A
C1335  O1376   1.279   .     A
C1335  C1337   1.366   .     S
C1335  O1375   1.279   .     A
C1337  C256    1.165   1_556 S
C1338  N1363   1.426   .     S
C1339  N1364   1.429   .     S
C1339  C1382   1.385   .     S
C1340  N1365   1.430   .     S
C1340  C1398   1.389   .     S
H1341  N1363   1.031   .     S
H1345  N1366   1.030   .     S
H1349  O1378   0.989   .     S
H1350  O1368   0.990   .     S
H1351  O1369   0.989   .     S
H1353  O1370   0.980   .     S
H1356  N1364   1.031   .     S
H1360  N1365   1.030   .     S
N1361  Zn1379  2.017   .     S
N1362  Zn1380  2.017   .     S
O1367  Zn1379  2.021   .     S
O1371  Zn1380  2.021   .     S
O1372  Zn1379  2.021   .     S
O1373  Zn1380  2.021   .     S
O1374  Zn1379  1.949   .     S
O1375  Zn1380  1.949   .     S
O1376  Zn1379  1.951   .     S
O1377  Zn1380  1.951   .     S
C1381  C1384   1.444   .     S
C1381  O1433   1.297   .     A
C1381  O1427   1.285   .     A
C1382  C1384   1.412   .     A
C1382  N1426   1.427   .     S
C1383  C1399   1.413   .     A
C1383  C1400   1.419   .     A
C1383  C1392   1.445   .     S
C1384  C1398   1.402   .     A
C1385  N1422   1.359   .     A
C1385  O1438   1.381   .     S
C1386  O1428   1.377   .     S
C1386  N1421   1.367   .     A
C1386  C1567   1.442   .     S
C1387  O1429   1.379   .     S
C1387  N1422   1.370   .     A
C1388  N1421   1.383   .     A
C1388  O1430   1.375   .     S
C1388  C1565   1.427   .     S
C1389  H1414   1.107   .     S
C1389  N1423   1.445   .     S
C1389  H1415   1.110   .     S
C1389  H1412   1.108   .     S
C1390  H1418   1.111   .     S
C1390  H1417   1.111   .     S
C1390  N1424   1.446   .     S
C1390  H1419   1.111   .     S
C1391  H1402   1.108   .     S
C1391  N1425   1.451   .     S
C1391  H1404   1.110   .     S
C1391  H1403   1.110   .     S
C1392  O1431   1.287   .     A
C1392  O1432   1.295   .     A
C1393  H1408   1.112   .     S
C1393  N1426   1.448   .     S
C1393  H1406   1.111   .     S
C1393  H1407   1.107   .     S
C1394  O1434   1.278   .     A
C1394  C1396   1.366   .     S
C1394  O1437   1.279   .     A
C1395  O1436   1.279   .     A
C1395  C1397   1.366   .     S
C1395  O1435   1.279   .     A
C1397  C316    1.165   1_556 S
C1398  N1423   1.426   .     S
C1399  N1424   1.429   .     S
C1399  C1262   1.385   1_655 S
C1400  N1425   1.430   .     S
C1400  C1278   1.389   1_655 S
H1401  N1423   1.031   .     S
H1405  N1426   1.030   .     S
H1409  O1438   0.989   .     S
H1410  O1428   0.990   .     S
H1411  O1429   0.989   .     S
H1413  O1430   0.980   .     S
H1416  N1424   1.031   .     S
H1420  N1425   1.030   .     S
N1421  Zn1439  2.017   .     S
N1422  Zn1440  2.017   .     S
O1427  Zn1439  2.021   .     S
O1431  Zn1440  2.021   .     S
O1432  Zn1439  2.021   .     S
O1433  Zn1440  2.021   .     S
O1434  Zn1439  1.949   .     S
O1435  Zn1440  1.949   .     S
O1436  Zn1439  1.951   .     S
O1437  Zn1440  1.951   .     S
C1441  C1444   1.444   .     S
C1441  O1493   1.297   .     A
C1441  O1487   1.285   .     A
C1442  C1444   1.412   .     A
C1442  N1486   1.427   .     S
C1442  C1579   1.385   1_455 S
C1443  C1459   1.413   .     A
C1443  C1460   1.419   .     A
C1443  C1452   1.445   .     S
C1444  C1458   1.402   .     A
C1445  N1482   1.359   .     A
C1445  O1498   1.381   .     S
C1446  O1488   1.377   .     S
C1446  N1481   1.367   .     A
C1446  C1087   1.442   1_565 S
C1447  O1489   1.379   .     S
C1447  N1482   1.370   .     A
C1448  N1481   1.383   .     A
C1448  O1490   1.375   .     S
C1448  C1085   1.427   1_565 S
C1449  H1474   1.107   .     S
C1449  N1483   1.445   .     S
C1449  H1475   1.110   .     S
C1449  H1472   1.108   .     S
C1450  H1478   1.111   .     S
C1450  H1477   1.111   .     S
C1450  N1484   1.446   .     S
C1450  H1479   1.111   .     S
C1451  H1462   1.108   .     S
C1451  N1485   1.451   .     S
C1451  H1464   1.110   .     S
C1451  H1463   1.110   .     S
C1452  O1491   1.287   .     A
C1452  O1492   1.295   .     A
C1453  H1468   1.112   .     S
C1453  N1486   1.448   .     S
C1453  H1466   1.111   .     S
C1453  H1467   1.107   .     S
C1454  O1494   1.278   .     A
C1454  C1456   1.366   .     S
C1454  O1497   1.279   .     A
C1455  O1496   1.279   .     A
C1455  C1457   1.366   .     S
C1455  O1495   1.279   .     A
C1457  C376    1.165   1_556 S
C1458  N1483   1.426   .     S
C1458  C1580   1.389   1_455 S
C1459  N1484   1.429   .     S
C1459  C1502   1.385   .     S
C1460  N1485   1.430   .     S
C1460  C1518   1.389   .     S
H1461  N1483   1.031   .     S
H1465  N1486   1.030   .     S
H1469  O1498   0.989   .     S
H1470  O1488   0.990   .     S
H1471  O1489   0.989   .     S
H1473  O1490   0.980   .     S
H1476  N1484   1.031   .     S
H1480  N1485   1.030   .     S
N1481  Zn1499  2.017   .     S
N1482  Zn1500  2.017   .     S
O1487  Zn1499  2.021   .     S
O1491  Zn1500  2.021   .     S
O1492  Zn1499  2.021   .     S
O1493  Zn1500  2.021   .     S
O1494  Zn1499  1.949   .     S
O1495  Zn1500  1.949   .     S
O1496  Zn1499  1.951   .     S
O1497  Zn1500  1.951   .     S
C1501  C1504   1.444   .     S
C1501  O1553   1.297   .     A
C1501  O1547   1.285   .     A
C1502  C1504   1.412   .     A
C1502  N1546   1.427   .     S
C1503  C1519   1.413   .     A
C1503  C1520   1.419   .     A
C1503  C1512   1.445   .     S
C1504  C1518   1.402   .     A
C1505  N1542   1.359   .     A
C1505  O1558   1.381   .     S
C1506  O1548   1.377   .     S
C1506  N1541   1.367   .     A
C1506  C1147   1.442   1_565 S
C1507  O1549   1.379   .     S
C1507  N1542   1.370   .     A
C1508  N1541   1.383   .     A
C1508  O1550   1.375   .     S
C1508  C1145   1.427   1_565 S
C1509  H1534   1.107   .     S
C1509  N1543   1.445   .     S
C1509  H1535   1.110   .     S
C1509  H1532   1.108   .     S
C1510  H1538   1.111   .     S
C1510  H1537   1.111   .     S
C1510  N1544   1.446   .     S
C1510  H1539   1.111   .     S
C1511  H1522   1.108   .     S
C1511  N1545   1.451   .     S
C1511  H1524   1.110   .     S
C1511  H1523   1.110   .     S
C1512  O1551   1.287   .     A
C1512  O1552   1.295   .     A
C1513  H1528   1.112   .     S
C1513  N1546   1.448   .     S
C1513  H1526   1.111   .     S
C1513  H1527   1.107   .     S
C1514  O1554   1.278   .     A
C1514  C1516   1.366   .     S
C1514  O1557   1.279   .     A
C1515  O1556   1.279   .     A
C1515  C1517   1.366   .     S
C1515  O1555   1.279   .     A
C1517  C436    1.165   1_556 S
C1518  N1543   1.426   .     S
C1519  N1544   1.429   .     S
C1519  C1562   1.385   .     S
C1520  N1545   1.430   .     S
C1520  C1578   1.389   .     S
H1521  N1543   1.031   .     S
H1525  N1546   1.030   .     S
H1529  O1558   0.989   .     S
H1530  O1548   0.990   .     S
H1531  O1549   0.989   .     S
H1533  O1550   0.980   .     S
H1536  N1544   1.031   .     S
H1540  N1545   1.030   .     S
N1541  Zn1559  2.017   .     S
N1542  Zn1560  2.017   .     S
O1547  Zn1559  2.021   .     S
O1551  Zn1560  2.021   .     S
O1552  Zn1559  2.021   .     S
O1553  Zn1560  2.021   .     S
O1554  Zn1559  1.949   .     S
O1555  Zn1560  1.949   .     S
O1556  Zn1559  1.951   .     S
O1557  Zn1560  1.951   .     S
C1561  C1564   1.444   .     S
C1561  O1613   1.297   .     A
C1561  O1607   1.285   .     A
C1562  C1564   1.412   .     A
C1562  N1606   1.427   .     S
C1563  C1579   1.413   .     A
C1563  C1580   1.419   .     A
C1563  C1572   1.445   .     S
C1564  C1578   1.402   .     A
C1565  N1602   1.359   .     A
C1565  O1618   1.381   .     S
C1566  O1608   1.377   .     S
C1566  N1601   1.367   .     A
C1566  C1207   1.442   1_565 S
C1567  O1609   1.379   .     S
C1567  N1602   1.370   .     A
C1568  N1601   1.383   .     A
C1568  O1610   1.375   .     S
C1568  C1205   1.427   1_565 S
C1569  H1594   1.107   .     S
C1569  N1603   1.445   .     S
C1569  H1595   1.110   .     S
C1569  H1592   1.108   .     S
C1570  H1598   1.111   .     S
C1570  H1597   1.111   .     S
C1570  N1604   1.446   .     S
C1570  H1599   1.111   .     S
C1571  H1582   1.108   .     S
C1571  N1605   1.451   .     S
C1571  H1584   1.110   .     S
C1571  H1583   1.110   .     S
C1572  O1611   1.287   .     A
C1572  O1612   1.295   .     A
C1573  H1588   1.112   .     S
C1573  N1606   1.448   .     S
C1573  H1586   1.111   .     S
C1573  H1587   1.107   .     S
C1574  O1614   1.278   .     A
C1574  C1576   1.366   .     S
C1574  O1617   1.279   .     A
C1575  O1616   1.279   .     A
C1575  C1577   1.366   .     S
C1575  O1615   1.279   .     A
C1577  C496    1.165   1_556 S
C1578  N1603   1.426   .     S
C1579  N1604   1.429   .     S
C1579  C1442   1.385   1_655 S
C1580  N1605   1.430   .     S
C1580  C1458   1.389   1_655 S
H1581  N1603   1.031   .     S
H1585  N1606   1.030   .     S
H1589  O1618   0.989   .     S
H1590  O1608   0.990   .     S
H1591  O1609   0.989   .     S
H1593  O1610   0.980   .     S
H1596  N1604   1.031   .     S
H1600  N1605   1.030   .     S
N1601  Zn1619  2.017   .     S
N1602  Zn1620  2.017   .     S
O1607  Zn1619  2.021   .     S
O1611  Zn1620  2.021   .     S
O1612  Zn1619  2.021   .     S
O1613  Zn1620  2.021   .     S
O1614  Zn1619  1.949   .     S
O1615  Zn1620  1.949   .     S
O1616  Zn1619  1.951   .     S
O1617  Zn1620  1.951   .     S
