data_str_m2_o1_o2_pcu_sym.1
_audit_creation_date              2020-01-03
_audit_creation_method            'Materials Studio'
_symmetry_space_group_name_H-M    'P1'
_symmetry_Int_Tables_number       1
_symmetry_cell_setting            triclinic
loop_
_symmetry_equiv_pos_as_xyz
  x,y,z
_cell_length_a                    32.9151
_cell_length_b                    29.0385
_cell_length_c                    30.5429
_cell_angle_alpha                 92.9956
_cell_angle_beta                  97.2118
_cell_angle_gamma                 94.3751
loop_
_atom_site_label
_atom_site_type_symbol
_atom_site_fract_x
_atom_site_fract_y
_atom_site_fract_z
_atom_site_U_iso_or_equiv
_atom_site_adp_type
_atom_site_occupancy
O1     O     0.10655   0.20625   0.25000   0.00000  Uiso   1.00
O2     O     0.22679   0.12709   0.25001   0.00000  Uiso   1.00
O3     O     0.22679   0.20625   0.25001   0.00000  Uiso   1.00
O4     O     0.10655   0.12709   0.25000   0.00000  Uiso   1.00
N5     N     0.16667   0.28402   0.25000   0.00000  Uiso   1.00
N6     N     0.16667   0.04931   0.25000   0.00000  Uiso   1.00
C7     C     0.08754   0.16533   0.25105   0.00000  Uiso   1.00
C8     C     0.24588   0.16809   0.24922   0.00000  Uiso   1.00
O9     O     0.16666   0.20626   0.18573   0.00000  Uiso   1.00
O10    O     0.16667   0.12707   0.31427   0.00000  Uiso   1.00
O11    O     0.16667   0.20626   0.31427   0.00000  Uiso   1.00
O12    O     0.16666   0.12707   0.18573   0.00000  Uiso   1.00
C13    C     0.16871   0.16563   0.16537   0.00000  Uiso   1.00
C14    C     0.16544   0.16772   0.33476   0.00000  Uiso   1.00
Cu15   Cu    0.16667   0.21355   0.25000   0.00000  Uiso   1.00
Cu16   Cu    0.16667   0.11978   0.25000   0.00000  Uiso   1.00
C17    C     0.13964   0.01985   0.21997   0.00000  Uiso   1.00
C18    C     0.19360   0.31358   0.27999   0.00000  Uiso   1.00
C19    C     0.19121   0.02922   0.28145   0.00000  Uiso   1.00
C20    C     0.14167   0.30407   0.21883   0.00000  Uiso   1.00
C21    C     0.01565   0.12729   0.23291   0.00000  Uiso   1.00
C22    C     0.31794   0.20643   0.26796   0.00000  Uiso   1.00
C23    C     0.30659   0.13089   0.22827   0.00000  Uiso   1.00
C24    C     0.02707   0.20288   0.27256   0.00000  Uiso   1.00
C25    C     0.18165   0.20555   0.05224   0.00000  Uiso   1.00
C26    C     0.14218   0.13300   0.44746   0.00000  Uiso   1.00
C27    C     0.18901   0.20174   0.45681   0.00000  Uiso   1.00
C28    C     0.16212   0.12358   0.04441   0.00000  Uiso   1.00
H29    H     0.18804   0.23843   0.03860   0.00000  Uiso   1.00
H30    H     0.12298   0.10677   0.46078   0.00000  Uiso   1.00
H31    H     0.20914   0.22783   0.47696   0.00000  Uiso   1.00
H32    H     0.15574   0.09129   0.02455   0.00000  Uiso   1.00
C33    C     0.18681   0.20434   0.09818   0.00000  Uiso   1.00
C34    C     0.14014   0.13378   0.40141   0.00000  Uiso   1.00
C35    C     0.18447   0.20571   0.41139   0.00000  Uiso   1.00
C36    C     0.16286   0.12224   0.09010   0.00000  Uiso   1.00
C37    C     0.17352   0.16353   0.11767   0.00000  Uiso   1.00
C38    C     0.16249   0.16984   0.38280   0.00000  Uiso   1.00
C39    C     0.16990   0.16523   0.02470   0.00000  Uiso   1.00
C40    C     0.16734   0.16627   0.47573   0.00000  Uiso   1.00
C41    C     0.29058   0.16984   0.24706   0.00000  Uiso   1.00
C42    C     0.04299   0.16381   0.25375   0.00000  Uiso   1.00
N43    N     0.10552   0.03618   0.19193   0.00000  Uiso   1.00
O44    O     0.10562   0.07775   0.17904   0.00000  Uiso   1.00
O45    O     0.07276   0.00864   0.17849   0.00000  Uiso   1.00
N46    N     0.22758   0.29735   0.30816   0.00000  Uiso   1.00
O47    O     0.22876   0.25481   0.31778   0.00000  Uiso   1.00
O48    O     0.25958   0.32532   0.32340   0.00000  Uiso   1.00
N49    N     0.21112   0.05688   0.31951   0.00000  Uiso   1.00
O50    O     0.24560   0.08132   0.31781   0.00000  Uiso   1.00
O51    O     0.19959   0.04969   0.35797   0.00000  Uiso   1.00
N52    N     0.12019   0.27606   0.18172   0.00000  Uiso   1.00
O53    O     0.08532   0.25316   0.18512   0.00000  Uiso   1.00
O54    O     0.12935   0.28362   0.14237   0.00000  Uiso   1.00
N55    N     0.20847   0.24358   0.12421   0.00000  Uiso   1.00
O56    O     0.23680   0.23697   0.15648   0.00000  Uiso   1.00
O57    O     0.20662   0.28500   0.11011   0.00000  Uiso   1.00
N58    N     0.11325   0.09934   0.37422   0.00000  Uiso   1.00
O59    O     0.08822   0.11153   0.34125   0.00000  Uiso   1.00
O60    O     0.10898   0.05718   0.38649   0.00000  Uiso   1.00
N61    N     0.20021   0.24811   0.39572   0.00000  Uiso   1.00
O62    O     0.17420   0.27620   0.37922   0.00000  Uiso   1.00
O63    O     0.23764   0.26462   0.41027   0.00000  Uiso   1.00
N64    N     0.15327   0.07825   0.10721   0.00000  Uiso   1.00
O65    O     0.18208   0.05839   0.13041   0.00000  Uiso   1.00
O66    O     0.12032   0.05300   0.08962   0.00000  Uiso   1.00
N67    N     0.03023   0.08611   0.21581   0.00000  Uiso   1.00
O68    O     0.04030   0.05490   0.24333   0.00000  Uiso   1.00
O69    O     0.02056   0.07399   0.17393   0.00000  Uiso   1.00
N70    N     0.30337   0.24780   0.28474   0.00000  Uiso   1.00
O71    O     0.29265   0.27851   0.25693   0.00000  Uiso   1.00
O72    O     0.31344   0.26060   0.32643   0.00000  Uiso   1.00
N73    N     0.27986   0.09541   0.20242   0.00000  Uiso   1.00
O74    O     0.25796   0.10553   0.16627   0.00000  Uiso   1.00
O75    O     0.27804   0.05299   0.21432   0.00000  Uiso   1.00
N76    N     0.05396   0.23905   0.29741   0.00000  Uiso   1.00
O77    O     0.07817   0.22961   0.33224   0.00000  Uiso   1.00
O78    O     0.05469   0.28126   0.28496   0.00000  Uiso   1.00
O79    O     0.43988   0.20625   0.25000   0.00000  Uiso   1.00
O80    O     0.56012   0.12709   0.25001   0.00000  Uiso   1.00
O81    O     0.56012   0.20625   0.25001   0.00000  Uiso   1.00
O82    O     0.43988   0.12709   0.25000   0.00000  Uiso   1.00
N83    N     0.50000   0.28402   0.25000   0.00000  Uiso   1.00
N84    N     0.50000   0.04931   0.25000   0.00000  Uiso   1.00
C85    C     0.42087   0.16533   0.25105   0.00000  Uiso   1.00
C86    C     0.57921   0.16809   0.24922   0.00000  Uiso   1.00
O87    O     0.50000   0.20626   0.18573   0.00000  Uiso   1.00
O88    O     0.50000   0.12707   0.31427   0.00000  Uiso   1.00
O89    O     0.50000   0.20626   0.31427   0.00000  Uiso   1.00
O90    O     0.50000   0.12707   0.18573   0.00000  Uiso   1.00
C91    C     0.50205   0.16563   0.16537   0.00000  Uiso   1.00
C92    C     0.49878   0.16772   0.33476   0.00000  Uiso   1.00
Cu93   Cu    0.50000   0.21355   0.25000   0.00000  Uiso   1.00
Cu94   Cu    0.50000   0.11978   0.25000   0.00000  Uiso   1.00
C95    C     0.47297   0.01985   0.21997   0.00000  Uiso   1.00
C96    C     0.52693   0.31358   0.27999   0.00000  Uiso   1.00
C97    C     0.52454   0.02922   0.28145   0.00000  Uiso   1.00
C98    C     0.47500   0.30407   0.21883   0.00000  Uiso   1.00
C99    C     0.34898   0.12729   0.23291   0.00000  Uiso   1.00
C100   C     0.65127   0.20643   0.26796   0.00000  Uiso   1.00
C101   C     0.63993   0.13089   0.22827   0.00000  Uiso   1.00
C102   C     0.36040   0.20288   0.27256   0.00000  Uiso   1.00
C103   C     0.51499   0.20555   0.05224   0.00000  Uiso   1.00
C104   C     0.47551   0.13300   0.44746   0.00000  Uiso   1.00
C105   C     0.52235   0.20174   0.45681   0.00000  Uiso   1.00
C106   C     0.49545   0.12358   0.04441   0.00000  Uiso   1.00
H107   H     0.52137   0.23843   0.03860   0.00000  Uiso   1.00
H108   H     0.45631   0.10677   0.46078   0.00000  Uiso   1.00
H109   H     0.54248   0.22783   0.47696   0.00000  Uiso   1.00
H110   H     0.48907   0.09129   0.02455   0.00000  Uiso   1.00
C111   C     0.52015   0.20434   0.09818   0.00000  Uiso   1.00
C112   C     0.47347   0.13378   0.40141   0.00000  Uiso   1.00
C113   C     0.51780   0.20571   0.41139   0.00000  Uiso   1.00
C114   C     0.49619   0.12224   0.09010   0.00000  Uiso   1.00
C115   C     0.50685   0.16353   0.11767   0.00000  Uiso   1.00
C116   C     0.49582   0.16984   0.38280   0.00000  Uiso   1.00
C117   C     0.50323   0.16523   0.02470   0.00000  Uiso   1.00
C118   C     0.50068   0.16627   0.47573   0.00000  Uiso   1.00
C119   C     0.62391   0.16984   0.24706   0.00000  Uiso   1.00
C120   C     0.37632   0.16381   0.25375   0.00000  Uiso   1.00
N121   N     0.43885   0.03618   0.19193   0.00000  Uiso   1.00
O122   O     0.43895   0.07775   0.17904   0.00000  Uiso   1.00
O123   O     0.40609   0.00864   0.17849   0.00000  Uiso   1.00
N124   N     0.56091   0.29735   0.30816   0.00000  Uiso   1.00
O125   O     0.56209   0.25481   0.31778   0.00000  Uiso   1.00
O126   O     0.59292   0.32532   0.32340   0.00000  Uiso   1.00
N127   N     0.54445   0.05688   0.31951   0.00000  Uiso   1.00
O128   O     0.57894   0.08132   0.31781   0.00000  Uiso   1.00
O129   O     0.53292   0.04969   0.35797   0.00000  Uiso   1.00
N130   N     0.45352   0.27606   0.18172   0.00000  Uiso   1.00
O131   O     0.41865   0.25316   0.18512   0.00000  Uiso   1.00
O132   O     0.46268   0.28362   0.14237   0.00000  Uiso   1.00
N133   N     0.54180   0.24358   0.12421   0.00000  Uiso   1.00
O134   O     0.57013   0.23697   0.15648   0.00000  Uiso   1.00
O135   O     0.53995   0.28500   0.11011   0.00000  Uiso   1.00
N136   N     0.44659   0.09934   0.37422   0.00000  Uiso   1.00
O137   O     0.42156   0.11153   0.34125   0.00000  Uiso   1.00
O138   O     0.44231   0.05718   0.38649   0.00000  Uiso   1.00
N139   N     0.53354   0.24811   0.39572   0.00000  Uiso   1.00
O140   O     0.50753   0.27620   0.37922   0.00000  Uiso   1.00
O141   O     0.57097   0.26462   0.41027   0.00000  Uiso   1.00
N142   N     0.48660   0.07825   0.10721   0.00000  Uiso   1.00
O143   O     0.51541   0.05839   0.13041   0.00000  Uiso   1.00
O144   O     0.45365   0.05300   0.08962   0.00000  Uiso   1.00
N145   N     0.36357   0.08611   0.21581   0.00000  Uiso   1.00
O146   O     0.37364   0.05490   0.24333   0.00000  Uiso   1.00
O147   O     0.35389   0.07399   0.17393   0.00000  Uiso   1.00
N148   N     0.63670   0.24780   0.28474   0.00000  Uiso   1.00
O149   O     0.62599   0.27851   0.25693   0.00000  Uiso   1.00
O150   O     0.64677   0.26060   0.32643   0.00000  Uiso   1.00
N151   N     0.61319   0.09541   0.20242   0.00000  Uiso   1.00
O152   O     0.59129   0.10553   0.16627   0.00000  Uiso   1.00
O153   O     0.61138   0.05299   0.21432   0.00000  Uiso   1.00
N154   N     0.38729   0.23905   0.29741   0.00000  Uiso   1.00
O155   O     0.41151   0.22961   0.33224   0.00000  Uiso   1.00
O156   O     0.38802   0.28126   0.28496   0.00000  Uiso   1.00
O157   O     0.77321   0.20625   0.25000   0.00000  Uiso   1.00
O158   O     0.89345   0.12709   0.25001   0.00000  Uiso   1.00
O159   O     0.89345   0.20625   0.25001   0.00000  Uiso   1.00
O160   O     0.77321   0.12709   0.25000   0.00000  Uiso   1.00
N161   N     0.83333   0.28402   0.25000   0.00000  Uiso   1.00
N162   N     0.83333   0.04931   0.25000   0.00000  Uiso   1.00
C163   C     0.75420   0.16533   0.25105   0.00000  Uiso   1.00
C164   C     0.91254   0.16809   0.24922   0.00000  Uiso   1.00
O165   O     0.83333   0.20626   0.18573   0.00000  Uiso   1.00
O166   O     0.83334   0.12707   0.31427   0.00000  Uiso   1.00
O167   O     0.83334   0.20626   0.31427   0.00000  Uiso   1.00
O168   O     0.83333   0.12707   0.18573   0.00000  Uiso   1.00
C169   C     0.83538   0.16563   0.16537   0.00000  Uiso   1.00
C170   C     0.83211   0.16772   0.33476   0.00000  Uiso   1.00
Cu171  Cu    0.83333   0.21355   0.25000   0.00000  Uiso   1.00
Cu172  Cu    0.83333   0.11978   0.25000   0.00000  Uiso   1.00
C173   C     0.80630   0.01985   0.21997   0.00000  Uiso   1.00
C174   C     0.86027   0.31358   0.27999   0.00000  Uiso   1.00
C175   C     0.85788   0.02922   0.28145   0.00000  Uiso   1.00
C176   C     0.80834   0.30407   0.21883   0.00000  Uiso   1.00
C177   C     0.68231   0.12729   0.23291   0.00000  Uiso   1.00
C178   C     0.98460   0.20643   0.26796   0.00000  Uiso   1.00
C179   C     0.97326   0.13089   0.22827   0.00000  Uiso   1.00
C180   C     0.69373   0.20288   0.27256   0.00000  Uiso   1.00
C181   C     0.84832   0.20555   0.05224   0.00000  Uiso   1.00
C182   C     0.80884   0.13300   0.44746   0.00000  Uiso   1.00
C183   C     0.85568   0.20174   0.45681   0.00000  Uiso   1.00
C184   C     0.82878   0.12358   0.04441   0.00000  Uiso   1.00
H185   H     0.85471   0.23843   0.03860   0.00000  Uiso   1.00
H186   H     0.78964   0.10677   0.46078   0.00000  Uiso   1.00
H187   H     0.87581   0.22783   0.47696   0.00000  Uiso   1.00
H188   H     0.82240   0.09129   0.02455   0.00000  Uiso   1.00
C189   C     0.85348   0.20434   0.09818   0.00000  Uiso   1.00
C190   C     0.80681   0.13378   0.40141   0.00000  Uiso   1.00
C191   C     0.85114   0.20571   0.41139   0.00000  Uiso   1.00
C192   C     0.82953   0.12224   0.09010   0.00000  Uiso   1.00
C193   C     0.84018   0.16353   0.11767   0.00000  Uiso   1.00
C194   C     0.82916   0.16984   0.38280   0.00000  Uiso   1.00
C195   C     0.83656   0.16523   0.02470   0.00000  Uiso   1.00
C196   C     0.83401   0.16627   0.47573   0.00000  Uiso   1.00
C197   C     0.95725   0.16984   0.24706   0.00000  Uiso   1.00
C198   C     0.70966   0.16381   0.25375   0.00000  Uiso   1.00
N199   N     0.77218   0.03618   0.19193   0.00000  Uiso   1.00
O200   O     0.77229   0.07775   0.17904   0.00000  Uiso   1.00
O201   O     0.73943   0.00864   0.17849   0.00000  Uiso   1.00
N202   N     0.89425   0.29735   0.30816   0.00000  Uiso   1.00
O203   O     0.89543   0.25481   0.31778   0.00000  Uiso   1.00
O204   O     0.92625   0.32532   0.32340   0.00000  Uiso   1.00
N205   N     0.87779   0.05688   0.31951   0.00000  Uiso   1.00
O206   O     0.91227   0.08132   0.31781   0.00000  Uiso   1.00
O207   O     0.86625   0.04969   0.35797   0.00000  Uiso   1.00
N208   N     0.78685   0.27606   0.18172   0.00000  Uiso   1.00
O209   O     0.75199   0.25316   0.18512   0.00000  Uiso   1.00
O210   O     0.79602   0.28362   0.14237   0.00000  Uiso   1.00
N211   N     0.87513   0.24358   0.12421   0.00000  Uiso   1.00
O212   O     0.90347   0.23697   0.15648   0.00000  Uiso   1.00
O213   O     0.87328   0.28500   0.11011   0.00000  Uiso   1.00
N214   N     0.77992   0.09934   0.37422   0.00000  Uiso   1.00
O215   O     0.75489   0.11153   0.34125   0.00000  Uiso   1.00
O216   O     0.77564   0.05718   0.38649   0.00000  Uiso   1.00
N217   N     0.86688   0.24811   0.39572   0.00000  Uiso   1.00
O218   O     0.84087   0.27620   0.37922   0.00000  Uiso   1.00
O219   O     0.90430   0.26462   0.41027   0.00000  Uiso   1.00
N220   N     0.81993   0.07825   0.10721   0.00000  Uiso   1.00
O221   O     0.84874   0.05839   0.13041   0.00000  Uiso   1.00
O222   O     0.78698   0.05300   0.08962   0.00000  Uiso   1.00
N223   N     0.69690   0.08611   0.21581   0.00000  Uiso   1.00
O224   O     0.70697   0.05490   0.24333   0.00000  Uiso   1.00
O225   O     0.68722   0.07399   0.17393   0.00000  Uiso   1.00
N226   N     0.97004   0.24780   0.28474   0.00000  Uiso   1.00
O227   O     0.95932   0.27851   0.25693   0.00000  Uiso   1.00
O228   O     0.98010   0.26060   0.32643   0.00000  Uiso   1.00
N229   N     0.94652   0.09541   0.20242   0.00000  Uiso   1.00
O230   O     0.92463   0.10553   0.16627   0.00000  Uiso   1.00
O231   O     0.94471   0.05299   0.21432   0.00000  Uiso   1.00
N232   N     0.72063   0.23905   0.29741   0.00000  Uiso   1.00
O233   O     0.74484   0.22961   0.33224   0.00000  Uiso   1.00
O234   O     0.72136   0.28126   0.28496   0.00000  Uiso   1.00
O235   O     0.10655   0.53958   0.25000   0.00000  Uiso   1.00
O236   O     0.22679   0.46042   0.25001   0.00000  Uiso   1.00
O237   O     0.22679   0.53958   0.25001   0.00000  Uiso   1.00
O238   O     0.10655   0.46042   0.25000   0.00000  Uiso   1.00
N239   N     0.16667   0.61736   0.25000   0.00000  Uiso   1.00
N240   N     0.16667   0.38264   0.25000   0.00000  Uiso   1.00
C241   C     0.08754   0.49866   0.25105   0.00000  Uiso   1.00
C242   C     0.24588   0.50142   0.24922   0.00000  Uiso   1.00
O243   O     0.16666   0.53959   0.18573   0.00000  Uiso   1.00
O244   O     0.16667   0.46041   0.31427   0.00000  Uiso   1.00
O245   O     0.16667   0.53959   0.31427   0.00000  Uiso   1.00
O246   O     0.16666   0.46041   0.18573   0.00000  Uiso   1.00
C247   C     0.16871   0.49897   0.16537   0.00000  Uiso   1.00
C248   C     0.16544   0.50105   0.33476   0.00000  Uiso   1.00
Cu249  Cu    0.16667   0.54689   0.25000   0.00000  Uiso   1.00
Cu250  Cu    0.16667   0.45311   0.25000   0.00000  Uiso   1.00
C251   C     0.13964   0.35318   0.21997   0.00000  Uiso   1.00
C252   C     0.19360   0.64691   0.27999   0.00000  Uiso   1.00
C253   C     0.19121   0.36255   0.28145   0.00000  Uiso   1.00
C254   C     0.14167   0.63741   0.21883   0.00000  Uiso   1.00
C255   C     0.01565   0.46063   0.23291   0.00000  Uiso   1.00
C256   C     0.31794   0.53977   0.26796   0.00000  Uiso   1.00
C257   C     0.30659   0.46422   0.22827   0.00000  Uiso   1.00
C258   C     0.02707   0.53621   0.27256   0.00000  Uiso   1.00
C259   C     0.18165   0.53889   0.05224   0.00000  Uiso   1.00
C260   C     0.14218   0.46633   0.44746   0.00000  Uiso   1.00
C261   C     0.18901   0.53507   0.45681   0.00000  Uiso   1.00
C262   C     0.16212   0.45691   0.04441   0.00000  Uiso   1.00
H263   H     0.18804   0.57177   0.03860   0.00000  Uiso   1.00
H264   H     0.12298   0.44010   0.46078   0.00000  Uiso   1.00
H265   H     0.20914   0.56117   0.47696   0.00000  Uiso   1.00
H266   H     0.15574   0.42462   0.02455   0.00000  Uiso   1.00
C267   C     0.18681   0.53767   0.09818   0.00000  Uiso   1.00
C268   C     0.14014   0.46712   0.40141   0.00000  Uiso   1.00
C269   C     0.18447   0.53905   0.41139   0.00000  Uiso   1.00
C270   C     0.16286   0.45557   0.09010   0.00000  Uiso   1.00
C271   C     0.17352   0.49686   0.11767   0.00000  Uiso   1.00
C272   C     0.16249   0.50317   0.38280   0.00000  Uiso   1.00
C273   C     0.16990   0.49857   0.02470   0.00000  Uiso   1.00
C274   C     0.16734   0.49960   0.47573   0.00000  Uiso   1.00
C275   C     0.29058   0.50317   0.24706   0.00000  Uiso   1.00
C276   C     0.04299   0.49714   0.25375   0.00000  Uiso   1.00
N277   N     0.10552   0.36952   0.19193   0.00000  Uiso   1.00
O278   O     0.10562   0.41108   0.17904   0.00000  Uiso   1.00
O279   O     0.07276   0.34198   0.17849   0.00000  Uiso   1.00
N280   N     0.22758   0.63068   0.30816   0.00000  Uiso   1.00
O281   O     0.22876   0.58815   0.31778   0.00000  Uiso   1.00
O282   O     0.25958   0.65866   0.32340   0.00000  Uiso   1.00
N283   N     0.21112   0.39021   0.31951   0.00000  Uiso   1.00
O284   O     0.24560   0.41466   0.31781   0.00000  Uiso   1.00
O285   O     0.19959   0.38302   0.35797   0.00000  Uiso   1.00
N286   N     0.12019   0.60939   0.18172   0.00000  Uiso   1.00
O287   O     0.08532   0.58649   0.18512   0.00000  Uiso   1.00
O288   O     0.12935   0.61696   0.14237   0.00000  Uiso   1.00
N289   N     0.20847   0.57691   0.12421   0.00000  Uiso   1.00
O290   O     0.23680   0.57031   0.15648   0.00000  Uiso   1.00
O291   O     0.20662   0.61833   0.11011   0.00000  Uiso   1.00
N292   N     0.11325   0.43267   0.37422   0.00000  Uiso   1.00
O293   O     0.08822   0.44486   0.34125   0.00000  Uiso   1.00
O294   O     0.10898   0.39051   0.38649   0.00000  Uiso   1.00
N295   N     0.20021   0.58144   0.39572   0.00000  Uiso   1.00
O296   O     0.17420   0.60953   0.37922   0.00000  Uiso   1.00
O297   O     0.23764   0.59795   0.41027   0.00000  Uiso   1.00
N298   N     0.15327   0.41158   0.10721   0.00000  Uiso   1.00
O299   O     0.18208   0.39173   0.13041   0.00000  Uiso   1.00
O300   O     0.12032   0.38633   0.08962   0.00000  Uiso   1.00
N301   N     0.03023   0.41944   0.21581   0.00000  Uiso   1.00
O302   O     0.04030   0.38823   0.24333   0.00000  Uiso   1.00
O303   O     0.02056   0.40732   0.17393   0.00000  Uiso   1.00
N304   N     0.30337   0.58114   0.28474   0.00000  Uiso   1.00
O305   O     0.29265   0.61184   0.25693   0.00000  Uiso   1.00
O306   O     0.31344   0.59394   0.32643   0.00000  Uiso   1.00
N307   N     0.27986   0.42875   0.20242   0.00000  Uiso   1.00
O308   O     0.25796   0.43886   0.16627   0.00000  Uiso   1.00
O309   O     0.27804   0.38633   0.21432   0.00000  Uiso   1.00
N310   N     0.05396   0.57238   0.29741   0.00000  Uiso   1.00
O311   O     0.07817   0.56294   0.33224   0.00000  Uiso   1.00
O312   O     0.05469   0.61459   0.28496   0.00000  Uiso   1.00
O313   O     0.43988   0.53958   0.25000   0.00000  Uiso   1.00
O314   O     0.56012   0.46042   0.25001   0.00000  Uiso   1.00
O315   O     0.56012   0.53958   0.25001   0.00000  Uiso   1.00
O316   O     0.43988   0.46042   0.25000   0.00000  Uiso   1.00
N317   N     0.50000   0.61736   0.25000   0.00000  Uiso   1.00
N318   N     0.50000   0.38264   0.25000   0.00000  Uiso   1.00
C319   C     0.42087   0.49866   0.25105   0.00000  Uiso   1.00
C320   C     0.57921   0.50142   0.24922   0.00000  Uiso   1.00
O321   O     0.50000   0.53959   0.18573   0.00000  Uiso   1.00
O322   O     0.50000   0.46041   0.31427   0.00000  Uiso   1.00
O323   O     0.50000   0.53959   0.31427   0.00000  Uiso   1.00
O324   O     0.50000   0.46041   0.18573   0.00000  Uiso   1.00
C325   C     0.50205   0.49897   0.16537   0.00000  Uiso   1.00
C326   C     0.49878   0.50105   0.33476   0.00000  Uiso   1.00
Cu327  Cu    0.50000   0.54689   0.25000   0.00000  Uiso   1.00
Cu328  Cu    0.50000   0.45311   0.25000   0.00000  Uiso   1.00
C329   C     0.47297   0.35318   0.21997   0.00000  Uiso   1.00
C330   C     0.52693   0.64691   0.27999   0.00000  Uiso   1.00
C331   C     0.52454   0.36255   0.28145   0.00000  Uiso   1.00
C332   C     0.47500   0.63741   0.21883   0.00000  Uiso   1.00
C333   C     0.34898   0.46063   0.23291   0.00000  Uiso   1.00
C334   C     0.65127   0.53977   0.26796   0.00000  Uiso   1.00
C335   C     0.63993   0.46422   0.22827   0.00000  Uiso   1.00
C336   C     0.36040   0.53621   0.27256   0.00000  Uiso   1.00
C337   C     0.51499   0.53889   0.05224   0.00000  Uiso   1.00
C338   C     0.47551   0.46633   0.44746   0.00000  Uiso   1.00
C339   C     0.52235   0.53507   0.45681   0.00000  Uiso   1.00
C340   C     0.49545   0.45691   0.04441   0.00000  Uiso   1.00
H341   H     0.52137   0.57177   0.03860   0.00000  Uiso   1.00
H342   H     0.45631   0.44010   0.46078   0.00000  Uiso   1.00
H343   H     0.54248   0.56117   0.47696   0.00000  Uiso   1.00
H344   H     0.48907   0.42462   0.02455   0.00000  Uiso   1.00
C345   C     0.52015   0.53767   0.09818   0.00000  Uiso   1.00
C346   C     0.47347   0.46712   0.40141   0.00000  Uiso   1.00
C347   C     0.51780   0.53905   0.41139   0.00000  Uiso   1.00
C348   C     0.49619   0.45557   0.09010   0.00000  Uiso   1.00
C349   C     0.50685   0.49686   0.11767   0.00000  Uiso   1.00
C350   C     0.49582   0.50317   0.38280   0.00000  Uiso   1.00
C351   C     0.50323   0.49857   0.02470   0.00000  Uiso   1.00
C352   C     0.50068   0.49960   0.47573   0.00000  Uiso   1.00
C353   C     0.62391   0.50317   0.24706   0.00000  Uiso   1.00
C354   C     0.37632   0.49714   0.25375   0.00000  Uiso   1.00
N355   N     0.43885   0.36952   0.19193   0.00000  Uiso   1.00
O356   O     0.43895   0.41108   0.17904   0.00000  Uiso   1.00
O357   O     0.40609   0.34198   0.17849   0.00000  Uiso   1.00
N358   N     0.56091   0.63068   0.30816   0.00000  Uiso   1.00
O359   O     0.56209   0.58815   0.31778   0.00000  Uiso   1.00
O360   O     0.59292   0.65866   0.32340   0.00000  Uiso   1.00
N361   N     0.54445   0.39021   0.31951   0.00000  Uiso   1.00
O362   O     0.57894   0.41466   0.31781   0.00000  Uiso   1.00
O363   O     0.53292   0.38302   0.35797   0.00000  Uiso   1.00
N364   N     0.45352   0.60939   0.18172   0.00000  Uiso   1.00
O365   O     0.41865   0.58649   0.18512   0.00000  Uiso   1.00
O366   O     0.46268   0.61696   0.14237   0.00000  Uiso   1.00
N367   N     0.54180   0.57691   0.12421   0.00000  Uiso   1.00
O368   O     0.57013   0.57031   0.15648   0.00000  Uiso   1.00
O369   O     0.53995   0.61833   0.11011   0.00000  Uiso   1.00
N370   N     0.44659   0.43267   0.37422   0.00000  Uiso   1.00
O371   O     0.42156   0.44486   0.34125   0.00000  Uiso   1.00
O372   O     0.44231   0.39051   0.38649   0.00000  Uiso   1.00
N373   N     0.53354   0.58144   0.39572   0.00000  Uiso   1.00
O374   O     0.50753   0.60953   0.37922   0.00000  Uiso   1.00
O375   O     0.57097   0.59795   0.41027   0.00000  Uiso   1.00
N376   N     0.48660   0.41158   0.10721   0.00000  Uiso   1.00
O377   O     0.51541   0.39173   0.13041   0.00000  Uiso   1.00
O378   O     0.45365   0.38633   0.08962   0.00000  Uiso   1.00
N379   N     0.36357   0.41944   0.21581   0.00000  Uiso   1.00
O380   O     0.37364   0.38823   0.24333   0.00000  Uiso   1.00
O381   O     0.35389   0.40732   0.17393   0.00000  Uiso   1.00
N382   N     0.63670   0.58114   0.28474   0.00000  Uiso   1.00
O383   O     0.62599   0.61184   0.25693   0.00000  Uiso   1.00
O384   O     0.64677   0.59394   0.32643   0.00000  Uiso   1.00
N385   N     0.61319   0.42875   0.20242   0.00000  Uiso   1.00
O386   O     0.59129   0.43886   0.16627   0.00000  Uiso   1.00
O387   O     0.61138   0.38633   0.21432   0.00000  Uiso   1.00
N388   N     0.38729   0.57238   0.29741   0.00000  Uiso   1.00
O389   O     0.41151   0.56294   0.33224   0.00000  Uiso   1.00
O390   O     0.38802   0.61459   0.28496   0.00000  Uiso   1.00
O391   O     0.77321   0.53958   0.25000   0.00000  Uiso   1.00
O392   O     0.89345   0.46042   0.25001   0.00000  Uiso   1.00
O393   O     0.89345   0.53958   0.25001   0.00000  Uiso   1.00
O394   O     0.77321   0.46042   0.25000   0.00000  Uiso   1.00
N395   N     0.83333   0.61736   0.25000   0.00000  Uiso   1.00
N396   N     0.83333   0.38264   0.25000   0.00000  Uiso   1.00
C397   C     0.75420   0.49866   0.25105   0.00000  Uiso   1.00
C398   C     0.91254   0.50142   0.24922   0.00000  Uiso   1.00
O399   O     0.83333   0.53959   0.18573   0.00000  Uiso   1.00
O400   O     0.83334   0.46041   0.31427   0.00000  Uiso   1.00
O401   O     0.83334   0.53959   0.31427   0.00000  Uiso   1.00
O402   O     0.83333   0.46041   0.18573   0.00000  Uiso   1.00
C403   C     0.83538   0.49897   0.16537   0.00000  Uiso   1.00
C404   C     0.83211   0.50105   0.33476   0.00000  Uiso   1.00
Cu405  Cu    0.83333   0.54689   0.25000   0.00000  Uiso   1.00
Cu406  Cu    0.83333   0.45311   0.25000   0.00000  Uiso   1.00
C407   C     0.80630   0.35318   0.21997   0.00000  Uiso   1.00
C408   C     0.86027   0.64691   0.27999   0.00000  Uiso   1.00
C409   C     0.85788   0.36255   0.28145   0.00000  Uiso   1.00
C410   C     0.80834   0.63741   0.21883   0.00000  Uiso   1.00
C411   C     0.68231   0.46063   0.23291   0.00000  Uiso   1.00
C412   C     0.98460   0.53977   0.26796   0.00000  Uiso   1.00
C413   C     0.97326   0.46422   0.22827   0.00000  Uiso   1.00
C414   C     0.69373   0.53621   0.27256   0.00000  Uiso   1.00
C415   C     0.84832   0.53889   0.05224   0.00000  Uiso   1.00
C416   C     0.80884   0.46633   0.44746   0.00000  Uiso   1.00
C417   C     0.85568   0.53507   0.45681   0.00000  Uiso   1.00
C418   C     0.82878   0.45691   0.04441   0.00000  Uiso   1.00
H419   H     0.85471   0.57177   0.03860   0.00000  Uiso   1.00
H420   H     0.78964   0.44010   0.46078   0.00000  Uiso   1.00
H421   H     0.87581   0.56117   0.47696   0.00000  Uiso   1.00
H422   H     0.82240   0.42462   0.02455   0.00000  Uiso   1.00
C423   C     0.85348   0.53767   0.09818   0.00000  Uiso   1.00
C424   C     0.80681   0.46712   0.40141   0.00000  Uiso   1.00
C425   C     0.85114   0.53905   0.41139   0.00000  Uiso   1.00
C426   C     0.82953   0.45557   0.09010   0.00000  Uiso   1.00
C427   C     0.84018   0.49686   0.11767   0.00000  Uiso   1.00
C428   C     0.82916   0.50317   0.38280   0.00000  Uiso   1.00
C429   C     0.83656   0.49857   0.02470   0.00000  Uiso   1.00
C430   C     0.83401   0.49960   0.47573   0.00000  Uiso   1.00
C431   C     0.95725   0.50317   0.24706   0.00000  Uiso   1.00
C432   C     0.70966   0.49714   0.25375   0.00000  Uiso   1.00
N433   N     0.77218   0.36952   0.19193   0.00000  Uiso   1.00
O434   O     0.77229   0.41108   0.17904   0.00000  Uiso   1.00
O435   O     0.73943   0.34198   0.17849   0.00000  Uiso   1.00
N436   N     0.89425   0.63068   0.30816   0.00000  Uiso   1.00
O437   O     0.89543   0.58815   0.31778   0.00000  Uiso   1.00
O438   O     0.92625   0.65866   0.32340   0.00000  Uiso   1.00
N439   N     0.87779   0.39021   0.31951   0.00000  Uiso   1.00
O440   O     0.91227   0.41466   0.31781   0.00000  Uiso   1.00
O441   O     0.86625   0.38302   0.35797   0.00000  Uiso   1.00
N442   N     0.78685   0.60939   0.18172   0.00000  Uiso   1.00
O443   O     0.75199   0.58649   0.18512   0.00000  Uiso   1.00
O444   O     0.79602   0.61696   0.14237   0.00000  Uiso   1.00
N445   N     0.87513   0.57691   0.12421   0.00000  Uiso   1.00
O446   O     0.90347   0.57031   0.15648   0.00000  Uiso   1.00
O447   O     0.87328   0.61833   0.11011   0.00000  Uiso   1.00
N448   N     0.77992   0.43267   0.37422   0.00000  Uiso   1.00
O449   O     0.75489   0.44486   0.34125   0.00000  Uiso   1.00
O450   O     0.77564   0.39051   0.38649   0.00000  Uiso   1.00
N451   N     0.86688   0.58144   0.39572   0.00000  Uiso   1.00
O452   O     0.84087   0.60953   0.37922   0.00000  Uiso   1.00
O453   O     0.90430   0.59795   0.41027   0.00000  Uiso   1.00
N454   N     0.81993   0.41158   0.10721   0.00000  Uiso   1.00
O455   O     0.84874   0.39173   0.13041   0.00000  Uiso   1.00
O456   O     0.78698   0.38633   0.08962   0.00000  Uiso   1.00
N457   N     0.69690   0.41944   0.21581   0.00000  Uiso   1.00
O458   O     0.70697   0.38823   0.24333   0.00000  Uiso   1.00
O459   O     0.68722   0.40732   0.17393   0.00000  Uiso   1.00
N460   N     0.97004   0.58114   0.28474   0.00000  Uiso   1.00
O461   O     0.95932   0.61184   0.25693   0.00000  Uiso   1.00
O462   O     0.98010   0.59394   0.32643   0.00000  Uiso   1.00
N463   N     0.94652   0.42875   0.20242   0.00000  Uiso   1.00
O464   O     0.92463   0.43886   0.16627   0.00000  Uiso   1.00
O465   O     0.94471   0.38633   0.21432   0.00000  Uiso   1.00
N466   N     0.72063   0.57238   0.29741   0.00000  Uiso   1.00
O467   O     0.74484   0.56294   0.33224   0.00000  Uiso   1.00
O468   O     0.72136   0.61459   0.28496   0.00000  Uiso   1.00
O469   O     0.10655   0.87291   0.25000   0.00000  Uiso   1.00
O470   O     0.22679   0.79375   0.25001   0.00000  Uiso   1.00
O471   O     0.22679   0.87291   0.25001   0.00000  Uiso   1.00
O472   O     0.10655   0.79375   0.25000   0.00000  Uiso   1.00
N473   N     0.16667   0.95069   0.25000   0.00000  Uiso   1.00
N474   N     0.16667   0.71598   0.25000   0.00000  Uiso   1.00
C475   C     0.08754   0.83199   0.25105   0.00000  Uiso   1.00
C476   C     0.24588   0.83476   0.24922   0.00000  Uiso   1.00
O477   O     0.16666   0.87293   0.18573   0.00000  Uiso   1.00
O478   O     0.16667   0.79374   0.31427   0.00000  Uiso   1.00
O479   O     0.16667   0.87293   0.31427   0.00000  Uiso   1.00
O480   O     0.16666   0.79374   0.18573   0.00000  Uiso   1.00
C481   C     0.16871   0.83230   0.16537   0.00000  Uiso   1.00
C482   C     0.16544   0.83438   0.33476   0.00000  Uiso   1.00
Cu483  Cu    0.16667   0.88022   0.25000   0.00000  Uiso   1.00
Cu484  Cu    0.16667   0.78645   0.25000   0.00000  Uiso   1.00
C485   C     0.13964   0.68651   0.21997   0.00000  Uiso   1.00
C486   C     0.19360   0.98025   0.27999   0.00000  Uiso   1.00
C487   C     0.19121   0.69588   0.28145   0.00000  Uiso   1.00
C488   C     0.14167   0.97074   0.21883   0.00000  Uiso   1.00
C489   C     0.01565   0.79396   0.23291   0.00000  Uiso   1.00
C490   C     0.31794   0.87310   0.26796   0.00000  Uiso   1.00
C491   C     0.30659   0.79755   0.22827   0.00000  Uiso   1.00
C492   C     0.02707   0.86955   0.27256   0.00000  Uiso   1.00
C493   C     0.18165   0.87222   0.05224   0.00000  Uiso   1.00
C494   C     0.14218   0.79967   0.44746   0.00000  Uiso   1.00
C495   C     0.18901   0.86841   0.45681   0.00000  Uiso   1.00
C496   C     0.16212   0.79024   0.04441   0.00000  Uiso   1.00
H497   H     0.18804   0.90510   0.03860   0.00000  Uiso   1.00
H498   H     0.12298   0.77344   0.46078   0.00000  Uiso   1.00
H499   H     0.20914   0.89450   0.47696   0.00000  Uiso   1.00
H500   H     0.15574   0.75796   0.02455   0.00000  Uiso   1.00
C501   C     0.18681   0.87101   0.09818   0.00000  Uiso   1.00
C502   C     0.14014   0.80045   0.40141   0.00000  Uiso   1.00
C503   C     0.18447   0.87238   0.41139   0.00000  Uiso   1.00
C504   C     0.16286   0.78891   0.09010   0.00000  Uiso   1.00
C505   C     0.17352   0.83019   0.11767   0.00000  Uiso   1.00
C506   C     0.16249   0.83651   0.38280   0.00000  Uiso   1.00
C507   C     0.16990   0.83190   0.02470   0.00000  Uiso   1.00
C508   C     0.16734   0.83294   0.47573   0.00000  Uiso   1.00
C509   C     0.29058   0.83650   0.24706   0.00000  Uiso   1.00
C510   C     0.04299   0.83048   0.25375   0.00000  Uiso   1.00
N511   N     0.10552   0.70285   0.19193   0.00000  Uiso   1.00
O512   O     0.10562   0.74441   0.17904   0.00000  Uiso   1.00
O513   O     0.07276   0.67531   0.17849   0.00000  Uiso   1.00
N514   N     0.22758   0.96401   0.30816   0.00000  Uiso   1.00
O515   O     0.22876   0.92148   0.31778   0.00000  Uiso   1.00
O516   O     0.25958   0.99199   0.32340   0.00000  Uiso   1.00
N517   N     0.21112   0.72354   0.31951   0.00000  Uiso   1.00
O518   O     0.24560   0.74799   0.31781   0.00000  Uiso   1.00
O519   O     0.19959   0.71635   0.35797   0.00000  Uiso   1.00
N520   N     0.12019   0.94272   0.18172   0.00000  Uiso   1.00
O521   O     0.08532   0.91983   0.18512   0.00000  Uiso   1.00
O522   O     0.12935   0.95029   0.14237   0.00000  Uiso   1.00
N523   N     0.20847   0.91025   0.12421   0.00000  Uiso   1.00
O524   O     0.23680   0.90364   0.15648   0.00000  Uiso   1.00
O525   O     0.20662   0.95166   0.11011   0.00000  Uiso   1.00
N526   N     0.11325   0.76601   0.37422   0.00000  Uiso   1.00
O527   O     0.08822   0.77820   0.34125   0.00000  Uiso   1.00
O528   O     0.10898   0.72385   0.38649   0.00000  Uiso   1.00
N529   N     0.20021   0.91477   0.39572   0.00000  Uiso   1.00
O530   O     0.17420   0.94287   0.37922   0.00000  Uiso   1.00
O531   O     0.23764   0.93128   0.41027   0.00000  Uiso   1.00
N532   N     0.15327   0.74492   0.10721   0.00000  Uiso   1.00
O533   O     0.18208   0.72506   0.13041   0.00000  Uiso   1.00
O534   O     0.12032   0.71967   0.08962   0.00000  Uiso   1.00
N535   N     0.03023   0.75278   0.21581   0.00000  Uiso   1.00
O536   O     0.04030   0.72157   0.24333   0.00000  Uiso   1.00
O537   O     0.02056   0.74065   0.17393   0.00000  Uiso   1.00
N538   N     0.30337   0.91447   0.28474   0.00000  Uiso   1.00
O539   O     0.29265   0.94518   0.25693   0.00000  Uiso   1.00
O540   O     0.31344   0.92727   0.32643   0.00000  Uiso   1.00
N541   N     0.27986   0.76208   0.20242   0.00000  Uiso   1.00
O542   O     0.25796   0.77220   0.16627   0.00000  Uiso   1.00
O543   O     0.27804   0.71966   0.21432   0.00000  Uiso   1.00
N544   N     0.05396   0.90572   0.29741   0.00000  Uiso   1.00
O545   O     0.07817   0.89627   0.33224   0.00000  Uiso   1.00
O546   O     0.05469   0.94792   0.28496   0.00000  Uiso   1.00
O547   O     0.43988   0.87291   0.25000   0.00000  Uiso   1.00
O548   O     0.56012   0.79375   0.25001   0.00000  Uiso   1.00
O549   O     0.56012   0.87291   0.25001   0.00000  Uiso   1.00
O550   O     0.43988   0.79375   0.25000   0.00000  Uiso   1.00
N551   N     0.50000   0.95069   0.25000   0.00000  Uiso   1.00
N552   N     0.50000   0.71598   0.25000   0.00000  Uiso   1.00
C553   C     0.42087   0.83199   0.25105   0.00000  Uiso   1.00
C554   C     0.57921   0.83476   0.24922   0.00000  Uiso   1.00
O555   O     0.50000   0.87293   0.18573   0.00000  Uiso   1.00
O556   O     0.50000   0.79374   0.31427   0.00000  Uiso   1.00
O557   O     0.50000   0.87293   0.31427   0.00000  Uiso   1.00
O558   O     0.50000   0.79374   0.18573   0.00000  Uiso   1.00
C559   C     0.50205   0.83230   0.16537   0.00000  Uiso   1.00
C560   C     0.49878   0.83438   0.33476   0.00000  Uiso   1.00
Cu561  Cu    0.50000   0.88022   0.25000   0.00000  Uiso   1.00
Cu562  Cu    0.50000   0.78645   0.25000   0.00000  Uiso   1.00
C563   C     0.47297   0.68651   0.21997   0.00000  Uiso   1.00
C564   C     0.52693   0.98025   0.27999   0.00000  Uiso   1.00
C565   C     0.52454   0.69588   0.28145   0.00000  Uiso   1.00
C566   C     0.47500   0.97074   0.21883   0.00000  Uiso   1.00
C567   C     0.34898   0.79396   0.23291   0.00000  Uiso   1.00
C568   C     0.65127   0.87310   0.26796   0.00000  Uiso   1.00
C569   C     0.63993   0.79755   0.22827   0.00000  Uiso   1.00
C570   C     0.36040   0.86955   0.27256   0.00000  Uiso   1.00
C571   C     0.51499   0.87222   0.05224   0.00000  Uiso   1.00
C572   C     0.47551   0.79967   0.44746   0.00000  Uiso   1.00
C573   C     0.52235   0.86841   0.45681   0.00000  Uiso   1.00
C574   C     0.49545   0.79024   0.04441   0.00000  Uiso   1.00
H575   H     0.52137   0.90510   0.03860   0.00000  Uiso   1.00
H576   H     0.45631   0.77344   0.46078   0.00000  Uiso   1.00
H577   H     0.54248   0.89450   0.47696   0.00000  Uiso   1.00
H578   H     0.48907   0.75796   0.02455   0.00000  Uiso   1.00
C579   C     0.52015   0.87101   0.09818   0.00000  Uiso   1.00
C580   C     0.47347   0.80045   0.40141   0.00000  Uiso   1.00
C581   C     0.51780   0.87238   0.41139   0.00000  Uiso   1.00
C582   C     0.49619   0.78891   0.09010   0.00000  Uiso   1.00
C583   C     0.50685   0.83019   0.11767   0.00000  Uiso   1.00
C584   C     0.49582   0.83651   0.38280   0.00000  Uiso   1.00
C585   C     0.50323   0.83190   0.02470   0.00000  Uiso   1.00
C586   C     0.50068   0.83294   0.47573   0.00000  Uiso   1.00
C587   C     0.62391   0.83650   0.24706   0.00000  Uiso   1.00
C588   C     0.37632   0.83048   0.25375   0.00000  Uiso   1.00
N589   N     0.43885   0.70285   0.19193   0.00000  Uiso   1.00
O590   O     0.43895   0.74441   0.17904   0.00000  Uiso   1.00
O591   O     0.40609   0.67531   0.17849   0.00000  Uiso   1.00
N592   N     0.56091   0.96401   0.30816   0.00000  Uiso   1.00
O593   O     0.56209   0.92148   0.31778   0.00000  Uiso   1.00
O594   O     0.59292   0.99199   0.32340   0.00000  Uiso   1.00
N595   N     0.54445   0.72354   0.31951   0.00000  Uiso   1.00
O596   O     0.57894   0.74799   0.31781   0.00000  Uiso   1.00
O597   O     0.53292   0.71635   0.35797   0.00000  Uiso   1.00
N598   N     0.45352   0.94272   0.18172   0.00000  Uiso   1.00
O599   O     0.41865   0.91983   0.18512   0.00000  Uiso   1.00
O600   O     0.46268   0.95029   0.14237   0.00000  Uiso   1.00
N601   N     0.54180   0.91025   0.12421   0.00000  Uiso   1.00
O602   O     0.57013   0.90364   0.15648   0.00000  Uiso   1.00
O603   O     0.53995   0.95166   0.11011   0.00000  Uiso   1.00
N604   N     0.44659   0.76601   0.37422   0.00000  Uiso   1.00
O605   O     0.42156   0.77820   0.34125   0.00000  Uiso   1.00
O606   O     0.44231   0.72385   0.38649   0.00000  Uiso   1.00
N607   N     0.53354   0.91477   0.39572   0.00000  Uiso   1.00
O608   O     0.50753   0.94287   0.37922   0.00000  Uiso   1.00
O609   O     0.57097   0.93128   0.41027   0.00000  Uiso   1.00
N610   N     0.48660   0.74492   0.10721   0.00000  Uiso   1.00
O611   O     0.51541   0.72506   0.13041   0.00000  Uiso   1.00
O612   O     0.45365   0.71967   0.08962   0.00000  Uiso   1.00
N613   N     0.36357   0.75278   0.21581   0.00000  Uiso   1.00
O614   O     0.37364   0.72157   0.24333   0.00000  Uiso   1.00
O615   O     0.35389   0.74065   0.17393   0.00000  Uiso   1.00
N616   N     0.63670   0.91447   0.28474   0.00000  Uiso   1.00
O617   O     0.62599   0.94518   0.25693   0.00000  Uiso   1.00
O618   O     0.64677   0.92727   0.32643   0.00000  Uiso   1.00
N619   N     0.61319   0.76208   0.20242   0.00000  Uiso   1.00
O620   O     0.59129   0.77220   0.16627   0.00000  Uiso   1.00
O621   O     0.61138   0.71966   0.21432   0.00000  Uiso   1.00
N622   N     0.38729   0.90572   0.29741   0.00000  Uiso   1.00
O623   O     0.41151   0.89627   0.33224   0.00000  Uiso   1.00
O624   O     0.38802   0.94792   0.28496   0.00000  Uiso   1.00
O625   O     0.77321   0.87291   0.25000   0.00000  Uiso   1.00
O626   O     0.89345   0.79375   0.25001   0.00000  Uiso   1.00
O627   O     0.89345   0.87291   0.25001   0.00000  Uiso   1.00
O628   O     0.77321   0.79375   0.25000   0.00000  Uiso   1.00
N629   N     0.83333   0.95069   0.25000   0.00000  Uiso   1.00
N630   N     0.83333   0.71598   0.25000   0.00000  Uiso   1.00
C631   C     0.75420   0.83199   0.25105   0.00000  Uiso   1.00
C632   C     0.91254   0.83476   0.24922   0.00000  Uiso   1.00
O633   O     0.83333   0.87293   0.18573   0.00000  Uiso   1.00
O634   O     0.83334   0.79374   0.31427   0.00000  Uiso   1.00
O635   O     0.83334   0.87293   0.31427   0.00000  Uiso   1.00
O636   O     0.83333   0.79374   0.18573   0.00000  Uiso   1.00
C637   C     0.83538   0.83230   0.16537   0.00000  Uiso   1.00
C638   C     0.83211   0.83438   0.33476   0.00000  Uiso   1.00
Cu639  Cu    0.83333   0.88022   0.25000   0.00000  Uiso   1.00
Cu640  Cu    0.83333   0.78645   0.25000   0.00000  Uiso   1.00
C641   C     0.80630   0.68651   0.21997   0.00000  Uiso   1.00
C642   C     0.86027   0.98025   0.27999   0.00000  Uiso   1.00
C643   C     0.85788   0.69588   0.28145   0.00000  Uiso   1.00
C644   C     0.80834   0.97074   0.21883   0.00000  Uiso   1.00
C645   C     0.68231   0.79396   0.23291   0.00000  Uiso   1.00
C646   C     0.98460   0.87310   0.26796   0.00000  Uiso   1.00
C647   C     0.97326   0.79755   0.22827   0.00000  Uiso   1.00
C648   C     0.69373   0.86955   0.27256   0.00000  Uiso   1.00
C649   C     0.84832   0.87222   0.05224   0.00000  Uiso   1.00
C650   C     0.80884   0.79967   0.44746   0.00000  Uiso   1.00
C651   C     0.85568   0.86841   0.45681   0.00000  Uiso   1.00
C652   C     0.82878   0.79024   0.04441   0.00000  Uiso   1.00
H653   H     0.85471   0.90510   0.03860   0.00000  Uiso   1.00
H654   H     0.78964   0.77344   0.46078   0.00000  Uiso   1.00
H655   H     0.87581   0.89450   0.47696   0.00000  Uiso   1.00
H656   H     0.82240   0.75796   0.02455   0.00000  Uiso   1.00
C657   C     0.85348   0.87101   0.09818   0.00000  Uiso   1.00
C658   C     0.80681   0.80045   0.40141   0.00000  Uiso   1.00
C659   C     0.85114   0.87238   0.41139   0.00000  Uiso   1.00
C660   C     0.82953   0.78891   0.09010   0.00000  Uiso   1.00
C661   C     0.84018   0.83019   0.11767   0.00000  Uiso   1.00
C662   C     0.82916   0.83651   0.38280   0.00000  Uiso   1.00
C663   C     0.83656   0.83190   0.02470   0.00000  Uiso   1.00
C664   C     0.83401   0.83294   0.47573   0.00000  Uiso   1.00
C665   C     0.95725   0.83650   0.24706   0.00000  Uiso   1.00
C666   C     0.70966   0.83048   0.25375   0.00000  Uiso   1.00
N667   N     0.77218   0.70285   0.19193   0.00000  Uiso   1.00
O668   O     0.77229   0.74441   0.17904   0.00000  Uiso   1.00
O669   O     0.73943   0.67531   0.17849   0.00000  Uiso   1.00
N670   N     0.89425   0.96401   0.30816   0.00000  Uiso   1.00
O671   O     0.89543   0.92148   0.31778   0.00000  Uiso   1.00
O672   O     0.92625   0.99199   0.32340   0.00000  Uiso   1.00
N673   N     0.87779   0.72354   0.31951   0.00000  Uiso   1.00
O674   O     0.91227   0.74799   0.31781   0.00000  Uiso   1.00
O675   O     0.86625   0.71635   0.35797   0.00000  Uiso   1.00
N676   N     0.78685   0.94272   0.18172   0.00000  Uiso   1.00
O677   O     0.75199   0.91983   0.18512   0.00000  Uiso   1.00
O678   O     0.79602   0.95029   0.14237   0.00000  Uiso   1.00
N679   N     0.87513   0.91025   0.12421   0.00000  Uiso   1.00
O680   O     0.90347   0.90364   0.15648   0.00000  Uiso   1.00
O681   O     0.87328   0.95166   0.11011   0.00000  Uiso   1.00
N682   N     0.77992   0.76601   0.37422   0.00000  Uiso   1.00
O683   O     0.75489   0.77820   0.34125   0.00000  Uiso   1.00
O684   O     0.77564   0.72385   0.38649   0.00000  Uiso   1.00
N685   N     0.86688   0.91477   0.39572   0.00000  Uiso   1.00
O686   O     0.84087   0.94287   0.37922   0.00000  Uiso   1.00
O687   O     0.90430   0.93128   0.41027   0.00000  Uiso   1.00
N688   N     0.81993   0.74492   0.10721   0.00000  Uiso   1.00
O689   O     0.84874   0.72506   0.13041   0.00000  Uiso   1.00
O690   O     0.78698   0.71967   0.08962   0.00000  Uiso   1.00
N691   N     0.69690   0.75278   0.21581   0.00000  Uiso   1.00
O692   O     0.70697   0.72157   0.24333   0.00000  Uiso   1.00
O693   O     0.68722   0.74065   0.17393   0.00000  Uiso   1.00
N694   N     0.97004   0.91447   0.28474   0.00000  Uiso   1.00
O695   O     0.95932   0.94518   0.25693   0.00000  Uiso   1.00
O696   O     0.98010   0.92727   0.32643   0.00000  Uiso   1.00
N697   N     0.94652   0.76208   0.20242   0.00000  Uiso   1.00
O698   O     0.92463   0.77220   0.16627   0.00000  Uiso   1.00
O699   O     0.94471   0.71966   0.21432   0.00000  Uiso   1.00
N700   N     0.72063   0.90572   0.29741   0.00000  Uiso   1.00
O701   O     0.74484   0.89627   0.33224   0.00000  Uiso   1.00
O702   O     0.72136   0.94792   0.28496   0.00000  Uiso   1.00
O703   O     0.10655   0.20625   0.75000   0.00000  Uiso   1.00
O704   O     0.22679   0.12709   0.75001   0.00000  Uiso   1.00
O705   O     0.22679   0.20625   0.75001   0.00000  Uiso   1.00
O706   O     0.10655   0.12709   0.75000   0.00000  Uiso   1.00
N707   N     0.16667   0.28402   0.75000   0.00000  Uiso   1.00
N708   N     0.16667   0.04931   0.75000   0.00000  Uiso   1.00
C709   C     0.08754   0.16533   0.75105   0.00000  Uiso   1.00
C710   C     0.24588   0.16809   0.74922   0.00000  Uiso   1.00
O711   O     0.16666   0.20626   0.68573   0.00000  Uiso   1.00
O712   O     0.16667   0.12707   0.81427   0.00000  Uiso   1.00
O713   O     0.16667   0.20626   0.81427   0.00000  Uiso   1.00
O714   O     0.16666   0.12707   0.68573   0.00000  Uiso   1.00
C715   C     0.16871   0.16563   0.66537   0.00000  Uiso   1.00
C716   C     0.16544   0.16772   0.83476   0.00000  Uiso   1.00
Cu717  Cu    0.16667   0.21355   0.75000   0.00000  Uiso   1.00
Cu718  Cu    0.16667   0.11978   0.75000   0.00000  Uiso   1.00
C719   C     0.13964   0.01985   0.71997   0.00000  Uiso   1.00
C720   C     0.19360   0.31358   0.77999   0.00000  Uiso   1.00
C721   C     0.19121   0.02922   0.78145   0.00000  Uiso   1.00
C722   C     0.14167   0.30407   0.71883   0.00000  Uiso   1.00
C723   C     0.01565   0.12729   0.73291   0.00000  Uiso   1.00
C724   C     0.31794   0.20643   0.76796   0.00000  Uiso   1.00
C725   C     0.30659   0.13089   0.72827   0.00000  Uiso   1.00
C726   C     0.02707   0.20288   0.77256   0.00000  Uiso   1.00
C727   C     0.18165   0.20555   0.55224   0.00000  Uiso   1.00
C728   C     0.14218   0.13300   0.94746   0.00000  Uiso   1.00
C729   C     0.18901   0.20174   0.95681   0.00000  Uiso   1.00
C730   C     0.16212   0.12358   0.54441   0.00000  Uiso   1.00
H731   H     0.18804   0.23843   0.53860   0.00000  Uiso   1.00
H732   H     0.12298   0.10677   0.96078   0.00000  Uiso   1.00
H733   H     0.20914   0.22783   0.97696   0.00000  Uiso   1.00
H734   H     0.15574   0.09129   0.52455   0.00000  Uiso   1.00
C735   C     0.18681   0.20434   0.59818   0.00000  Uiso   1.00
C736   C     0.14014   0.13378   0.90141   0.00000  Uiso   1.00
C737   C     0.18447   0.20571   0.91139   0.00000  Uiso   1.00
C738   C     0.16286   0.12224   0.59010   0.00000  Uiso   1.00
C739   C     0.17352   0.16353   0.61767   0.00000  Uiso   1.00
C740   C     0.16249   0.16984   0.88280   0.00000  Uiso   1.00
C741   C     0.16990   0.16523   0.52470   0.00000  Uiso   1.00
C742   C     0.16734   0.16627   0.97573   0.00000  Uiso   1.00
C743   C     0.29058   0.16984   0.74706   0.00000  Uiso   1.00
C744   C     0.04299   0.16381   0.75375   0.00000  Uiso   1.00
N745   N     0.10552   0.03618   0.69193   0.00000  Uiso   1.00
O746   O     0.10562   0.07775   0.67904   0.00000  Uiso   1.00
O747   O     0.07276   0.00864   0.67849   0.00000  Uiso   1.00
N748   N     0.22758   0.29735   0.80816   0.00000  Uiso   1.00
O749   O     0.22876   0.25481   0.81778   0.00000  Uiso   1.00
O750   O     0.25958   0.32532   0.82340   0.00000  Uiso   1.00
N751   N     0.21112   0.05688   0.81951   0.00000  Uiso   1.00
O752   O     0.24560   0.08132   0.81781   0.00000  Uiso   1.00
O753   O     0.19959   0.04969   0.85797   0.00000  Uiso   1.00
N754   N     0.12019   0.27606   0.68172   0.00000  Uiso   1.00
O755   O     0.08532   0.25316   0.68512   0.00000  Uiso   1.00
O756   O     0.12935   0.28362   0.64237   0.00000  Uiso   1.00
N757   N     0.20847   0.24358   0.62421   0.00000  Uiso   1.00
O758   O     0.23680   0.23697   0.65648   0.00000  Uiso   1.00
O759   O     0.20662   0.28500   0.61011   0.00000  Uiso   1.00
N760   N     0.11325   0.09934   0.87422   0.00000  Uiso   1.00
O761   O     0.08822   0.11153   0.84125   0.00000  Uiso   1.00
O762   O     0.10898   0.05718   0.88649   0.00000  Uiso   1.00
N763   N     0.20021   0.24811   0.89572   0.00000  Uiso   1.00
O764   O     0.17420   0.27620   0.87922   0.00000  Uiso   1.00
O765   O     0.23764   0.26462   0.91027   0.00000  Uiso   1.00
N766   N     0.15327   0.07825   0.60721   0.00000  Uiso   1.00
O767   O     0.18208   0.05839   0.63041   0.00000  Uiso   1.00
O768   O     0.12032   0.05300   0.58962   0.00000  Uiso   1.00
N769   N     0.03023   0.08611   0.71581   0.00000  Uiso   1.00
O770   O     0.04030   0.05490   0.74333   0.00000  Uiso   1.00
O771   O     0.02056   0.07399   0.67393   0.00000  Uiso   1.00
N772   N     0.30337   0.24780   0.78474   0.00000  Uiso   1.00
O773   O     0.29265   0.27851   0.75693   0.00000  Uiso   1.00
O774   O     0.31344   0.26060   0.82643   0.00000  Uiso   1.00
N775   N     0.27986   0.09541   0.70242   0.00000  Uiso   1.00
O776   O     0.25796   0.10553   0.66627   0.00000  Uiso   1.00
O777   O     0.27804   0.05299   0.71432   0.00000  Uiso   1.00
N778   N     0.05396   0.23905   0.79741   0.00000  Uiso   1.00
O779   O     0.07817   0.22961   0.83224   0.00000  Uiso   1.00
O780   O     0.05469   0.28126   0.78496   0.00000  Uiso   1.00
O781   O     0.43988   0.20625   0.75000   0.00000  Uiso   1.00
O782   O     0.56012   0.12709   0.75001   0.00000  Uiso   1.00
O783   O     0.56012   0.20625   0.75001   0.00000  Uiso   1.00
O784   O     0.43988   0.12709   0.75000   0.00000  Uiso   1.00
N785   N     0.50000   0.28402   0.75000   0.00000  Uiso   1.00
N786   N     0.50000   0.04931   0.75000   0.00000  Uiso   1.00
C787   C     0.42087   0.16533   0.75105   0.00000  Uiso   1.00
C788   C     0.57921   0.16809   0.74922   0.00000  Uiso   1.00
O789   O     0.50000   0.20626   0.68573   0.00000  Uiso   1.00
O790   O     0.50000   0.12707   0.81427   0.00000  Uiso   1.00
O791   O     0.50000   0.20626   0.81427   0.00000  Uiso   1.00
O792   O     0.50000   0.12707   0.68573   0.00000  Uiso   1.00
C793   C     0.50205   0.16563   0.66537   0.00000  Uiso   1.00
C794   C     0.49878   0.16772   0.83476   0.00000  Uiso   1.00
Cu795  Cu    0.50000   0.21355   0.75000   0.00000  Uiso   1.00
Cu796  Cu    0.50000   0.11978   0.75000   0.00000  Uiso   1.00
C797   C     0.47297   0.01985   0.71997   0.00000  Uiso   1.00
C798   C     0.52693   0.31358   0.77999   0.00000  Uiso   1.00
C799   C     0.52454   0.02922   0.78145   0.00000  Uiso   1.00
C800   C     0.47500   0.30407   0.71883   0.00000  Uiso   1.00
C801   C     0.34898   0.12729   0.73291   0.00000  Uiso   1.00
C802   C     0.65127   0.20643   0.76796   0.00000  Uiso   1.00
C803   C     0.63993   0.13089   0.72827   0.00000  Uiso   1.00
C804   C     0.36040   0.20288   0.77256   0.00000  Uiso   1.00
C805   C     0.51499   0.20555   0.55224   0.00000  Uiso   1.00
C806   C     0.47551   0.13300   0.94746   0.00000  Uiso   1.00
C807   C     0.52235   0.20174   0.95681   0.00000  Uiso   1.00
C808   C     0.49545   0.12358   0.54441   0.00000  Uiso   1.00
H809   H     0.52137   0.23843   0.53860   0.00000  Uiso   1.00
H810   H     0.45631   0.10677   0.96078   0.00000  Uiso   1.00
H811   H     0.54248   0.22783   0.97696   0.00000  Uiso   1.00
H812   H     0.48907   0.09129   0.52455   0.00000  Uiso   1.00
C813   C     0.52015   0.20434   0.59818   0.00000  Uiso   1.00
C814   C     0.47347   0.13378   0.90141   0.00000  Uiso   1.00
C815   C     0.51780   0.20571   0.91139   0.00000  Uiso   1.00
C816   C     0.49619   0.12224   0.59010   0.00000  Uiso   1.00
C817   C     0.50685   0.16353   0.61767   0.00000  Uiso   1.00
C818   C     0.49582   0.16984   0.88280   0.00000  Uiso   1.00
C819   C     0.50323   0.16523   0.52470   0.00000  Uiso   1.00
C820   C     0.50068   0.16627   0.97573   0.00000  Uiso   1.00
C821   C     0.62391   0.16984   0.74706   0.00000  Uiso   1.00
C822   C     0.37632   0.16381   0.75375   0.00000  Uiso   1.00
N823   N     0.43885   0.03618   0.69193   0.00000  Uiso   1.00
O824   O     0.43895   0.07775   0.67904   0.00000  Uiso   1.00
O825   O     0.40609   0.00864   0.67849   0.00000  Uiso   1.00
N826   N     0.56091   0.29735   0.80816   0.00000  Uiso   1.00
O827   O     0.56209   0.25481   0.81778   0.00000  Uiso   1.00
O828   O     0.59292   0.32532   0.82340   0.00000  Uiso   1.00
N829   N     0.54445   0.05688   0.81951   0.00000  Uiso   1.00
O830   O     0.57894   0.08132   0.81781   0.00000  Uiso   1.00
O831   O     0.53292   0.04969   0.85797   0.00000  Uiso   1.00
N832   N     0.45352   0.27606   0.68172   0.00000  Uiso   1.00
O833   O     0.41865   0.25316   0.68512   0.00000  Uiso   1.00
O834   O     0.46268   0.28362   0.64237   0.00000  Uiso   1.00
N835   N     0.54180   0.24358   0.62421   0.00000  Uiso   1.00
O836   O     0.57013   0.23697   0.65648   0.00000  Uiso   1.00
O837   O     0.53995   0.28500   0.61011   0.00000  Uiso   1.00
N838   N     0.44659   0.09934   0.87422   0.00000  Uiso   1.00
O839   O     0.42156   0.11153   0.84125   0.00000  Uiso   1.00
O840   O     0.44231   0.05718   0.88649   0.00000  Uiso   1.00
N841   N     0.53354   0.24811   0.89572   0.00000  Uiso   1.00
O842   O     0.50753   0.27620   0.87922   0.00000  Uiso   1.00
O843   O     0.57097   0.26462   0.91027   0.00000  Uiso   1.00
N844   N     0.48660   0.07825   0.60721   0.00000  Uiso   1.00
O845   O     0.51541   0.05839   0.63041   0.00000  Uiso   1.00
O846   O     0.45365   0.05300   0.58962   0.00000  Uiso   1.00
N847   N     0.36357   0.08611   0.71581   0.00000  Uiso   1.00
O848   O     0.37364   0.05490   0.74333   0.00000  Uiso   1.00
O849   O     0.35389   0.07399   0.67393   0.00000  Uiso   1.00
N850   N     0.63670   0.24780   0.78474   0.00000  Uiso   1.00
O851   O     0.62599   0.27851   0.75693   0.00000  Uiso   1.00
O852   O     0.64677   0.26060   0.82643   0.00000  Uiso   1.00
N853   N     0.61319   0.09541   0.70242   0.00000  Uiso   1.00
O854   O     0.59129   0.10553   0.66627   0.00000  Uiso   1.00
O855   O     0.61138   0.05299   0.71432   0.00000  Uiso   1.00
N856   N     0.38729   0.23905   0.79741   0.00000  Uiso   1.00
O857   O     0.41151   0.22961   0.83224   0.00000  Uiso   1.00
O858   O     0.38802   0.28126   0.78496   0.00000  Uiso   1.00
O859   O     0.77321   0.20625   0.75000   0.00000  Uiso   1.00
O860   O     0.89345   0.12709   0.75001   0.00000  Uiso   1.00
O861   O     0.89345   0.20625   0.75001   0.00000  Uiso   1.00
O862   O     0.77321   0.12709   0.75000   0.00000  Uiso   1.00
N863   N     0.83333   0.28402   0.75000   0.00000  Uiso   1.00
N864   N     0.83333   0.04931   0.75000   0.00000  Uiso   1.00
C865   C     0.75420   0.16533   0.75105   0.00000  Uiso   1.00
C866   C     0.91254   0.16809   0.74922   0.00000  Uiso   1.00
O867   O     0.83333   0.20626   0.68573   0.00000  Uiso   1.00
O868   O     0.83334   0.12707   0.81427   0.00000  Uiso   1.00
O869   O     0.83334   0.20626   0.81427   0.00000  Uiso   1.00
O870   O     0.83333   0.12707   0.68573   0.00000  Uiso   1.00
C871   C     0.83538   0.16563   0.66537   0.00000  Uiso   1.00
C872   C     0.83211   0.16772   0.83476   0.00000  Uiso   1.00
Cu873  Cu    0.83333   0.21355   0.75000   0.00000  Uiso   1.00
Cu874  Cu    0.83333   0.11978   0.75000   0.00000  Uiso   1.00
C875   C     0.80630   0.01985   0.71997   0.00000  Uiso   1.00
C876   C     0.86027   0.31358   0.77999   0.00000  Uiso   1.00
C877   C     0.85788   0.02922   0.78145   0.00000  Uiso   1.00
C878   C     0.80834   0.30407   0.71883   0.00000  Uiso   1.00
C879   C     0.68231   0.12729   0.73291   0.00000  Uiso   1.00
C880   C     0.98460   0.20643   0.76796   0.00000  Uiso   1.00
C881   C     0.97326   0.13089   0.72827   0.00000  Uiso   1.00
C882   C     0.69373   0.20288   0.77256   0.00000  Uiso   1.00
C883   C     0.84832   0.20555   0.55224   0.00000  Uiso   1.00
C884   C     0.80884   0.13300   0.94746   0.00000  Uiso   1.00
C885   C     0.85568   0.20174   0.95681   0.00000  Uiso   1.00
C886   C     0.82878   0.12358   0.54441   0.00000  Uiso   1.00
H887   H     0.85471   0.23843   0.53860   0.00000  Uiso   1.00
H888   H     0.78964   0.10677   0.96078   0.00000  Uiso   1.00
H889   H     0.87581   0.22783   0.97696   0.00000  Uiso   1.00
H890   H     0.82240   0.09129   0.52455   0.00000  Uiso   1.00
C891   C     0.85348   0.20434   0.59818   0.00000  Uiso   1.00
C892   C     0.80681   0.13378   0.90141   0.00000  Uiso   1.00
C893   C     0.85114   0.20571   0.91139   0.00000  Uiso   1.00
C894   C     0.82953   0.12224   0.59010   0.00000  Uiso   1.00
C895   C     0.84018   0.16353   0.61767   0.00000  Uiso   1.00
C896   C     0.82916   0.16984   0.88280   0.00000  Uiso   1.00
C897   C     0.83656   0.16523   0.52470   0.00000  Uiso   1.00
C898   C     0.83401   0.16627   0.97573   0.00000  Uiso   1.00
C899   C     0.95725   0.16984   0.74706   0.00000  Uiso   1.00
C900   C     0.70966   0.16381   0.75375   0.00000  Uiso   1.00
N901   N     0.77218   0.03618   0.69193   0.00000  Uiso   1.00
O902   O     0.77229   0.07775   0.67904   0.00000  Uiso   1.00
O903   O     0.73943   0.00864   0.67849   0.00000  Uiso   1.00
N904   N     0.89425   0.29735   0.80816   0.00000  Uiso   1.00
O905   O     0.89543   0.25481   0.81778   0.00000  Uiso   1.00
O906   O     0.92625   0.32532   0.82340   0.00000  Uiso   1.00
N907   N     0.87779   0.05688   0.81951   0.00000  Uiso   1.00
O908   O     0.91227   0.08132   0.81781   0.00000  Uiso   1.00
O909   O     0.86625   0.04969   0.85797   0.00000  Uiso   1.00
N910   N     0.78685   0.27606   0.68172   0.00000  Uiso   1.00
O911   O     0.75199   0.25316   0.68512   0.00000  Uiso   1.00
O912   O     0.79602   0.28362   0.64237   0.00000  Uiso   1.00
N913   N     0.87513   0.24358   0.62421   0.00000  Uiso   1.00
O914   O     0.90347   0.23697   0.65648   0.00000  Uiso   1.00
O915   O     0.87328   0.28500   0.61011   0.00000  Uiso   1.00
N916   N     0.77992   0.09934   0.87422   0.00000  Uiso   1.00
O917   O     0.75489   0.11153   0.84125   0.00000  Uiso   1.00
O918   O     0.77564   0.05718   0.88649   0.00000  Uiso   1.00
N919   N     0.86688   0.24811   0.89572   0.00000  Uiso   1.00
O920   O     0.84087   0.27620   0.87922   0.00000  Uiso   1.00
O921   O     0.90430   0.26462   0.91027   0.00000  Uiso   1.00
N922   N     0.81993   0.07825   0.60721   0.00000  Uiso   1.00
O923   O     0.84874   0.05839   0.63041   0.00000  Uiso   1.00
O924   O     0.78698   0.05300   0.58962   0.00000  Uiso   1.00
N925   N     0.69690   0.08611   0.71581   0.00000  Uiso   1.00
O926   O     0.70697   0.05490   0.74333   0.00000  Uiso   1.00
O927   O     0.68722   0.07399   0.67393   0.00000  Uiso   1.00
N928   N     0.97004   0.24780   0.78474   0.00000  Uiso   1.00
O929   O     0.95932   0.27851   0.75693   0.00000  Uiso   1.00
O930   O     0.98010   0.26060   0.82643   0.00000  Uiso   1.00
N931   N     0.94652   0.09541   0.70242   0.00000  Uiso   1.00
O932   O     0.92463   0.10553   0.66627   0.00000  Uiso   1.00
O933   O     0.94471   0.05299   0.71432   0.00000  Uiso   1.00
N934   N     0.72063   0.23905   0.79741   0.00000  Uiso   1.00
O935   O     0.74484   0.22961   0.83224   0.00000  Uiso   1.00
O936   O     0.72136   0.28126   0.78496   0.00000  Uiso   1.00
O937   O     0.10655   0.53958   0.75000   0.00000  Uiso   1.00
O938   O     0.22679   0.46042   0.75001   0.00000  Uiso   1.00
O939   O     0.22679   0.53958   0.75001   0.00000  Uiso   1.00
O940   O     0.10655   0.46042   0.75000   0.00000  Uiso   1.00
N941   N     0.16667   0.61736   0.75000   0.00000  Uiso   1.00
N942   N     0.16667   0.38264   0.75000   0.00000  Uiso   1.00
C943   C     0.08754   0.49866   0.75105   0.00000  Uiso   1.00
C944   C     0.24588   0.50142   0.74922   0.00000  Uiso   1.00
O945   O     0.16666   0.53959   0.68573   0.00000  Uiso   1.00
O946   O     0.16667   0.46041   0.81427   0.00000  Uiso   1.00
O947   O     0.16667   0.53959   0.81427   0.00000  Uiso   1.00
O948   O     0.16666   0.46041   0.68573   0.00000  Uiso   1.00
C949   C     0.16871   0.49897   0.66537   0.00000  Uiso   1.00
C950   C     0.16544   0.50105   0.83476   0.00000  Uiso   1.00
Cu951  Cu    0.16667   0.54689   0.75000   0.00000  Uiso   1.00
Cu952  Cu    0.16667   0.45311   0.75000   0.00000  Uiso   1.00
C953   C     0.13964   0.35318   0.71997   0.00000  Uiso   1.00
C954   C     0.19360   0.64691   0.77999   0.00000  Uiso   1.00
C955   C     0.19121   0.36255   0.78145   0.00000  Uiso   1.00
C956   C     0.14167   0.63741   0.71883   0.00000  Uiso   1.00
C957   C     0.01565   0.46063   0.73291   0.00000  Uiso   1.00
C958   C     0.31794   0.53977   0.76796   0.00000  Uiso   1.00
C959   C     0.30659   0.46422   0.72827   0.00000  Uiso   1.00
C960   C     0.02707   0.53621   0.77256   0.00000  Uiso   1.00
C961   C     0.18165   0.53889   0.55224   0.00000  Uiso   1.00
C962   C     0.14218   0.46633   0.94746   0.00000  Uiso   1.00
C963   C     0.18901   0.53507   0.95681   0.00000  Uiso   1.00
C964   C     0.16212   0.45691   0.54441   0.00000  Uiso   1.00
H965   H     0.18804   0.57177   0.53860   0.00000  Uiso   1.00
H966   H     0.12298   0.44010   0.96078   0.00000  Uiso   1.00
H967   H     0.20914   0.56117   0.97696   0.00000  Uiso   1.00
H968   H     0.15574   0.42462   0.52455   0.00000  Uiso   1.00
C969   C     0.18681   0.53767   0.59818   0.00000  Uiso   1.00
C970   C     0.14014   0.46712   0.90141   0.00000  Uiso   1.00
C971   C     0.18447   0.53905   0.91139   0.00000  Uiso   1.00
C972   C     0.16286   0.45557   0.59010   0.00000  Uiso   1.00
C973   C     0.17352   0.49686   0.61767   0.00000  Uiso   1.00
C974   C     0.16249   0.50317   0.88280   0.00000  Uiso   1.00
C975   C     0.16990   0.49857   0.52470   0.00000  Uiso   1.00
C976   C     0.16734   0.49960   0.97573   0.00000  Uiso   1.00
C977   C     0.29058   0.50317   0.74706   0.00000  Uiso   1.00
C978   C     0.04299   0.49714   0.75375   0.00000  Uiso   1.00
N979   N     0.10552   0.36952   0.69193   0.00000  Uiso   1.00
O980   O     0.10562   0.41108   0.67904   0.00000  Uiso   1.00
O981   O     0.07276   0.34198   0.67849   0.00000  Uiso   1.00
N982   N     0.22758   0.63068   0.80816   0.00000  Uiso   1.00
O983   O     0.22876   0.58815   0.81778   0.00000  Uiso   1.00
O984   O     0.25958   0.65866   0.82340   0.00000  Uiso   1.00
N985   N     0.21112   0.39021   0.81951   0.00000  Uiso   1.00
O986   O     0.24560   0.41466   0.81781   0.00000  Uiso   1.00
O987   O     0.19959   0.38302   0.85797   0.00000  Uiso   1.00
N988   N     0.12019   0.60939   0.68172   0.00000  Uiso   1.00
O989   O     0.08532   0.58649   0.68512   0.00000  Uiso   1.00
O990   O     0.12935   0.61696   0.64237   0.00000  Uiso   1.00
N991   N     0.20847   0.57691   0.62421   0.00000  Uiso   1.00
O992   O     0.23680   0.57031   0.65648   0.00000  Uiso   1.00
O993   O     0.20662   0.61833   0.61011   0.00000  Uiso   1.00
N994   N     0.11325   0.43267   0.87422   0.00000  Uiso   1.00
O995   O     0.08822   0.44486   0.84125   0.00000  Uiso   1.00
O996   O     0.10898   0.39051   0.88649   0.00000  Uiso   1.00
N997   N     0.20021   0.58144   0.89572   0.00000  Uiso   1.00
O998   O     0.17420   0.60953   0.87922   0.00000  Uiso   1.00
O999   O     0.23764   0.59795   0.91027   0.00000  Uiso   1.00
N1000  N     0.15327   0.41158   0.60721   0.00000  Uiso   1.00
O1001  O     0.18208   0.39173   0.63041   0.00000  Uiso   1.00
O1002  O     0.12032   0.38633   0.58962   0.00000  Uiso   1.00
N1003  N     0.03023   0.41944   0.71581   0.00000  Uiso   1.00
O1004  O     0.04030   0.38823   0.74333   0.00000  Uiso   1.00
O1005  O     0.02056   0.40732   0.67393   0.00000  Uiso   1.00
N1006  N     0.30337   0.58114   0.78474   0.00000  Uiso   1.00
O1007  O     0.29265   0.61184   0.75693   0.00000  Uiso   1.00
O1008  O     0.31344   0.59394   0.82643   0.00000  Uiso   1.00
N1009  N     0.27986   0.42875   0.70242   0.00000  Uiso   1.00
O1010  O     0.25796   0.43886   0.66627   0.00000  Uiso   1.00
O1011  O     0.27804   0.38633   0.71432   0.00000  Uiso   1.00
N1012  N     0.05396   0.57238   0.79741   0.00000  Uiso   1.00
O1013  O     0.07817   0.56294   0.83224   0.00000  Uiso   1.00
O1014  O     0.05469   0.61459   0.78496   0.00000  Uiso   1.00
O1015  O     0.43988   0.53958   0.75000   0.00000  Uiso   1.00
O1016  O     0.56012   0.46042   0.75001   0.00000  Uiso   1.00
O1017  O     0.56012   0.53958   0.75001   0.00000  Uiso   1.00
O1018  O     0.43988   0.46042   0.75000   0.00000  Uiso   1.00
N1019  N     0.50000   0.61736   0.75000   0.00000  Uiso   1.00
N1020  N     0.50000   0.38264   0.75000   0.00000  Uiso   1.00
C1021  C     0.42087   0.49866   0.75105   0.00000  Uiso   1.00
C1022  C     0.57921   0.50142   0.74922   0.00000  Uiso   1.00
O1023  O     0.50000   0.53959   0.68573   0.00000  Uiso   1.00
O1024  O     0.50000   0.46041   0.81427   0.00000  Uiso   1.00
O1025  O     0.50000   0.53959   0.81427   0.00000  Uiso   1.00
O1026  O     0.50000   0.46041   0.68573   0.00000  Uiso   1.00
C1027  C     0.50205   0.49897   0.66537   0.00000  Uiso   1.00
C1028  C     0.49878   0.50105   0.83476   0.00000  Uiso   1.00
Cu1029 Cu    0.50000   0.54689   0.75000   0.00000  Uiso   1.00
Cu1030 Cu    0.50000   0.45311   0.75000   0.00000  Uiso   1.00
C1031  C     0.47297   0.35318   0.71997   0.00000  Uiso   1.00
C1032  C     0.52693   0.64691   0.77999   0.00000  Uiso   1.00
C1033  C     0.52454   0.36255   0.78145   0.00000  Uiso   1.00
C1034  C     0.47500   0.63741   0.71883   0.00000  Uiso   1.00
C1035  C     0.34898   0.46063   0.73291   0.00000  Uiso   1.00
C1036  C     0.65127   0.53977   0.76796   0.00000  Uiso   1.00
C1037  C     0.63993   0.46422   0.72827   0.00000  Uiso   1.00
C1038  C     0.36040   0.53621   0.77256   0.00000  Uiso   1.00
C1039  C     0.51499   0.53889   0.55224   0.00000  Uiso   1.00
C1040  C     0.47551   0.46633   0.94746   0.00000  Uiso   1.00
C1041  C     0.52235   0.53507   0.95681   0.00000  Uiso   1.00
C1042  C     0.49545   0.45691   0.54441   0.00000  Uiso   1.00
H1043  H     0.52137   0.57177   0.53860   0.00000  Uiso   1.00
H1044  H     0.45631   0.44010   0.96078   0.00000  Uiso   1.00
H1045  H     0.54248   0.56117   0.97696   0.00000  Uiso   1.00
H1046  H     0.48907   0.42462   0.52455   0.00000  Uiso   1.00
C1047  C     0.52015   0.53767   0.59818   0.00000  Uiso   1.00
C1048  C     0.47347   0.46712   0.90141   0.00000  Uiso   1.00
C1049  C     0.51780   0.53905   0.91139   0.00000  Uiso   1.00
C1050  C     0.49619   0.45557   0.59010   0.00000  Uiso   1.00
C1051  C     0.50685   0.49686   0.61767   0.00000  Uiso   1.00
C1052  C     0.49582   0.50317   0.88280   0.00000  Uiso   1.00
C1053  C     0.50323   0.49857   0.52470   0.00000  Uiso   1.00
C1054  C     0.50068   0.49960   0.97573   0.00000  Uiso   1.00
C1055  C     0.62391   0.50317   0.74706   0.00000  Uiso   1.00
C1056  C     0.37632   0.49714   0.75375   0.00000  Uiso   1.00
N1057  N     0.43885   0.36952   0.69193   0.00000  Uiso   1.00
O1058  O     0.43895   0.41108   0.67904   0.00000  Uiso   1.00
O1059  O     0.40609   0.34198   0.67849   0.00000  Uiso   1.00
N1060  N     0.56091   0.63068   0.80816   0.00000  Uiso   1.00
O1061  O     0.56209   0.58815   0.81778   0.00000  Uiso   1.00
O1062  O     0.59292   0.65866   0.82340   0.00000  Uiso   1.00
N1063  N     0.54445   0.39021   0.81951   0.00000  Uiso   1.00
O1064  O     0.57894   0.41466   0.81781   0.00000  Uiso   1.00
O1065  O     0.53292   0.38302   0.85797   0.00000  Uiso   1.00
N1066  N     0.45352   0.60939   0.68172   0.00000  Uiso   1.00
O1067  O     0.41865   0.58649   0.68512   0.00000  Uiso   1.00
O1068  O     0.46268   0.61696   0.64237   0.00000  Uiso   1.00
N1069  N     0.54180   0.57691   0.62421   0.00000  Uiso   1.00
O1070  O     0.57013   0.57031   0.65648   0.00000  Uiso   1.00
O1071  O     0.53995   0.61833   0.61011   0.00000  Uiso   1.00
N1072  N     0.44659   0.43267   0.87422   0.00000  Uiso   1.00
O1073  O     0.42156   0.44486   0.84125   0.00000  Uiso   1.00
O1074  O     0.44231   0.39051   0.88649   0.00000  Uiso   1.00
N1075  N     0.53354   0.58144   0.89572   0.00000  Uiso   1.00
O1076  O     0.50753   0.60953   0.87922   0.00000  Uiso   1.00
O1077  O     0.57097   0.59795   0.91027   0.00000  Uiso   1.00
N1078  N     0.48660   0.41158   0.60721   0.00000  Uiso   1.00
O1079  O     0.51541   0.39173   0.63041   0.00000  Uiso   1.00
O1080  O     0.45365   0.38633   0.58962   0.00000  Uiso   1.00
N1081  N     0.36357   0.41944   0.71581   0.00000  Uiso   1.00
O1082  O     0.37364   0.38823   0.74333   0.00000  Uiso   1.00
O1083  O     0.35389   0.40732   0.67393   0.00000  Uiso   1.00
N1084  N     0.63670   0.58114   0.78474   0.00000  Uiso   1.00
O1085  O     0.62599   0.61184   0.75693   0.00000  Uiso   1.00
O1086  O     0.64677   0.59394   0.82643   0.00000  Uiso   1.00
N1087  N     0.61319   0.42875   0.70242   0.00000  Uiso   1.00
O1088  O     0.59129   0.43886   0.66627   0.00000  Uiso   1.00
O1089  O     0.61138   0.38633   0.71432   0.00000  Uiso   1.00
N1090  N     0.38729   0.57238   0.79741   0.00000  Uiso   1.00
O1091  O     0.41151   0.56294   0.83224   0.00000  Uiso   1.00
O1092  O     0.38802   0.61459   0.78496   0.00000  Uiso   1.00
O1093  O     0.77321   0.53958   0.75000   0.00000  Uiso   1.00
O1094  O     0.89345   0.46042   0.75001   0.00000  Uiso   1.00
O1095  O     0.89345   0.53958   0.75001   0.00000  Uiso   1.00
O1096  O     0.77321   0.46042   0.75000   0.00000  Uiso   1.00
N1097  N     0.83333   0.61736   0.75000   0.00000  Uiso   1.00
N1098  N     0.83333   0.38264   0.75000   0.00000  Uiso   1.00
C1099  C     0.75420   0.49866   0.75105   0.00000  Uiso   1.00
C1100  C     0.91254   0.50142   0.74922   0.00000  Uiso   1.00
O1101  O     0.83333   0.53959   0.68573   0.00000  Uiso   1.00
O1102  O     0.83334   0.46041   0.81427   0.00000  Uiso   1.00
O1103  O     0.83334   0.53959   0.81427   0.00000  Uiso   1.00
O1104  O     0.83333   0.46041   0.68573   0.00000  Uiso   1.00
C1105  C     0.83538   0.49897   0.66537   0.00000  Uiso   1.00
C1106  C     0.83211   0.50105   0.83476   0.00000  Uiso   1.00
Cu1107 Cu    0.83333   0.54689   0.75000   0.00000  Uiso   1.00
Cu1108 Cu    0.83333   0.45311   0.75000   0.00000  Uiso   1.00
C1109  C     0.80630   0.35318   0.71997   0.00000  Uiso   1.00
C1110  C     0.86027   0.64691   0.77999   0.00000  Uiso   1.00
C1111  C     0.85788   0.36255   0.78145   0.00000  Uiso   1.00
C1112  C     0.80834   0.63741   0.71883   0.00000  Uiso   1.00
C1113  C     0.68231   0.46063   0.73291   0.00000  Uiso   1.00
C1114  C     0.98460   0.53977   0.76796   0.00000  Uiso   1.00
C1115  C     0.97326   0.46422   0.72827   0.00000  Uiso   1.00
C1116  C     0.69373   0.53621   0.77256   0.00000  Uiso   1.00
C1117  C     0.84832   0.53889   0.55224   0.00000  Uiso   1.00
C1118  C     0.80884   0.46633   0.94746   0.00000  Uiso   1.00
C1119  C     0.85568   0.53507   0.95681   0.00000  Uiso   1.00
C1120  C     0.82878   0.45691   0.54441   0.00000  Uiso   1.00
H1121  H     0.85471   0.57177   0.53860   0.00000  Uiso   1.00
H1122  H     0.78964   0.44010   0.96078   0.00000  Uiso   1.00
H1123  H     0.87581   0.56117   0.97696   0.00000  Uiso   1.00
H1124  H     0.82240   0.42462   0.52455   0.00000  Uiso   1.00
C1125  C     0.85348   0.53767   0.59818   0.00000  Uiso   1.00
C1126  C     0.80681   0.46712   0.90141   0.00000  Uiso   1.00
C1127  C     0.85114   0.53905   0.91139   0.00000  Uiso   1.00
C1128  C     0.82953   0.45557   0.59010   0.00000  Uiso   1.00
C1129  C     0.84018   0.49686   0.61767   0.00000  Uiso   1.00
C1130  C     0.82916   0.50317   0.88280   0.00000  Uiso   1.00
C1131  C     0.83656   0.49857   0.52470   0.00000  Uiso   1.00
C1132  C     0.83401   0.49960   0.97573   0.00000  Uiso   1.00
C1133  C     0.95725   0.50317   0.74706   0.00000  Uiso   1.00
C1134  C     0.70966   0.49714   0.75375   0.00000  Uiso   1.00
N1135  N     0.77218   0.36952   0.69193   0.00000  Uiso   1.00
O1136  O     0.77229   0.41108   0.67904   0.00000  Uiso   1.00
O1137  O     0.73943   0.34198   0.67849   0.00000  Uiso   1.00
N1138  N     0.89425   0.63068   0.80816   0.00000  Uiso   1.00
O1139  O     0.89543   0.58815   0.81778   0.00000  Uiso   1.00
O1140  O     0.92625   0.65866   0.82340   0.00000  Uiso   1.00
N1141  N     0.87779   0.39021   0.81951   0.00000  Uiso   1.00
O1142  O     0.91227   0.41466   0.81781   0.00000  Uiso   1.00
O1143  O     0.86625   0.38302   0.85797   0.00000  Uiso   1.00
N1144  N     0.78685   0.60939   0.68172   0.00000  Uiso   1.00
O1145  O     0.75199   0.58649   0.68512   0.00000  Uiso   1.00
O1146  O     0.79602   0.61696   0.64237   0.00000  Uiso   1.00
N1147  N     0.87513   0.57691   0.62421   0.00000  Uiso   1.00
O1148  O     0.90347   0.57031   0.65648   0.00000  Uiso   1.00
O1149  O     0.87328   0.61833   0.61011   0.00000  Uiso   1.00
N1150  N     0.77992   0.43267   0.87422   0.00000  Uiso   1.00
O1151  O     0.75489   0.44486   0.84125   0.00000  Uiso   1.00
O1152  O     0.77564   0.39051   0.88649   0.00000  Uiso   1.00
N1153  N     0.86688   0.58144   0.89572   0.00000  Uiso   1.00
O1154  O     0.84087   0.60953   0.87922   0.00000  Uiso   1.00
O1155  O     0.90430   0.59795   0.91027   0.00000  Uiso   1.00
N1156  N     0.81993   0.41158   0.60721   0.00000  Uiso   1.00
O1157  O     0.84874   0.39173   0.63041   0.00000  Uiso   1.00
O1158  O     0.78698   0.38633   0.58962   0.00000  Uiso   1.00
N1159  N     0.69690   0.41944   0.71581   0.00000  Uiso   1.00
O1160  O     0.70697   0.38823   0.74333   0.00000  Uiso   1.00
O1161  O     0.68722   0.40732   0.67393   0.00000  Uiso   1.00
N1162  N     0.97004   0.58114   0.78474   0.00000  Uiso   1.00
O1163  O     0.95932   0.61184   0.75693   0.00000  Uiso   1.00
O1164  O     0.98010   0.59394   0.82643   0.00000  Uiso   1.00
N1165  N     0.94652   0.42875   0.70242   0.00000  Uiso   1.00
O1166  O     0.92463   0.43886   0.66627   0.00000  Uiso   1.00
O1167  O     0.94471   0.38633   0.71432   0.00000  Uiso   1.00
N1168  N     0.72063   0.57238   0.79741   0.00000  Uiso   1.00
O1169  O     0.74484   0.56294   0.83224   0.00000  Uiso   1.00
O1170  O     0.72136   0.61459   0.78496   0.00000  Uiso   1.00
O1171  O     0.10655   0.87291   0.75000   0.00000  Uiso   1.00
O1172  O     0.22679   0.79375   0.75001   0.00000  Uiso   1.00
O1173  O     0.22679   0.87291   0.75001   0.00000  Uiso   1.00
O1174  O     0.10655   0.79375   0.75000   0.00000  Uiso   1.00
N1175  N     0.16667   0.95069   0.75000   0.00000  Uiso   1.00
N1176  N     0.16667   0.71598   0.75000   0.00000  Uiso   1.00
C1177  C     0.08754   0.83199   0.75105   0.00000  Uiso   1.00
C1178  C     0.24588   0.83476   0.74922   0.00000  Uiso   1.00
O1179  O     0.16666   0.87293   0.68573   0.00000  Uiso   1.00
O1180  O     0.16667   0.79374   0.81427   0.00000  Uiso   1.00
O1181  O     0.16667   0.87293   0.81427   0.00000  Uiso   1.00
O1182  O     0.16666   0.79374   0.68573   0.00000  Uiso   1.00
C1183  C     0.16871   0.83230   0.66537   0.00000  Uiso   1.00
C1184  C     0.16544   0.83438   0.83476   0.00000  Uiso   1.00
Cu1185 Cu    0.16667   0.88022   0.75000   0.00000  Uiso   1.00
Cu1186 Cu    0.16667   0.78645   0.75000   0.00000  Uiso   1.00
C1187  C     0.13964   0.68651   0.71997   0.00000  Uiso   1.00
C1188  C     0.19360   0.98025   0.77999   0.00000  Uiso   1.00
C1189  C     0.19121   0.69588   0.78145   0.00000  Uiso   1.00
C1190  C     0.14167   0.97074   0.71883   0.00000  Uiso   1.00
C1191  C     0.01565   0.79396   0.73291   0.00000  Uiso   1.00
C1192  C     0.31794   0.87310   0.76796   0.00000  Uiso   1.00
C1193  C     0.30659   0.79755   0.72827   0.00000  Uiso   1.00
C1194  C     0.02707   0.86955   0.77256   0.00000  Uiso   1.00
C1195  C     0.18165   0.87222   0.55224   0.00000  Uiso   1.00
C1196  C     0.14218   0.79967   0.94746   0.00000  Uiso   1.00
C1197  C     0.18901   0.86841   0.95681   0.00000  Uiso   1.00
C1198  C     0.16212   0.79024   0.54441   0.00000  Uiso   1.00
H1199  H     0.18804   0.90510   0.53860   0.00000  Uiso   1.00
H1200  H     0.12298   0.77344   0.96078   0.00000  Uiso   1.00
H1201  H     0.20914   0.89450   0.97696   0.00000  Uiso   1.00
H1202  H     0.15574   0.75796   0.52455   0.00000  Uiso   1.00
C1203  C     0.18681   0.87101   0.59818   0.00000  Uiso   1.00
C1204  C     0.14014   0.80045   0.90141   0.00000  Uiso   1.00
C1205  C     0.18447   0.87238   0.91139   0.00000  Uiso   1.00
C1206  C     0.16286   0.78891   0.59010   0.00000  Uiso   1.00
C1207  C     0.17352   0.83019   0.61767   0.00000  Uiso   1.00
C1208  C     0.16249   0.83651   0.88280   0.00000  Uiso   1.00
C1209  C     0.16990   0.83190   0.52470   0.00000  Uiso   1.00
C1210  C     0.16734   0.83294   0.97573   0.00000  Uiso   1.00
C1211  C     0.29058   0.83650   0.74706   0.00000  Uiso   1.00
C1212  C     0.04299   0.83048   0.75375   0.00000  Uiso   1.00
N1213  N     0.10552   0.70285   0.69193   0.00000  Uiso   1.00
O1214  O     0.10562   0.74441   0.67904   0.00000  Uiso   1.00
O1215  O     0.07276   0.67531   0.67849   0.00000  Uiso   1.00
N1216  N     0.22758   0.96401   0.80816   0.00000  Uiso   1.00
O1217  O     0.22876   0.92148   0.81778   0.00000  Uiso   1.00
O1218  O     0.25958   0.99199   0.82340   0.00000  Uiso   1.00
N1219  N     0.21112   0.72354   0.81951   0.00000  Uiso   1.00
O1220  O     0.24560   0.74799   0.81781   0.00000  Uiso   1.00
O1221  O     0.19959   0.71635   0.85797   0.00000  Uiso   1.00
N1222  N     0.12019   0.94272   0.68172   0.00000  Uiso   1.00
O1223  O     0.08532   0.91983   0.68512   0.00000  Uiso   1.00
O1224  O     0.12935   0.95029   0.64237   0.00000  Uiso   1.00
N1225  N     0.20847   0.91025   0.62421   0.00000  Uiso   1.00
O1226  O     0.23680   0.90364   0.65648   0.00000  Uiso   1.00
O1227  O     0.20662   0.95166   0.61011   0.00000  Uiso   1.00
N1228  N     0.11325   0.76601   0.87422   0.00000  Uiso   1.00
O1229  O     0.08822   0.77820   0.84125   0.00000  Uiso   1.00
O1230  O     0.10898   0.72385   0.88649   0.00000  Uiso   1.00
N1231  N     0.20021   0.91477   0.89572   0.00000  Uiso   1.00
O1232  O     0.17420   0.94287   0.87922   0.00000  Uiso   1.00
O1233  O     0.23764   0.93128   0.91027   0.00000  Uiso   1.00
N1234  N     0.15327   0.74492   0.60721   0.00000  Uiso   1.00
O1235  O     0.18208   0.72506   0.63041   0.00000  Uiso   1.00
O1236  O     0.12032   0.71967   0.58962   0.00000  Uiso   1.00
N1237  N     0.03023   0.75278   0.71581   0.00000  Uiso   1.00
O1238  O     0.04030   0.72157   0.74333   0.00000  Uiso   1.00
O1239  O     0.02056   0.74065   0.67393   0.00000  Uiso   1.00
N1240  N     0.30337   0.91447   0.78474   0.00000  Uiso   1.00
O1241  O     0.29265   0.94518   0.75693   0.00000  Uiso   1.00
O1242  O     0.31344   0.92727   0.82643   0.00000  Uiso   1.00
N1243  N     0.27986   0.76208   0.70242   0.00000  Uiso   1.00
O1244  O     0.25796   0.77220   0.66627   0.00000  Uiso   1.00
O1245  O     0.27804   0.71966   0.71432   0.00000  Uiso   1.00
N1246  N     0.05396   0.90572   0.79741   0.00000  Uiso   1.00
O1247  O     0.07817   0.89627   0.83224   0.00000  Uiso   1.00
O1248  O     0.05469   0.94792   0.78496   0.00000  Uiso   1.00
O1249  O     0.43988   0.87291   0.75000   0.00000  Uiso   1.00
O1250  O     0.56012   0.79375   0.75001   0.00000  Uiso   1.00
O1251  O     0.56012   0.87291   0.75001   0.00000  Uiso   1.00
O1252  O     0.43988   0.79375   0.75000   0.00000  Uiso   1.00
N1253  N     0.50000   0.95069   0.75000   0.00000  Uiso   1.00
N1254  N     0.50000   0.71598   0.75000   0.00000  Uiso   1.00
C1255  C     0.42087   0.83199   0.75105   0.00000  Uiso   1.00
C1256  C     0.57921   0.83476   0.74922   0.00000  Uiso   1.00
O1257  O     0.50000   0.87293   0.68573   0.00000  Uiso   1.00
O1258  O     0.50000   0.79374   0.81427   0.00000  Uiso   1.00
O1259  O     0.50000   0.87293   0.81427   0.00000  Uiso   1.00
O1260  O     0.50000   0.79374   0.68573   0.00000  Uiso   1.00
C1261  C     0.50205   0.83230   0.66537   0.00000  Uiso   1.00
C1262  C     0.49878   0.83438   0.83476   0.00000  Uiso   1.00
Cu1263 Cu    0.50000   0.88022   0.75000   0.00000  Uiso   1.00
Cu1264 Cu    0.50000   0.78645   0.75000   0.00000  Uiso   1.00
C1265  C     0.47297   0.68651   0.71997   0.00000  Uiso   1.00
C1266  C     0.52693   0.98025   0.77999   0.00000  Uiso   1.00
C1267  C     0.52454   0.69588   0.78145   0.00000  Uiso   1.00
C1268  C     0.47500   0.97074   0.71883   0.00000  Uiso   1.00
C1269  C     0.34898   0.79396   0.73291   0.00000  Uiso   1.00
C1270  C     0.65127   0.87310   0.76796   0.00000  Uiso   1.00
C1271  C     0.63993   0.79755   0.72827   0.00000  Uiso   1.00
C1272  C     0.36040   0.86955   0.77256   0.00000  Uiso   1.00
C1273  C     0.51499   0.87222   0.55224   0.00000  Uiso   1.00
C1274  C     0.47551   0.79967   0.94746   0.00000  Uiso   1.00
C1275  C     0.52235   0.86841   0.95681   0.00000  Uiso   1.00
C1276  C     0.49545   0.79024   0.54441   0.00000  Uiso   1.00
H1277  H     0.52137   0.90510   0.53860   0.00000  Uiso   1.00
H1278  H     0.45631   0.77344   0.96078   0.00000  Uiso   1.00
H1279  H     0.54248   0.89450   0.97696   0.00000  Uiso   1.00
H1280  H     0.48907   0.75796   0.52455   0.00000  Uiso   1.00
C1281  C     0.52015   0.87101   0.59818   0.00000  Uiso   1.00
C1282  C     0.47347   0.80045   0.90141   0.00000  Uiso   1.00
C1283  C     0.51780   0.87238   0.91139   0.00000  Uiso   1.00
C1284  C     0.49619   0.78891   0.59010   0.00000  Uiso   1.00
C1285  C     0.50685   0.83019   0.61767   0.00000  Uiso   1.00
C1286  C     0.49582   0.83651   0.88280   0.00000  Uiso   1.00
C1287  C     0.50323   0.83190   0.52470   0.00000  Uiso   1.00
C1288  C     0.50068   0.83294   0.97573   0.00000  Uiso   1.00
C1289  C     0.62391   0.83650   0.74706   0.00000  Uiso   1.00
C1290  C     0.37632   0.83048   0.75375   0.00000  Uiso   1.00
N1291  N     0.43885   0.70285   0.69193   0.00000  Uiso   1.00
O1292  O     0.43895   0.74441   0.67904   0.00000  Uiso   1.00
O1293  O     0.40609   0.67531   0.67849   0.00000  Uiso   1.00
N1294  N     0.56091   0.96401   0.80816   0.00000  Uiso   1.00
O1295  O     0.56209   0.92148   0.81778   0.00000  Uiso   1.00
O1296  O     0.59292   0.99199   0.82340   0.00000  Uiso   1.00
N1297  N     0.54445   0.72354   0.81951   0.00000  Uiso   1.00
O1298  O     0.57894   0.74799   0.81781   0.00000  Uiso   1.00
O1299  O     0.53292   0.71635   0.85797   0.00000  Uiso   1.00
N1300  N     0.45352   0.94272   0.68172   0.00000  Uiso   1.00
O1301  O     0.41865   0.91983   0.68512   0.00000  Uiso   1.00
O1302  O     0.46268   0.95029   0.64237   0.00000  Uiso   1.00
N1303  N     0.54180   0.91025   0.62421   0.00000  Uiso   1.00
O1304  O     0.57013   0.90364   0.65648   0.00000  Uiso   1.00
O1305  O     0.53995   0.95166   0.61011   0.00000  Uiso   1.00
N1306  N     0.44659   0.76601   0.87422   0.00000  Uiso   1.00
O1307  O     0.42156   0.77820   0.84125   0.00000  Uiso   1.00
O1308  O     0.44231   0.72385   0.88649   0.00000  Uiso   1.00
N1309  N     0.53354   0.91477   0.89572   0.00000  Uiso   1.00
O1310  O     0.50753   0.94287   0.87922   0.00000  Uiso   1.00
O1311  O     0.57097   0.93128   0.91027   0.00000  Uiso   1.00
N1312  N     0.48660   0.74492   0.60721   0.00000  Uiso   1.00
O1313  O     0.51541   0.72506   0.63041   0.00000  Uiso   1.00
O1314  O     0.45365   0.71967   0.58962   0.00000  Uiso   1.00
N1315  N     0.36357   0.75278   0.71581   0.00000  Uiso   1.00
O1316  O     0.37364   0.72157   0.74333   0.00000  Uiso   1.00
O1317  O     0.35389   0.74065   0.67393   0.00000  Uiso   1.00
N1318  N     0.63670   0.91447   0.78474   0.00000  Uiso   1.00
O1319  O     0.62599   0.94518   0.75693   0.00000  Uiso   1.00
O1320  O     0.64677   0.92727   0.82643   0.00000  Uiso   1.00
N1321  N     0.61319   0.76208   0.70242   0.00000  Uiso   1.00
O1322  O     0.59129   0.77220   0.66627   0.00000  Uiso   1.00
O1323  O     0.61138   0.71966   0.71432   0.00000  Uiso   1.00
N1324  N     0.38729   0.90572   0.79741   0.00000  Uiso   1.00
O1325  O     0.41151   0.89627   0.83224   0.00000  Uiso   1.00
O1326  O     0.38802   0.94792   0.78496   0.00000  Uiso   1.00
O1327  O     0.77321   0.87291   0.75000   0.00000  Uiso   1.00
O1328  O     0.89345   0.79375   0.75001   0.00000  Uiso   1.00
O1329  O     0.89345   0.87291   0.75001   0.00000  Uiso   1.00
O1330  O     0.77321   0.79375   0.75000   0.00000  Uiso   1.00
N1331  N     0.83333   0.95069   0.75000   0.00000  Uiso   1.00
N1332  N     0.83333   0.71598   0.75000   0.00000  Uiso   1.00
C1333  C     0.75420   0.83199   0.75105   0.00000  Uiso   1.00
C1334  C     0.91254   0.83476   0.74922   0.00000  Uiso   1.00
O1335  O     0.83333   0.87293   0.68573   0.00000  Uiso   1.00
O1336  O     0.83334   0.79374   0.81427   0.00000  Uiso   1.00
O1337  O     0.83334   0.87293   0.81427   0.00000  Uiso   1.00
O1338  O     0.83333   0.79374   0.68573   0.00000  Uiso   1.00
C1339  C     0.83538   0.83230   0.66537   0.00000  Uiso   1.00
C1340  C     0.83211   0.83438   0.83476   0.00000  Uiso   1.00
Cu1341 Cu    0.83333   0.88022   0.75000   0.00000  Uiso   1.00
Cu1342 Cu    0.83333   0.78645   0.75000   0.00000  Uiso   1.00
C1343  C     0.80630   0.68651   0.71997   0.00000  Uiso   1.00
C1344  C     0.86027   0.98025   0.77999   0.00000  Uiso   1.00
C1345  C     0.85788   0.69588   0.78145   0.00000  Uiso   1.00
C1346  C     0.80834   0.97074   0.71883   0.00000  Uiso   1.00
C1347  C     0.68231   0.79396   0.73291   0.00000  Uiso   1.00
C1348  C     0.98460   0.87310   0.76796   0.00000  Uiso   1.00
C1349  C     0.97326   0.79755   0.72827   0.00000  Uiso   1.00
C1350  C     0.69373   0.86955   0.77256   0.00000  Uiso   1.00
C1351  C     0.84832   0.87222   0.55224   0.00000  Uiso   1.00
C1352  C     0.80884   0.79967   0.94746   0.00000  Uiso   1.00
C1353  C     0.85568   0.86841   0.95681   0.00000  Uiso   1.00
C1354  C     0.82878   0.79024   0.54441   0.00000  Uiso   1.00
H1355  H     0.85471   0.90510   0.53860   0.00000  Uiso   1.00
H1356  H     0.78964   0.77344   0.96078   0.00000  Uiso   1.00
H1357  H     0.87581   0.89450   0.97696   0.00000  Uiso   1.00
H1358  H     0.82240   0.75796   0.52455   0.00000  Uiso   1.00
C1359  C     0.85348   0.87101   0.59818   0.00000  Uiso   1.00
C1360  C     0.80681   0.80045   0.90141   0.00000  Uiso   1.00
C1361  C     0.85114   0.87238   0.91139   0.00000  Uiso   1.00
C1362  C     0.82953   0.78891   0.59010   0.00000  Uiso   1.00
C1363  C     0.84018   0.83019   0.61767   0.00000  Uiso   1.00
C1364  C     0.82916   0.83651   0.88280   0.00000  Uiso   1.00
C1365  C     0.83656   0.83190   0.52470   0.00000  Uiso   1.00
C1366  C     0.83401   0.83294   0.97573   0.00000  Uiso   1.00
C1367  C     0.95725   0.83650   0.74706   0.00000  Uiso   1.00
C1368  C     0.70966   0.83048   0.75375   0.00000  Uiso   1.00
N1369  N     0.77218   0.70285   0.69193   0.00000  Uiso   1.00
O1370  O     0.77229   0.74441   0.67904   0.00000  Uiso   1.00
O1371  O     0.73943   0.67531   0.67849   0.00000  Uiso   1.00
N1372  N     0.89425   0.96401   0.80816   0.00000  Uiso   1.00
O1373  O     0.89543   0.92148   0.81778   0.00000  Uiso   1.00
O1374  O     0.92625   0.99199   0.82340   0.00000  Uiso   1.00
N1375  N     0.87779   0.72354   0.81951   0.00000  Uiso   1.00
O1376  O     0.91227   0.74799   0.81781   0.00000  Uiso   1.00
O1377  O     0.86625   0.71635   0.85797   0.00000  Uiso   1.00
N1378  N     0.78685   0.94272   0.68172   0.00000  Uiso   1.00
O1379  O     0.75199   0.91983   0.68512   0.00000  Uiso   1.00
O1380  O     0.79602   0.95029   0.64237   0.00000  Uiso   1.00
N1381  N     0.87513   0.91025   0.62421   0.00000  Uiso   1.00
O1382  O     0.90347   0.90364   0.65648   0.00000  Uiso   1.00
O1383  O     0.87328   0.95166   0.61011   0.00000  Uiso   1.00
N1384  N     0.77992   0.76601   0.87422   0.00000  Uiso   1.00
O1385  O     0.75489   0.77820   0.84125   0.00000  Uiso   1.00
O1386  O     0.77564   0.72385   0.88649   0.00000  Uiso   1.00
N1387  N     0.86688   0.91477   0.89572   0.00000  Uiso   1.00
O1388  O     0.84087   0.94287   0.87922   0.00000  Uiso   1.00
O1389  O     0.90430   0.93128   0.91027   0.00000  Uiso   1.00
N1390  N     0.81993   0.74492   0.60721   0.00000  Uiso   1.00
O1391  O     0.84874   0.72506   0.63041   0.00000  Uiso   1.00
O1392  O     0.78698   0.71967   0.58962   0.00000  Uiso   1.00
N1393  N     0.69690   0.75278   0.71581   0.00000  Uiso   1.00
O1394  O     0.70697   0.72157   0.74333   0.00000  Uiso   1.00
O1395  O     0.68722   0.74065   0.67393   0.00000  Uiso   1.00
N1396  N     0.97004   0.91447   0.78474   0.00000  Uiso   1.00
O1397  O     0.95932   0.94518   0.75693   0.00000  Uiso   1.00
O1398  O     0.98010   0.92727   0.82643   0.00000  Uiso   1.00
N1399  N     0.94652   0.76208   0.70242   0.00000  Uiso   1.00
O1400  O     0.92463   0.77220   0.66627   0.00000  Uiso   1.00
O1401  O     0.94471   0.71966   0.71432   0.00000  Uiso   1.00
N1402  N     0.72063   0.90572   0.79741   0.00000  Uiso   1.00
O1403  O     0.74484   0.89627   0.83224   0.00000  Uiso   1.00
O1404  O     0.72136   0.94792   0.78496   0.00000  Uiso   1.00
loop_
_geom_bond_atom_site_label_1
_geom_bond_atom_site_label_2
_geom_bond_distance
_geom_bond_site_symmetry_2
_ccdc_geom_bond_type
O1     Cu15    1.974   .     S
O1     C7      1.304   .     A
O2     Cu16    1.974   .     S
O2     C8      1.306   .     A
O3     C8      1.315   .     A
O3     Cu15    2.006   .     S
O4     C7      1.316   .     A
O4     Cu16    2.006   .     S
N5     C20     1.363   .     A
N5     C18     1.400   .     A
N5     Cu15    2.046   .     S
N6     C19     1.361   .     A
N6     C17     1.401   .     A
N6     Cu16    2.046   .     S
C7     C42     1.476   .     S
C8     C41     1.478   .     S
O9     C13     1.315   .     A
O9     Cu15    1.963   .     S
O10    C14     1.312   .     A
O10    Cu16    1.963   .     S
O11    C14     1.311   .     A
O11    Cu15    1.985   .     S
O12    Cu16    1.985   .     S
O12    C13     1.310   .     A
C13    C37     1.484   .     S
C14    C38     1.481   .     S
Cu15   Cu16    2.723   .     S
C17    N43     1.450   .     S
C17    C488    1.431   1_545 S
C18    N46     1.447   .     S
C18    C253    1.429   .     S
C19    N49     1.434   .     S
C19    C486    1.429   1_545 S
C20    N52     1.436   .     S
C20    C251    1.431   .     S
C21    N67     1.421   .     S
C21    C42     1.407   .     A
C21    C179    1.397   1_455 S
C22    C41     1.409   .     A
C22    N70     1.422   .     S
C22    C102    1.399   .     S
C23    N73     1.436   .     S
C23    C41     1.409   .     A
C23    C99     1.397   .     S
C24    C42     1.411   .     A
C24    N76     1.438   .     S
C24    C178    1.399   1_455 S
C25    H29     1.078   .     S
C25    C39     1.405   .     A
C25    C33     1.394   .     A
C26    C34     1.401   .     A
C26    H30     1.081   .     S
C26    C40     1.406   .     A
C27    H31     1.079   .     S
C27    C35     1.388   .     A
C27    C40     1.399   .     A
C28    H32     1.082   .     S
C28    C39     1.400   .     A
C28    C36     1.395   .     A
C33    N55     1.441   .     S
C33    C37     1.418   .     A
C34    C38     1.418   .     A
C34    N58     1.438   .     S
C35    C38     1.415   .     A
C35    N61     1.428   .     S
C36    C37     1.423   .     A
C36    N64     1.433   .     S
C39    C742    1.490   1_554 S
C40    C741    1.490   .     S
N43    O44     1.289   .     A
N43    O45     1.301   .     A
N46    O48     1.301   .     A
N46    O47     1.287   .     A
N49    O51     1.301   .     A
N49    O50     1.300   .     A
N52    O54     1.301   .     A
N52    O53     1.300   .     A
N55    O56     1.302   .     A
N55    O57     1.302   .     A
N58    O60     1.301   .     A
N58    O59     1.301   .     A
N61    O63     1.302   .     A
N61    O62     1.301   .     A
N64    O66     1.302   .     A
N64    O65     1.301   .     A
N67    O68     1.301   .     A
N67    O69     1.302   .     A
N70    O71     1.301   .     A
N70    O72     1.302   .     A
N73    O74     1.300   .     A
N73    O75     1.302   .     A
N76    O78     1.301   .     A
N76    O77     1.301   .     A
O79    Cu93    1.974   .     S
O79    C85     1.304   .     A
O80    Cu94    1.974   .     S
O80    C86     1.306   .     A
O81    C86     1.315   .     A
O81    Cu93    2.006   .     S
O82    C85     1.316   .     A
O82    Cu94    2.006   .     S
N83    C98     1.363   .     A
N83    C96     1.400   .     A
N83    Cu93    2.046   .     S
N84    C97     1.361   .     A
N84    C95     1.401   .     A
N84    Cu94    2.046   .     S
C85    C120    1.476   .     S
C86    C119    1.478   .     S
O87    C91     1.315   .     A
O87    Cu93    1.963   .     S
O88    C92     1.312   .     A
O88    Cu94    1.963   .     S
O89    C92     1.311   .     A
O89    Cu93    1.985   .     S
O90    Cu94    1.985   .     S
O90    C91     1.310   .     A
C91    C115    1.484   .     S
C92    C116    1.481   .     S
Cu93   Cu94    2.723   .     S
C95    N121    1.450   .     S
C95    C566    1.431   1_545 S
C96    N124    1.447   .     S
C96    C331    1.429   .     S
C97    N127    1.434   .     S
C97    C564    1.429   1_545 S
C98    N130    1.436   .     S
C98    C329    1.431   .     S
C99    N145    1.421   .     S
C99    C120    1.407   .     A
C100   C119    1.409   .     A
C100   N148    1.422   .     S
C100   C180    1.399   .     S
C101   N151    1.436   .     S
C101   C119    1.409   .     A
C101   C177    1.397   .     S
C102   C120    1.411   .     A
C102   N154    1.438   .     S
C103   H107    1.078   .     S
C103   C117    1.405   .     A
C103   C111    1.394   .     A
C104   C112    1.401   .     A
C104   H108    1.081   .     S
C104   C118    1.406   .     A
C105   H109    1.079   .     S
C105   C113    1.388   .     A
C105   C118    1.399   .     A
C106   H110    1.082   .     S
C106   C117    1.400   .     A
C106   C114    1.395   .     A
C111   N133    1.441   .     S
C111   C115    1.418   .     A
C112   C116    1.418   .     A
C112   N136    1.438   .     S
C113   C116    1.415   .     A
C113   N139    1.428   .     S
C114   C115    1.423   .     A
C114   N142    1.433   .     S
C117   C820    1.490   1_554 S
C118   C819    1.490   .     S
N121   O122    1.289   .     A
N121   O123    1.301   .     A
N124   O126    1.301   .     A
N124   O125    1.287   .     A
N127   O129    1.301   .     A
N127   O128    1.300   .     A
N130   O132    1.301   .     A
N130   O131    1.300   .     A
N133   O134    1.302   .     A
N133   O135    1.302   .     A
N136   O138    1.301   .     A
N136   O137    1.301   .     A
N139   O141    1.302   .     A
N139   O140    1.301   .     A
N142   O144    1.302   .     A
N142   O143    1.301   .     A
N145   O146    1.301   .     A
N145   O147    1.302   .     A
N148   O149    1.301   .     A
N148   O150    1.302   .     A
N151   O152    1.300   .     A
N151   O153    1.302   .     A
N154   O156    1.301   .     A
N154   O155    1.301   .     A
O157   Cu171   1.974   .     S
O157   C163    1.304   .     A
O158   Cu172   1.974   .     S
O158   C164    1.306   .     A
O159   C164    1.315   .     A
O159   Cu171   2.006   .     S
O160   C163    1.316   .     A
O160   Cu172   2.006   .     S
N161   C176    1.363   .     A
N161   C174    1.400   .     A
N161   Cu171   2.046   .     S
N162   C175    1.361   .     A
N162   C173    1.401   .     A
N162   Cu172   2.046   .     S
C163   C198    1.476   .     S
C164   C197    1.478   .     S
O165   C169    1.315   .     A
O165   Cu171   1.963   .     S
O166   C170    1.312   .     A
O166   Cu172   1.963   .     S
O167   C170    1.311   .     A
O167   Cu171   1.985   .     S
O168   Cu172   1.985   .     S
O168   C169    1.310   .     A
C169   C193    1.484   .     S
C170   C194    1.481   .     S
Cu171  Cu172   2.723   .     S
C173   N199    1.450   .     S
C173   C644    1.431   1_545 S
C174   N202    1.447   .     S
C174   C409    1.429   .     S
C175   N205    1.434   .     S
C175   C642    1.429   1_545 S
C176   N208    1.436   .     S
C176   C407    1.431   .     S
C177   N223    1.421   .     S
C177   C198    1.407   .     A
C178   C197    1.409   .     A
C178   N226    1.422   .     S
C178   C24     1.399   1_655 S
C179   N229    1.436   .     S
C179   C197    1.409   .     A
C179   C21     1.397   1_655 S
C180   C198    1.411   .     A
C180   N232    1.438   .     S
C181   H185    1.078   .     S
C181   C195    1.405   .     A
C181   C189    1.394   .     A
C182   C190    1.401   .     A
C182   H186    1.081   .     S
C182   C196    1.406   .     A
C183   H187    1.079   .     S
C183   C191    1.388   .     A
C183   C196    1.399   .     A
C184   H188    1.082   .     S
C184   C195    1.400   .     A
C184   C192    1.395   .     A
C189   N211    1.441   .     S
C189   C193    1.418   .     A
C190   C194    1.418   .     A
C190   N214    1.438   .     S
C191   C194    1.415   .     A
C191   N217    1.428   .     S
C192   C193    1.423   .     A
C192   N220    1.433   .     S
C195   C898    1.490   1_554 S
C196   C897    1.490   .     S
N199   O200    1.289   .     A
N199   O201    1.301   .     A
N202   O204    1.301   .     A
N202   O203    1.287   .     A
N205   O207    1.301   .     A
N205   O206    1.300   .     A
N208   O210    1.301   .     A
N208   O209    1.300   .     A
N211   O212    1.302   .     A
N211   O213    1.302   .     A
N214   O216    1.301   .     A
N214   O215    1.301   .     A
N217   O219    1.302   .     A
N217   O218    1.301   .     A
N220   O222    1.302   .     A
N220   O221    1.301   .     A
N223   O224    1.301   .     A
N223   O225    1.302   .     A
N226   O227    1.301   .     A
N226   O228    1.302   .     A
N229   O230    1.300   .     A
N229   O231    1.302   .     A
N232   O234    1.301   .     A
N232   O233    1.301   .     A
O235   Cu249   1.974   .     S
O235   C241    1.304   .     A
O236   Cu250   1.974   .     S
O236   C242    1.306   .     A
O237   C242    1.315   .     A
O237   Cu249   2.006   .     S
O238   C241    1.316   .     A
O238   Cu250   2.006   .     S
N239   C254    1.363   .     A
N239   C252    1.400   .     A
N239   Cu249   2.046   .     S
N240   C253    1.361   .     A
N240   C251    1.401   .     A
N240   Cu250   2.046   .     S
C241   C276    1.476   .     S
C242   C275    1.478   .     S
O243   C247    1.315   .     A
O243   Cu249   1.963   .     S
O244   C248    1.312   .     A
O244   Cu250   1.963   .     S
O245   C248    1.311   .     A
O245   Cu249   1.985   .     S
O246   Cu250   1.985   .     S
O246   C247    1.310   .     A
C247   C271    1.484   .     S
C248   C272    1.481   .     S
Cu249  Cu250   2.723   .     S
C251   N277    1.450   .     S
C252   N280    1.447   .     S
C252   C487    1.429   .     S
C253   N283    1.434   .     S
C254   N286    1.436   .     S
C254   C485    1.431   .     S
C255   N301    1.421   .     S
C255   C276    1.407   .     A
C255   C413    1.397   1_455 S
C256   C275    1.409   .     A
C256   N304    1.422   .     S
C256   C336    1.399   .     S
C257   N307    1.436   .     S
C257   C275    1.409   .     A
C257   C333    1.397   .     S
C258   C276    1.411   .     A
C258   N310    1.438   .     S
C258   C412    1.399   1_455 S
C259   H263    1.078   .     S
C259   C273    1.405   .     A
C259   C267    1.394   .     A
C260   C268    1.401   .     A
C260   H264    1.081   .     S
C260   C274    1.406   .     A
C261   H265    1.079   .     S
C261   C269    1.388   .     A
C261   C274    1.399   .     A
C262   H266    1.082   .     S
C262   C273    1.400   .     A
C262   C270    1.395   .     A
C267   N289    1.441   .     S
C267   C271    1.418   .     A
C268   C272    1.418   .     A
C268   N292    1.438   .     S
C269   C272    1.415   .     A
C269   N295    1.428   .     S
C270   C271    1.423   .     A
C270   N298    1.433   .     S
C273   C976    1.490   1_554 S
C274   C975    1.490   .     S
N277   O278    1.289   .     A
N277   O279    1.301   .     A
N280   O282    1.301   .     A
N280   O281    1.287   .     A
N283   O285    1.301   .     A
N283   O284    1.300   .     A
N286   O288    1.301   .     A
N286   O287    1.300   .     A
N289   O290    1.302   .     A
N289   O291    1.302   .     A
N292   O294    1.301   .     A
N292   O293    1.301   .     A
N295   O297    1.302   .     A
N295   O296    1.301   .     A
N298   O300    1.302   .     A
N298   O299    1.301   .     A
N301   O302    1.301   .     A
N301   O303    1.302   .     A
N304   O305    1.301   .     A
N304   O306    1.302   .     A
N307   O308    1.300   .     A
N307   O309    1.302   .     A
N310   O312    1.301   .     A
N310   O311    1.301   .     A
O313   Cu327   1.974   .     S
O313   C319    1.304   .     A
O314   Cu328   1.974   .     S
O314   C320    1.306   .     A
O315   C320    1.315   .     A
O315   Cu327   2.006   .     S
O316   C319    1.316   .     A
O316   Cu328   2.006   .     S
N317   C332    1.363   .     A
N317   C330    1.400   .     A
N317   Cu327   2.046   .     S
N318   C331    1.361   .     A
N318   C329    1.401   .     A
N318   Cu328   2.046   .     S
C319   C354    1.476   .     S
C320   C353    1.478   .     S
O321   C325    1.315   .     A
O321   Cu327   1.963   .     S
O322   C326    1.312   .     A
O322   Cu328   1.963   .     S
O323   C326    1.311   .     A
O323   Cu327   1.985   .     S
O324   Cu328   1.985   .     S
O324   C325    1.310   .     A
C325   C349    1.484   .     S
C326   C350    1.481   .     S
Cu327  Cu328   2.723   .     S
C329   N355    1.450   .     S
C330   N358    1.447   .     S
C330   C565    1.429   .     S
C331   N361    1.434   .     S
C332   N364    1.436   .     S
C332   C563    1.431   .     S
C333   N379    1.421   .     S
C333   C354    1.407   .     A
C334   C353    1.409   .     A
C334   N382    1.422   .     S
C334   C414    1.399   .     S
C335   N385    1.436   .     S
C335   C353    1.409   .     A
C335   C411    1.397   .     S
C336   C354    1.411   .     A
C336   N388    1.438   .     S
C337   H341    1.078   .     S
C337   C351    1.405   .     A
C337   C345    1.394   .     A
C338   C346    1.401   .     A
C338   H342    1.081   .     S
C338   C352    1.406   .     A
C339   H343    1.079   .     S
C339   C347    1.388   .     A
C339   C352    1.399   .     A
C340   H344    1.082   .     S
C340   C351    1.400   .     A
C340   C348    1.395   .     A
C345   N367    1.441   .     S
C345   C349    1.418   .     A
C346   C350    1.418   .     A
C346   N370    1.438   .     S
C347   C350    1.415   .     A
C347   N373    1.428   .     S
C348   C349    1.423   .     A
C348   N376    1.433   .     S
C351   C1054   1.490   1_554 S
C352   C1053   1.490   .     S
N355   O356    1.289   .     A
N355   O357    1.301   .     A
N358   O360    1.301   .     A
N358   O359    1.287   .     A
N361   O363    1.301   .     A
N361   O362    1.300   .     A
N364   O366    1.301   .     A
N364   O365    1.300   .     A
N367   O368    1.302   .     A
N367   O369    1.302   .     A
N370   O372    1.301   .     A
N370   O371    1.301   .     A
N373   O375    1.302   .     A
N373   O374    1.301   .     A
N376   O378    1.302   .     A
N376   O377    1.301   .     A
N379   O380    1.301   .     A
N379   O381    1.302   .     A
N382   O383    1.301   .     A
N382   O384    1.302   .     A
N385   O386    1.300   .     A
N385   O387    1.302   .     A
N388   O390    1.301   .     A
N388   O389    1.301   .     A
O391   Cu405   1.974   .     S
O391   C397    1.304   .     A
O392   Cu406   1.974   .     S
O392   C398    1.306   .     A
O393   C398    1.315   .     A
O393   Cu405   2.006   .     S
O394   C397    1.316   .     A
O394   Cu406   2.006   .     S
N395   C410    1.363   .     A
N395   C408    1.400   .     A
N395   Cu405   2.046   .     S
N396   C409    1.361   .     A
N396   C407    1.401   .     A
N396   Cu406   2.046   .     S
C397   C432    1.476   .     S
C398   C431    1.478   .     S
O399   C403    1.315   .     A
O399   Cu405   1.963   .     S
O400   C404    1.312   .     A
O400   Cu406   1.963   .     S
O401   C404    1.311   .     A
O401   Cu405   1.985   .     S
O402   Cu406   1.985   .     S
O402   C403    1.310   .     A
C403   C427    1.484   .     S
C404   C428    1.481   .     S
Cu405  Cu406   2.723   .     S
C407   N433    1.450   .     S
C408   N436    1.447   .     S
C408   C643    1.429   .     S
C409   N439    1.434   .     S
C410   N442    1.436   .     S
C410   C641    1.431   .     S
C411   N457    1.421   .     S
C411   C432    1.407   .     A
C412   C431    1.409   .     A
C412   N460    1.422   .     S
C412   C258    1.399   1_655 S
C413   N463    1.436   .     S
C413   C431    1.409   .     A
C413   C255    1.397   1_655 S
C414   C432    1.411   .     A
C414   N466    1.438   .     S
C415   H419    1.078   .     S
C415   C429    1.405   .     A
C415   C423    1.394   .     A
C416   C424    1.401   .     A
C416   H420    1.081   .     S
C416   C430    1.406   .     A
C417   H421    1.079   .     S
C417   C425    1.388   .     A
C417   C430    1.399   .     A
C418   H422    1.082   .     S
C418   C429    1.400   .     A
C418   C426    1.395   .     A
C423   N445    1.441   .     S
C423   C427    1.418   .     A
C424   C428    1.418   .     A
C424   N448    1.438   .     S
C425   C428    1.415   .     A
C425   N451    1.428   .     S
C426   C427    1.423   .     A
C426   N454    1.433   .     S
C429   C1132   1.490   1_554 S
C430   C1131   1.490   .     S
N433   O434    1.289   .     A
N433   O435    1.301   .     A
N436   O438    1.301   .     A
N436   O437    1.287   .     A
N439   O441    1.301   .     A
N439   O440    1.300   .     A
N442   O444    1.301   .     A
N442   O443    1.300   .     A
N445   O446    1.302   .     A
N445   O447    1.302   .     A
N448   O450    1.301   .     A
N448   O449    1.301   .     A
N451   O453    1.302   .     A
N451   O452    1.301   .     A
N454   O456    1.302   .     A
N454   O455    1.301   .     A
N457   O458    1.301   .     A
N457   O459    1.302   .     A
N460   O461    1.301   .     A
N460   O462    1.302   .     A
N463   O464    1.300   .     A
N463   O465    1.302   .     A
N466   O468    1.301   .     A
N466   O467    1.301   .     A
O469   Cu483   1.974   .     S
O469   C475    1.304   .     A
O470   Cu484   1.974   .     S
O470   C476    1.306   .     A
O471   C476    1.315   .     A
O471   Cu483   2.006   .     S
O472   C475    1.316   .     A
O472   Cu484   2.006   .     S
N473   C488    1.363   .     A
N473   C486    1.400   .     A
N473   Cu483   2.046   .     S
N474   C487    1.361   .     A
N474   C485    1.401   .     A
N474   Cu484   2.046   .     S
C475   C510    1.476   .     S
C476   C509    1.478   .     S
O477   C481    1.315   .     A
O477   Cu483   1.963   .     S
O478   C482    1.312   .     A
O478   Cu484   1.963   .     S
O479   C482    1.311   .     A
O479   Cu483   1.985   .     S
O480   Cu484   1.985   .     S
O480   C481    1.310   .     A
C481   C505    1.484   .     S
C482   C506    1.481   .     S
Cu483  Cu484   2.723   .     S
C485   N511    1.450   .     S
C486   N514    1.447   .     S
C486   C19     1.429   1_565 S
C487   N517    1.434   .     S
C488   N520    1.436   .     S
C488   C17     1.431   1_565 S
C489   N535    1.421   .     S
C489   C510    1.407   .     A
C489   C647    1.397   1_455 S
C490   C509    1.409   .     A
C490   N538    1.422   .     S
C490   C570    1.399   .     S
C491   N541    1.436   .     S
C491   C509    1.409   .     A
C491   C567    1.397   .     S
C492   C510    1.411   .     A
C492   N544    1.438   .     S
C492   C646    1.399   1_455 S
C493   H497    1.078   .     S
C493   C507    1.405   .     A
C493   C501    1.394   .     A
C494   C502    1.401   .     A
C494   H498    1.081   .     S
C494   C508    1.406   .     A
C495   H499    1.079   .     S
C495   C503    1.388   .     A
C495   C508    1.399   .     A
C496   H500    1.082   .     S
C496   C507    1.400   .     A
C496   C504    1.395   .     A
C501   N523    1.441   .     S
C501   C505    1.418   .     A
C502   C506    1.418   .     A
C502   N526    1.438   .     S
C503   C506    1.415   .     A
C503   N529    1.428   .     S
C504   C505    1.423   .     A
C504   N532    1.433   .     S
C507   C1210   1.490   1_554 S
C508   C1209   1.490   .     S
N511   O512    1.289   .     A
N511   O513    1.301   .     A
N514   O516    1.301   .     A
N514   O515    1.287   .     A
N517   O519    1.301   .     A
N517   O518    1.300   .     A
N520   O522    1.301   .     A
N520   O521    1.300   .     A
N523   O524    1.302   .     A
N523   O525    1.302   .     A
N526   O528    1.301   .     A
N526   O527    1.301   .     A
N529   O531    1.302   .     A
N529   O530    1.301   .     A
N532   O534    1.302   .     A
N532   O533    1.301   .     A
N535   O536    1.301   .     A
N535   O537    1.302   .     A
N538   O539    1.301   .     A
N538   O540    1.302   .     A
N541   O542    1.300   .     A
N541   O543    1.302   .     A
N544   O546    1.301   .     A
N544   O545    1.301   .     A
O547   Cu561   1.974   .     S
O547   C553    1.304   .     A
O548   Cu562   1.974   .     S
O548   C554    1.306   .     A
O549   C554    1.315   .     A
O549   Cu561   2.006   .     S
O550   C553    1.316   .     A
O550   Cu562   2.006   .     S
N551   C566    1.363   .     A
N551   C564    1.400   .     A
N551   Cu561   2.046   .     S
N552   C565    1.361   .     A
N552   C563    1.401   .     A
N552   Cu562   2.046   .     S
C553   C588    1.476   .     S
C554   C587    1.478   .     S
O555   C559    1.315   .     A
O555   Cu561   1.963   .     S
O556   C560    1.312   .     A
O556   Cu562   1.963   .     S
O557   C560    1.311   .     A
O557   Cu561   1.985   .     S
O558   Cu562   1.985   .     S
O558   C559    1.310   .     A
C559   C583    1.484   .     S
C560   C584    1.481   .     S
Cu561  Cu562   2.723   .     S
C563   N589    1.450   .     S
C564   N592    1.447   .     S
C564   C97     1.429   1_565 S
C565   N595    1.434   .     S
C566   N598    1.436   .     S
C566   C95     1.431   1_565 S
C567   N613    1.421   .     S
C567   C588    1.407   .     A
C568   C587    1.409   .     A
C568   N616    1.422   .     S
C568   C648    1.399   .     S
C569   N619    1.436   .     S
C569   C587    1.409   .     A
C569   C645    1.397   .     S
C570   C588    1.411   .     A
C570   N622    1.438   .     S
C571   H575    1.078   .     S
C571   C585    1.405   .     A
C571   C579    1.394   .     A
C572   C580    1.401   .     A
C572   H576    1.081   .     S
C572   C586    1.406   .     A
C573   H577    1.079   .     S
C573   C581    1.388   .     A
C573   C586    1.399   .     A
C574   H578    1.082   .     S
C574   C585    1.400   .     A
C574   C582    1.395   .     A
C579   N601    1.441   .     S
C579   C583    1.418   .     A
C580   C584    1.418   .     A
C580   N604    1.438   .     S
C581   C584    1.415   .     A
C581   N607    1.428   .     S
C582   C583    1.423   .     A
C582   N610    1.433   .     S
C585   C1288   1.490   1_554 S
C586   C1287   1.490   .     S
N589   O590    1.289   .     A
N589   O591    1.301   .     A
N592   O594    1.301   .     A
N592   O593    1.287   .     A
N595   O597    1.301   .     A
N595   O596    1.300   .     A
N598   O600    1.301   .     A
N598   O599    1.300   .     A
N601   O602    1.302   .     A
N601   O603    1.302   .     A
N604   O606    1.301   .     A
N604   O605    1.301   .     A
N607   O609    1.302   .     A
N607   O608    1.301   .     A
N610   O612    1.302   .     A
N610   O611    1.301   .     A
N613   O614    1.301   .     A
N613   O615    1.302   .     A
N616   O617    1.301   .     A
N616   O618    1.302   .     A
N619   O620    1.300   .     A
N619   O621    1.302   .     A
N622   O624    1.301   .     A
N622   O623    1.301   .     A
O625   Cu639   1.974   .     S
O625   C631    1.304   .     A
O626   Cu640   1.974   .     S
O626   C632    1.306   .     A
O627   C632    1.315   .     A
O627   Cu639   2.006   .     S
O628   C631    1.316   .     A
O628   Cu640   2.006   .     S
N629   C644    1.363   .     A
N629   C642    1.400   .     A
N629   Cu639   2.046   .     S
N630   C643    1.361   .     A
N630   C641    1.401   .     A
N630   Cu640   2.046   .     S
C631   C666    1.476   .     S
C632   C665    1.478   .     S
O633   C637    1.315   .     A
O633   Cu639   1.963   .     S
O634   C638    1.312   .     A
O634   Cu640   1.963   .     S
O635   C638    1.311   .     A
O635   Cu639   1.985   .     S
O636   Cu640   1.985   .     S
O636   C637    1.310   .     A
C637   C661    1.484   .     S
C638   C662    1.481   .     S
Cu639  Cu640   2.723   .     S
C641   N667    1.450   .     S
C642   N670    1.447   .     S
C642   C175    1.429   1_565 S
C643   N673    1.434   .     S
C644   N676    1.436   .     S
C644   C173    1.431   1_565 S
C645   N691    1.421   .     S
C645   C666    1.407   .     A
C646   C665    1.409   .     A
C646   N694    1.422   .     S
C646   C492    1.399   1_655 S
C647   N697    1.436   .     S
C647   C665    1.409   .     A
C647   C489    1.397   1_655 S
C648   C666    1.411   .     A
C648   N700    1.438   .     S
C649   H653    1.078   .     S
C649   C663    1.405   .     A
C649   C657    1.394   .     A
C650   C658    1.401   .     A
C650   H654    1.081   .     S
C650   C664    1.406   .     A
C651   H655    1.079   .     S
C651   C659    1.388   .     A
C651   C664    1.399   .     A
C652   H656    1.082   .     S
C652   C663    1.400   .     A
C652   C660    1.395   .     A
C657   N679    1.441   .     S
C657   C661    1.418   .     A
C658   C662    1.418   .     A
C658   N682    1.438   .     S
C659   C662    1.415   .     A
C659   N685    1.428   .     S
C660   C661    1.423   .     A
C660   N688    1.433   .     S
C663   C1366   1.490   1_554 S
C664   C1365   1.490   .     S
N667   O668    1.289   .     A
N667   O669    1.301   .     A
N670   O672    1.301   .     A
N670   O671    1.287   .     A
N673   O675    1.301   .     A
N673   O674    1.300   .     A
N676   O678    1.301   .     A
N676   O677    1.300   .     A
N679   O680    1.302   .     A
N679   O681    1.302   .     A
N682   O684    1.301   .     A
N682   O683    1.301   .     A
N685   O687    1.302   .     A
N685   O686    1.301   .     A
N688   O690    1.302   .     A
N688   O689    1.301   .     A
N691   O692    1.301   .     A
N691   O693    1.302   .     A
N694   O695    1.301   .     A
N694   O696    1.302   .     A
N697   O698    1.300   .     A
N697   O699    1.302   .     A
N700   O702    1.301   .     A
N700   O701    1.301   .     A
O703   Cu717   1.974   .     S
O703   C709    1.304   .     A
O704   Cu718   1.974   .     S
O704   C710    1.306   .     A
O705   C710    1.315   .     A
O705   Cu717   2.006   .     S
O706   C709    1.316   .     A
O706   Cu718   2.006   .     S
N707   C722    1.363   .     A
N707   C720    1.400   .     A
N707   Cu717   2.046   .     S
N708   C721    1.361   .     A
N708   C719    1.401   .     A
N708   Cu718   2.046   .     S
C709   C744    1.476   .     S
C710   C743    1.478   .     S
O711   C715    1.315   .     A
O711   Cu717   1.963   .     S
O712   C716    1.312   .     A
O712   Cu718   1.963   .     S
O713   C716    1.311   .     A
O713   Cu717   1.985   .     S
O714   Cu718   1.985   .     S
O714   C715    1.310   .     A
C715   C739    1.484   .     S
C716   C740    1.481   .     S
Cu717  Cu718   2.723   .     S
C719   N745    1.450   .     S
C719   C1190   1.431   1_545 S
C720   N748    1.447   .     S
C720   C955    1.429   .     S
C721   N751    1.434   .     S
C721   C1188   1.429   1_545 S
C722   N754    1.436   .     S
C722   C953    1.431   .     S
C723   N769    1.421   .     S
C723   C744    1.407   .     A
C723   C881    1.397   1_455 S
C724   C743    1.409   .     A
C724   N772    1.422   .     S
C724   C804    1.399   .     S
C725   N775    1.436   .     S
C725   C743    1.409   .     A
C725   C801    1.397   .     S
C726   C744    1.411   .     A
C726   N778    1.438   .     S
C726   C880    1.399   1_455 S
C727   H731    1.078   .     S
C727   C741    1.405   .     A
C727   C735    1.394   .     A
C728   C736    1.401   .     A
C728   H732    1.081   .     S
C728   C742    1.406   .     A
C729   H733    1.079   .     S
C729   C737    1.388   .     A
C729   C742    1.399   .     A
C730   H734    1.082   .     S
C730   C741    1.400   .     A
C730   C738    1.395   .     A
C735   N757    1.441   .     S
C735   C739    1.418   .     A
C736   C740    1.418   .     A
C736   N760    1.438   .     S
C737   C740    1.415   .     A
C737   N763    1.428   .     S
C738   C739    1.423   .     A
C738   N766    1.433   .     S
C742   C39     1.490   1_556 S
N745   O746    1.289   .     A
N745   O747    1.301   .     A
N748   O750    1.301   .     A
N748   O749    1.287   .     A
N751   O753    1.301   .     A
N751   O752    1.300   .     A
N754   O756    1.301   .     A
N754   O755    1.300   .     A
N757   O758    1.302   .     A
N757   O759    1.302   .     A
N760   O762    1.301   .     A
N760   O761    1.301   .     A
N763   O765    1.302   .     A
N763   O764    1.301   .     A
N766   O768    1.302   .     A
N766   O767    1.301   .     A
N769   O770    1.301   .     A
N769   O771    1.302   .     A
N772   O773    1.301   .     A
N772   O774    1.302   .     A
N775   O776    1.300   .     A
N775   O777    1.302   .     A
N778   O780    1.301   .     A
N778   O779    1.301   .     A
O781   Cu795   1.974   .     S
O781   C787    1.304   .     A
O782   Cu796   1.974   .     S
O782   C788    1.306   .     A
O783   C788    1.315   .     A
O783   Cu795   2.006   .     S
O784   C787    1.316   .     A
O784   Cu796   2.006   .     S
N785   C800    1.363   .     A
N785   C798    1.400   .     A
N785   Cu795   2.046   .     S
N786   C799    1.361   .     A
N786   C797    1.401   .     A
N786   Cu796   2.046   .     S
C787   C822    1.476   .     S
C788   C821    1.478   .     S
O789   C793    1.315   .     A
O789   Cu795   1.963   .     S
O790   C794    1.312   .     A
O790   Cu796   1.963   .     S
O791   C794    1.311   .     A
O791   Cu795   1.985   .     S
O792   Cu796   1.985   .     S
O792   C793    1.310   .     A
C793   C817    1.484   .     S
C794   C818    1.481   .     S
Cu795  Cu796   2.723   .     S
C797   N823    1.450   .     S
C797   C1268   1.431   1_545 S
C798   N826    1.447   .     S
C798   C1033   1.429   .     S
C799   N829    1.434   .     S
C799   C1266   1.429   1_545 S
C800   N832    1.436   .     S
C800   C1031   1.431   .     S
C801   N847    1.421   .     S
C801   C822    1.407   .     A
C802   C821    1.409   .     A
C802   N850    1.422   .     S
C802   C882    1.399   .     S
C803   N853    1.436   .     S
C803   C821    1.409   .     A
C803   C879    1.397   .     S
C804   C822    1.411   .     A
C804   N856    1.438   .     S
C805   H809    1.078   .     S
C805   C819    1.405   .     A
C805   C813    1.394   .     A
C806   C814    1.401   .     A
C806   H810    1.081   .     S
C806   C820    1.406   .     A
C807   H811    1.079   .     S
C807   C815    1.388   .     A
C807   C820    1.399   .     A
C808   H812    1.082   .     S
C808   C819    1.400   .     A
C808   C816    1.395   .     A
C813   N835    1.441   .     S
C813   C817    1.418   .     A
C814   C818    1.418   .     A
C814   N838    1.438   .     S
C815   C818    1.415   .     A
C815   N841    1.428   .     S
C816   C817    1.423   .     A
C816   N844    1.433   .     S
C820   C117    1.490   1_556 S
N823   O824    1.289   .     A
N823   O825    1.301   .     A
N826   O828    1.301   .     A
N826   O827    1.287   .     A
N829   O831    1.301   .     A
N829   O830    1.300   .     A
N832   O834    1.301   .     A
N832   O833    1.300   .     A
N835   O836    1.302   .     A
N835   O837    1.302   .     A
N838   O840    1.301   .     A
N838   O839    1.301   .     A
N841   O843    1.302   .     A
N841   O842    1.301   .     A
N844   O846    1.302   .     A
N844   O845    1.301   .     A
N847   O848    1.301   .     A
N847   O849    1.302   .     A
N850   O851    1.301   .     A
N850   O852    1.302   .     A
N853   O854    1.300   .     A
N853   O855    1.302   .     A
N856   O858    1.301   .     A
N856   O857    1.301   .     A
O859   Cu873   1.974   .     S
O859   C865    1.304   .     A
O860   Cu874   1.974   .     S
O860   C866    1.306   .     A
O861   C866    1.315   .     A
O861   Cu873   2.006   .     S
O862   C865    1.316   .     A
O862   Cu874   2.006   .     S
N863   C878    1.363   .     A
N863   C876    1.400   .     A
N863   Cu873   2.046   .     S
N864   C877    1.361   .     A
N864   C875    1.401   .     A
N864   Cu874   2.046   .     S
C865   C900    1.476   .     S
C866   C899    1.478   .     S
O867   C871    1.315   .     A
O867   Cu873   1.963   .     S
O868   C872    1.312   .     A
O868   Cu874   1.963   .     S
O869   C872    1.311   .     A
O869   Cu873   1.985   .     S
O870   Cu874   1.985   .     S
O870   C871    1.310   .     A
C871   C895    1.484   .     S
C872   C896    1.481   .     S
Cu873  Cu874   2.723   .     S
C875   N901    1.450   .     S
C875   C1346   1.431   1_545 S
C876   N904    1.447   .     S
C876   C1111   1.429   .     S
C877   N907    1.434   .     S
C877   C1344   1.429   1_545 S
C878   N910    1.436   .     S
C878   C1109   1.431   .     S
C879   N925    1.421   .     S
C879   C900    1.407   .     A
C880   C899    1.409   .     A
C880   N928    1.422   .     S
C880   C726    1.399   1_655 S
C881   N931    1.436   .     S
C881   C899    1.409   .     A
C881   C723    1.397   1_655 S
C882   C900    1.411   .     A
C882   N934    1.438   .     S
C883   H887    1.078   .     S
C883   C897    1.405   .     A
C883   C891    1.394   .     A
C884   C892    1.401   .     A
C884   H888    1.081   .     S
C884   C898    1.406   .     A
C885   H889    1.079   .     S
C885   C893    1.388   .     A
C885   C898    1.399   .     A
C886   H890    1.082   .     S
C886   C897    1.400   .     A
C886   C894    1.395   .     A
C891   N913    1.441   .     S
C891   C895    1.418   .     A
C892   C896    1.418   .     A
C892   N916    1.438   .     S
C893   C896    1.415   .     A
C893   N919    1.428   .     S
C894   C895    1.423   .     A
C894   N922    1.433   .     S
C898   C195    1.490   1_556 S
N901   O902    1.289   .     A
N901   O903    1.301   .     A
N904   O906    1.301   .     A
N904   O905    1.287   .     A
N907   O909    1.301   .     A
N907   O908    1.300   .     A
N910   O912    1.301   .     A
N910   O911    1.300   .     A
N913   O914    1.302   .     A
N913   O915    1.302   .     A
N916   O918    1.301   .     A
N916   O917    1.301   .     A
N919   O921    1.302   .     A
N919   O920    1.301   .     A
N922   O924    1.302   .     A
N922   O923    1.301   .     A
N925   O926    1.301   .     A
N925   O927    1.302   .     A
N928   O929    1.301   .     A
N928   O930    1.302   .     A
N931   O932    1.300   .     A
N931   O933    1.302   .     A
N934   O936    1.301   .     A
N934   O935    1.301   .     A
O937   Cu951   1.974   .     S
O937   C943    1.304   .     A
O938   Cu952   1.974   .     S
O938   C944    1.306   .     A
O939   C944    1.315   .     A
O939   Cu951   2.006   .     S
O940   C943    1.316   .     A
O940   Cu952   2.006   .     S
N941   C956    1.363   .     A
N941   C954    1.400   .     A
N941   Cu951   2.046   .     S
N942   C955    1.361   .     A
N942   C953    1.401   .     A
N942   Cu952   2.046   .     S
C943   C978    1.476   .     S
C944   C977    1.478   .     S
O945   C949    1.315   .     A
O945   Cu951   1.963   .     S
O946   C950    1.312   .     A
O946   Cu952   1.963   .     S
O947   C950    1.311   .     A
O947   Cu951   1.985   .     S
O948   Cu952   1.985   .     S
O948   C949    1.310   .     A
C949   C973    1.484   .     S
C950   C974    1.481   .     S
Cu951  Cu952   2.723   .     S
C953   N979    1.450   .     S
C954   N982    1.447   .     S
C954   C1189   1.429   .     S
C955   N985    1.434   .     S
C956   N988    1.436   .     S
C956   C1187   1.431   .     S
C957   N1003   1.421   .     S
C957   C978    1.407   .     A
C957   C1115   1.397   1_455 S
C958   C977    1.409   .     A
C958   N1006   1.422   .     S
C958   C1038   1.399   .     S
C959   N1009   1.436   .     S
C959   C977    1.409   .     A
C959   C1035   1.397   .     S
C960   C978    1.411   .     A
C960   N1012   1.438   .     S
C960   C1114   1.399   1_455 S
C961   H965    1.078   .     S
C961   C975    1.405   .     A
C961   C969    1.394   .     A
C962   C970    1.401   .     A
C962   H966    1.081   .     S
C962   C976    1.406   .     A
C963   H967    1.079   .     S
C963   C971    1.388   .     A
C963   C976    1.399   .     A
C964   H968    1.082   .     S
C964   C975    1.400   .     A
C964   C972    1.395   .     A
C969   N991    1.441   .     S
C969   C973    1.418   .     A
C970   C974    1.418   .     A
C970   N994    1.438   .     S
C971   C974    1.415   .     A
C971   N997    1.428   .     S
C972   C973    1.423   .     A
C972   N1000   1.433   .     S
C976   C273    1.490   1_556 S
N979   O980    1.289   .     A
N979   O981    1.301   .     A
N982   O984    1.301   .     A
N982   O983    1.287   .     A
N985   O987    1.301   .     A
N985   O986    1.300   .     A
N988   O990    1.301   .     A
N988   O989    1.300   .     A
N991   O992    1.302   .     A
N991   O993    1.302   .     A
N994   O996    1.301   .     A
N994   O995    1.301   .     A
N997   O999    1.302   .     A
N997   O998    1.301   .     A
N1000  O1002   1.302   .     A
N1000  O1001   1.301   .     A
N1003  O1004   1.301   .     A
N1003  O1005   1.302   .     A
N1006  O1007   1.301   .     A
N1006  O1008   1.302   .     A
N1009  O1010   1.300   .     A
N1009  O1011   1.302   .     A
N1012  O1014   1.301   .     A
N1012  O1013   1.301   .     A
O1015  Cu1029  1.974   .     S
O1015  C1021   1.304   .     A
O1016  Cu1030  1.974   .     S
O1016  C1022   1.306   .     A
O1017  C1022   1.315   .     A
O1017  Cu1029  2.006   .     S
O1018  C1021   1.316   .     A
O1018  Cu1030  2.006   .     S
N1019  C1034   1.363   .     A
N1019  C1032   1.400   .     A
N1019  Cu1029  2.046   .     S
N1020  C1033   1.361   .     A
N1020  C1031   1.401   .     A
N1020  Cu1030  2.046   .     S
C1021  C1056   1.476   .     S
C1022  C1055   1.478   .     S
O1023  C1027   1.315   .     A
O1023  Cu1029  1.963   .     S
O1024  C1028   1.312   .     A
O1024  Cu1030  1.963   .     S
O1025  C1028   1.311   .     A
O1025  Cu1029  1.985   .     S
O1026  Cu1030  1.985   .     S
O1026  C1027   1.310   .     A
C1027  C1051   1.484   .     S
C1028  C1052   1.481   .     S
Cu1029 Cu1030  2.723   .     S
C1031  N1057   1.450   .     S
C1032  N1060   1.447   .     S
C1032  C1267   1.429   .     S
C1033  N1063   1.434   .     S
C1034  N1066   1.436   .     S
C1034  C1265   1.431   .     S
C1035  N1081   1.421   .     S
C1035  C1056   1.407   .     A
C1036  C1055   1.409   .     A
C1036  N1084   1.422   .     S
C1036  C1116   1.399   .     S
C1037  N1087   1.436   .     S
C1037  C1055   1.409   .     A
C1037  C1113   1.397   .     S
C1038  C1056   1.411   .     A
C1038  N1090   1.438   .     S
C1039  H1043   1.078   .     S
C1039  C1053   1.405   .     A
C1039  C1047   1.394   .     A
C1040  C1048   1.401   .     A
C1040  H1044   1.081   .     S
C1040  C1054   1.406   .     A
C1041  H1045   1.079   .     S
C1041  C1049   1.388   .     A
C1041  C1054   1.399   .     A
C1042  H1046   1.082   .     S
C1042  C1053   1.400   .     A
C1042  C1050   1.395   .     A
C1047  N1069   1.441   .     S
C1047  C1051   1.418   .     A
C1048  C1052   1.418   .     A
C1048  N1072   1.438   .     S
C1049  C1052   1.415   .     A
C1049  N1075   1.428   .     S
C1050  C1051   1.423   .     A
C1050  N1078   1.433   .     S
C1054  C351    1.490   1_556 S
N1057  O1058   1.289   .     A
N1057  O1059   1.301   .     A
N1060  O1062   1.301   .     A
N1060  O1061   1.287   .     A
N1063  O1065   1.301   .     A
N1063  O1064   1.300   .     A
N1066  O1068   1.301   .     A
N1066  O1067   1.300   .     A
N1069  O1070   1.302   .     A
N1069  O1071   1.302   .     A
N1072  O1074   1.301   .     A
N1072  O1073   1.301   .     A
N1075  O1077   1.302   .     A
N1075  O1076   1.301   .     A
N1078  O1080   1.302   .     A
N1078  O1079   1.301   .     A
N1081  O1082   1.301   .     A
N1081  O1083   1.302   .     A
N1084  O1085   1.301   .     A
N1084  O1086   1.302   .     A
N1087  O1088   1.300   .     A
N1087  O1089   1.302   .     A
N1090  O1092   1.301   .     A
N1090  O1091   1.301   .     A
O1093  Cu1107  1.974   .     S
O1093  C1099   1.304   .     A
O1094  Cu1108  1.974   .     S
O1094  C1100   1.306   .     A
O1095  C1100   1.315   .     A
O1095  Cu1107  2.006   .     S
O1096  C1099   1.316   .     A
O1096  Cu1108  2.006   .     S
N1097  C1112   1.363   .     A
N1097  C1110   1.400   .     A
N1097  Cu1107  2.046   .     S
N1098  C1111   1.361   .     A
N1098  C1109   1.401   .     A
N1098  Cu1108  2.046   .     S
C1099  C1134   1.476   .     S
C1100  C1133   1.478   .     S
O1101  C1105   1.315   .     A
O1101  Cu1107  1.963   .     S
O1102  C1106   1.312   .     A
O1102  Cu1108  1.963   .     S
O1103  C1106   1.311   .     A
O1103  Cu1107  1.985   .     S
O1104  Cu1108  1.985   .     S
O1104  C1105   1.310   .     A
C1105  C1129   1.484   .     S
C1106  C1130   1.481   .     S
Cu1107 Cu1108  2.723   .     S
C1109  N1135   1.450   .     S
C1110  N1138   1.447   .     S
C1110  C1345   1.429   .     S
C1111  N1141   1.434   .     S
C1112  N1144   1.436   .     S
C1112  C1343   1.431   .     S
C1113  N1159   1.421   .     S
C1113  C1134   1.407   .     A
C1114  C1133   1.409   .     A
C1114  N1162   1.422   .     S
C1114  C960    1.399   1_655 S
C1115  N1165   1.436   .     S
C1115  C1133   1.409   .     A
C1115  C957    1.397   1_655 S
C1116  C1134   1.411   .     A
C1116  N1168   1.438   .     S
C1117  H1121   1.078   .     S
C1117  C1131   1.405   .     A
C1117  C1125   1.394   .     A
C1118  C1126   1.401   .     A
C1118  H1122   1.081   .     S
C1118  C1132   1.406   .     A
C1119  H1123   1.079   .     S
C1119  C1127   1.388   .     A
C1119  C1132   1.399   .     A
C1120  H1124   1.082   .     S
C1120  C1131   1.400   .     A
C1120  C1128   1.395   .     A
C1125  N1147   1.441   .     S
C1125  C1129   1.418   .     A
C1126  C1130   1.418   .     A
C1126  N1150   1.438   .     S
C1127  C1130   1.415   .     A
C1127  N1153   1.428   .     S
C1128  C1129   1.423   .     A
C1128  N1156   1.433   .     S
C1132  C429    1.490   1_556 S
N1135  O1136   1.289   .     A
N1135  O1137   1.301   .     A
N1138  O1140   1.301   .     A
N1138  O1139   1.287   .     A
N1141  O1143   1.301   .     A
N1141  O1142   1.300   .     A
N1144  O1146   1.301   .     A
N1144  O1145   1.300   .     A
N1147  O1148   1.302   .     A
N1147  O1149   1.302   .     A
N1150  O1152   1.301   .     A
N1150  O1151   1.301   .     A
N1153  O1155   1.302   .     A
N1153  O1154   1.301   .     A
N1156  O1158   1.302   .     A
N1156  O1157   1.301   .     A
N1159  O1160   1.301   .     A
N1159  O1161   1.302   .     A
N1162  O1163   1.301   .     A
N1162  O1164   1.302   .     A
N1165  O1166   1.300   .     A
N1165  O1167   1.302   .     A
N1168  O1170   1.301   .     A
N1168  O1169   1.301   .     A
O1171  Cu1185  1.974   .     S
O1171  C1177   1.304   .     A
O1172  Cu1186  1.974   .     S
O1172  C1178   1.306   .     A
O1173  C1178   1.315   .     A
O1173  Cu1185  2.006   .     S
O1174  C1177   1.316   .     A
O1174  Cu1186  2.006   .     S
N1175  C1190   1.363   .     A
N1175  C1188   1.400   .     A
N1175  Cu1185  2.046   .     S
N1176  C1189   1.361   .     A
N1176  C1187   1.401   .     A
N1176  Cu1186  2.046   .     S
C1177  C1212   1.476   .     S
C1178  C1211   1.478   .     S
O1179  C1183   1.315   .     A
O1179  Cu1185  1.963   .     S
O1180  C1184   1.312   .     A
O1180  Cu1186  1.963   .     S
O1181  C1184   1.311   .     A
O1181  Cu1185  1.985   .     S
O1182  Cu1186  1.985   .     S
O1182  C1183   1.310   .     A
C1183  C1207   1.484   .     S
C1184  C1208   1.481   .     S
Cu1185 Cu1186  2.723   .     S
C1187  N1213   1.450   .     S
C1188  N1216   1.447   .     S
C1188  C721    1.429   1_565 S
C1189  N1219   1.434   .     S
C1190  N1222   1.436   .     S
C1190  C719    1.431   1_565 S
C1191  N1237   1.421   .     S
C1191  C1212   1.407   .     A
C1191  C1349   1.397   1_455 S
C1192  C1211   1.409   .     A
C1192  N1240   1.422   .     S
C1192  C1272   1.399   .     S
C1193  N1243   1.436   .     S
C1193  C1211   1.409   .     A
C1193  C1269   1.397   .     S
C1194  C1212   1.411   .     A
C1194  N1246   1.438   .     S
C1194  C1348   1.399   1_455 S
C1195  H1199   1.078   .     S
C1195  C1209   1.405   .     A
C1195  C1203   1.394   .     A
C1196  C1204   1.401   .     A
C1196  H1200   1.081   .     S
C1196  C1210   1.406   .     A
C1197  H1201   1.079   .     S
C1197  C1205   1.388   .     A
C1197  C1210   1.399   .     A
C1198  H1202   1.082   .     S
C1198  C1209   1.400   .     A
C1198  C1206   1.395   .     A
C1203  N1225   1.441   .     S
C1203  C1207   1.418   .     A
C1204  C1208   1.418   .     A
C1204  N1228   1.438   .     S
C1205  C1208   1.415   .     A
C1205  N1231   1.428   .     S
C1206  C1207   1.423   .     A
C1206  N1234   1.433   .     S
C1210  C507    1.490   1_556 S
N1213  O1214   1.289   .     A
N1213  O1215   1.301   .     A
N1216  O1218   1.301   .     A
N1216  O1217   1.287   .     A
N1219  O1221   1.301   .     A
N1219  O1220   1.300   .     A
N1222  O1224   1.301   .     A
N1222  O1223   1.300   .     A
N1225  O1226   1.302   .     A
N1225  O1227   1.302   .     A
N1228  O1230   1.301   .     A
N1228  O1229   1.301   .     A
N1231  O1233   1.302   .     A
N1231  O1232   1.301   .     A
N1234  O1236   1.302   .     A
N1234  O1235   1.301   .     A
N1237  O1238   1.301   .     A
N1237  O1239   1.302   .     A
N1240  O1241   1.301   .     A
N1240  O1242   1.302   .     A
N1243  O1244   1.300   .     A
N1243  O1245   1.302   .     A
N1246  O1248   1.301   .     A
N1246  O1247   1.301   .     A
O1249  Cu1263  1.974   .     S
O1249  C1255   1.304   .     A
O1250  Cu1264  1.974   .     S
O1250  C1256   1.306   .     A
O1251  C1256   1.315   .     A
O1251  Cu1263  2.006   .     S
O1252  C1255   1.316   .     A
O1252  Cu1264  2.006   .     S
N1253  C1268   1.363   .     A
N1253  C1266   1.400   .     A
N1253  Cu1263  2.046   .     S
N1254  C1267   1.361   .     A
N1254  C1265   1.401   .     A
N1254  Cu1264  2.046   .     S
C1255  C1290   1.476   .     S
C1256  C1289   1.478   .     S
O1257  C1261   1.315   .     A
O1257  Cu1263  1.963   .     S
O1258  C1262   1.312   .     A
O1258  Cu1264  1.963   .     S
O1259  C1262   1.311   .     A
O1259  Cu1263  1.985   .     S
O1260  Cu1264  1.985   .     S
O1260  C1261   1.310   .     A
C1261  C1285   1.484   .     S
C1262  C1286   1.481   .     S
Cu1263 Cu1264  2.723   .     S
C1265  N1291   1.450   .     S
C1266  N1294   1.447   .     S
C1266  C799    1.429   1_565 S
C1267  N1297   1.434   .     S
C1268  N1300   1.436   .     S
C1268  C797    1.431   1_565 S
C1269  N1315   1.421   .     S
C1269  C1290   1.407   .     A
C1270  C1289   1.409   .     A
C1270  N1318   1.422   .     S
C1270  C1350   1.399   .     S
C1271  N1321   1.436   .     S
C1271  C1289   1.409   .     A
C1271  C1347   1.397   .     S
C1272  C1290   1.411   .     A
C1272  N1324   1.438   .     S
C1273  H1277   1.078   .     S
C1273  C1287   1.405   .     A
C1273  C1281   1.394   .     A
C1274  C1282   1.401   .     A
C1274  H1278   1.081   .     S
C1274  C1288   1.406   .     A
C1275  H1279   1.079   .     S
C1275  C1283   1.388   .     A
C1275  C1288   1.399   .     A
C1276  H1280   1.082   .     S
C1276  C1287   1.400   .     A
C1276  C1284   1.395   .     A
C1281  N1303   1.441   .     S
C1281  C1285   1.418   .     A
C1282  C1286   1.418   .     A
C1282  N1306   1.438   .     S
C1283  C1286   1.415   .     A
C1283  N1309   1.428   .     S
C1284  C1285   1.423   .     A
C1284  N1312   1.433   .     S
C1288  C585    1.490   1_556 S
N1291  O1292   1.289   .     A
N1291  O1293   1.301   .     A
N1294  O1296   1.301   .     A
N1294  O1295   1.287   .     A
N1297  O1299   1.301   .     A
N1297  O1298   1.300   .     A
N1300  O1302   1.301   .     A
N1300  O1301   1.300   .     A
N1303  O1304   1.302   .     A
N1303  O1305   1.302   .     A
N1306  O1308   1.301   .     A
N1306  O1307   1.301   .     A
N1309  O1311   1.302   .     A
N1309  O1310   1.301   .     A
N1312  O1314   1.302   .     A
N1312  O1313   1.301   .     A
N1315  O1316   1.301   .     A
N1315  O1317   1.302   .     A
N1318  O1319   1.301   .     A
N1318  O1320   1.302   .     A
N1321  O1322   1.300   .     A
N1321  O1323   1.302   .     A
N1324  O1326   1.301   .     A
N1324  O1325   1.301   .     A
O1327  Cu1341  1.974   .     S
O1327  C1333   1.304   .     A
O1328  Cu1342  1.974   .     S
O1328  C1334   1.306   .     A
O1329  C1334   1.315   .     A
O1329  Cu1341  2.006   .     S
O1330  C1333   1.316   .     A
O1330  Cu1342  2.006   .     S
N1331  C1346   1.363   .     A
N1331  C1344   1.400   .     A
N1331  Cu1341  2.046   .     S
N1332  C1345   1.361   .     A
N1332  C1343   1.401   .     A
N1332  Cu1342  2.046   .     S
C1333  C1368   1.476   .     S
C1334  C1367   1.478   .     S
O1335  C1339   1.315   .     A
O1335  Cu1341  1.963   .     S
O1336  C1340   1.312   .     A
O1336  Cu1342  1.963   .     S
O1337  C1340   1.311   .     A
O1337  Cu1341  1.985   .     S
O1338  Cu1342  1.985   .     S
O1338  C1339   1.310   .     A
C1339  C1363   1.484   .     S
C1340  C1364   1.481   .     S
Cu1341 Cu1342  2.723   .     S
C1343  N1369   1.450   .     S
C1344  N1372   1.447   .     S
C1344  C877    1.429   1_565 S
C1345  N1375   1.434   .     S
C1346  N1378   1.436   .     S
C1346  C875    1.431   1_565 S
C1347  N1393   1.421   .     S
C1347  C1368   1.407   .     A
C1348  C1367   1.409   .     A
C1348  N1396   1.422   .     S
C1348  C1194   1.399   1_655 S
C1349  N1399   1.436   .     S
C1349  C1367   1.409   .     A
C1349  C1191   1.397   1_655 S
C1350  C1368   1.411   .     A
C1350  N1402   1.438   .     S
C1351  H1355   1.078   .     S
C1351  C1365   1.405   .     A
C1351  C1359   1.394   .     A
C1352  C1360   1.401   .     A
C1352  H1356   1.081   .     S
C1352  C1366   1.406   .     A
C1353  H1357   1.079   .     S
C1353  C1361   1.388   .     A
C1353  C1366   1.399   .     A
C1354  H1358   1.082   .     S
C1354  C1365   1.400   .     A
C1354  C1362   1.395   .     A
C1359  N1381   1.441   .     S
C1359  C1363   1.418   .     A
C1360  C1364   1.418   .     A
C1360  N1384   1.438   .     S
C1361  C1364   1.415   .     A
C1361  N1387   1.428   .     S
C1362  C1363   1.423   .     A
C1362  N1390   1.433   .     S
C1366  C663    1.490   1_556 S
N1369  O1370   1.289   .     A
N1369  O1371   1.301   .     A
N1372  O1374   1.301   .     A
N1372  O1373   1.287   .     A
N1375  O1377   1.301   .     A
N1375  O1376   1.300   .     A
N1378  O1380   1.301   .     A
N1378  O1379   1.300   .     A
N1381  O1382   1.302   .     A
N1381  O1383   1.302   .     A
N1384  O1386   1.301   .     A
N1384  O1385   1.301   .     A
N1387  O1389   1.302   .     A
N1387  O1388   1.301   .     A
N1390  O1392   1.302   .     A
N1390  O1391   1.301   .     A
N1393  O1394   1.301   .     A
N1393  O1395   1.302   .     A
N1396  O1397   1.301   .     A
N1396  O1398   1.302   .     A
N1399  O1400   1.300   .     A
N1399  O1401   1.302   .     A
N1402  O1404   1.301   .     A
N1402  O1403   1.301   .     A
