data_str_m2_o1_o2_pcu_sym.125
_audit_creation_date              2020-01-03
_audit_creation_method            'Materials Studio'
_symmetry_space_group_name_H-M    'P1'
_symmetry_Int_Tables_number       1
_symmetry_cell_setting            triclinic
loop_
_symmetry_equiv_pos_as_xyz
  x,y,z
_cell_length_a                    32.3158
_cell_length_b                    28.5771
_cell_length_c                    30.2550
_cell_angle_alpha                 89.9637
_cell_angle_beta                  90.3836
_cell_angle_gamma                 89.9301
loop_
_atom_site_label
_atom_site_type_symbol
_atom_site_fract_x
_atom_site_fract_y
_atom_site_fract_z
_atom_site_U_iso_or_equiv
_atom_site_adp_type
_atom_site_occupancy
C1     C     0.08754   0.16670   0.24981   0.00000  Uiso   1.00
C2     C     0.24579   0.16664   0.25019   0.00000  Uiso   1.00
C3     C     0.16675   0.16668   0.16497   0.00000  Uiso   1.00
C4     C     0.16653   0.16665   0.33503   0.00000  Uiso   1.00
C5     C     0.14124   0.02486   0.22209   0.00000  Uiso   1.00
C6     C     0.19209   0.30848   0.27791   0.00000  Uiso   1.00
C7     C     0.19209   0.02474   0.27791   0.00000  Uiso   1.00
C8     C     0.14124   0.30859   0.22209   0.00000  Uiso   1.00
C9     C     0.02126   0.15777   0.20977   0.00000  Uiso   1.00
C10    C     0.31208   0.17548   0.29024   0.00000  Uiso   1.00
C11    C     0.31106   0.15772   0.21022   0.00000  Uiso   1.00
C12    C     0.02228   0.17570   0.28977   0.00000  Uiso   1.00
C13    C     0.17932   0.20655   0.04762   0.00000  Uiso   1.00
C14    C     0.17937   0.12678   0.45253   0.00000  Uiso   1.00
C15    C     0.15338   0.20648   0.45226   0.00000  Uiso   1.00
C16    C     0.15361   0.12681   0.04757   0.00000  Uiso   1.00
C17    C     0.17920   0.20665   0.09356   0.00000  Uiso   1.00
C18    C     0.17917   0.12669   0.40659   0.00000  Uiso   1.00
C19    C     0.15364   0.20657   0.40633   0.00000  Uiso   1.00
C20    C     0.15395   0.12672   0.09351   0.00000  Uiso   1.00
C21    C     0.16665   0.16668   0.11673   0.00000  Uiso   1.00
C22    C     0.16644   0.16663   0.38326   0.00000  Uiso   1.00
C23    C     0.16642   0.16667   0.02427   0.00000  Uiso   1.00
C24    C     0.16637   0.16664   0.47571   0.00000  Uiso   1.00
C25    C     0.29047   0.16656   0.25036   0.00000  Uiso   1.00
C26    C     0.04287   0.16677   0.24964   0.00000  Uiso   1.00
Cu27   Cu    0.16667   0.21355   0.25000   0.00000  Uiso   1.00
Cu28   Cu    0.16667   0.11978   0.25000   0.00000  Uiso   1.00
N29    N     0.16667   0.28402   0.25000   0.00000  Uiso   1.00
N30    N     0.16667   0.04931   0.25000   0.00000  Uiso   1.00
O31    O     0.10655   0.20625   0.25000   0.00000  Uiso   1.00
O32    O     0.22679   0.12709   0.25001   0.00000  Uiso   1.00
O33    O     0.22679   0.20625   0.25001   0.00000  Uiso   1.00
O34    O     0.10655   0.12709   0.25000   0.00000  Uiso   1.00
O35    O     0.16666   0.20626   0.18573   0.00000  Uiso   1.00
O36    O     0.16667   0.12707   0.31427   0.00000  Uiso   1.00
O37    O     0.16667   0.20626   0.31427   0.00000  Uiso   1.00
O38    O     0.16666   0.12707   0.18573   0.00000  Uiso   1.00
H39    H     0.12087   0.04359   0.19973   0.00000  Uiso   1.00
H40    H     0.21248   0.28975   0.30026   0.00000  Uiso   1.00
H41    H     0.21246   0.04338   0.30027   0.00000  Uiso   1.00
H42    H     0.12086   0.28996   0.19974   0.00000  Uiso   1.00
H43    H     0.18998   0.23744   0.03039   0.00000  Uiso   1.00
H44    H     0.19018   0.09591   0.46989   0.00000  Uiso   1.00
H45    H     0.14256   0.23736   0.46941   0.00000  Uiso   1.00
H46    H     0.14287   0.09591   0.03028   0.00000  Uiso   1.00
H47    H     0.18945   0.23773   0.11092   0.00000  Uiso   1.00
H48    H     0.18952   0.09563   0.38935   0.00000  Uiso   1.00
H49    H     0.14331   0.23761   0.38888   0.00000  Uiso   1.00
H50    H     0.14375   0.09565   0.11082   0.00000  Uiso   1.00
C51    C     0.04418   0.14883   0.16686   0.00000  Uiso   1.00
H52    H     0.07827   0.14994   0.16999   0.00000  Uiso   1.00
H53    H     0.03615   0.11359   0.15399   0.00000  Uiso   1.00
H54    H     0.03559   0.17594   0.14212   0.00000  Uiso   1.00
C55    C     0.28916   0.18412   0.33321   0.00000  Uiso   1.00
H56    H     0.25508   0.18261   0.33014   0.00000  Uiso   1.00
H57    H     0.29802   0.15709   0.35790   0.00000  Uiso   1.00
H58    H     0.29691   0.21945   0.34608   0.00000  Uiso   1.00
C59    C     0.28560   0.14896   0.16847   0.00000  Uiso   1.00
H60    H     0.26619   0.11731   0.17291   0.00000  Uiso   1.00
H61    H     0.26512   0.17947   0.16195   0.00000  Uiso   1.00
H62    H     0.30398   0.14335   0.13825   0.00000  Uiso   1.00
C63    C     0.04773   0.18471   0.33147   0.00000  Uiso   1.00
H64    H     0.06712   0.21637   0.32688   0.00000  Uiso   1.00
H65    H     0.02936   0.19050   0.36166   0.00000  Uiso   1.00
H66    H     0.06825   0.15427   0.33814   0.00000  Uiso   1.00
C67    C     0.42088   0.16670   0.24981   0.00000  Uiso   1.00
C68    C     0.57912   0.16664   0.25019   0.00000  Uiso   1.00
C69    C     0.50008   0.16668   0.16497   0.00000  Uiso   1.00
C70    C     0.49986   0.16665   0.33503   0.00000  Uiso   1.00
C71    C     0.47458   0.02486   0.22209   0.00000  Uiso   1.00
C72    C     0.52543   0.30848   0.27791   0.00000  Uiso   1.00
C73    C     0.52542   0.02474   0.27791   0.00000  Uiso   1.00
C74    C     0.47457   0.30859   0.22209   0.00000  Uiso   1.00
C75    C     0.35459   0.15777   0.20977   0.00000  Uiso   1.00
C76    C     0.64542   0.17548   0.29024   0.00000  Uiso   1.00
C77    C     0.64439   0.15772   0.21022   0.00000  Uiso   1.00
C78    C     0.35561   0.17570   0.28977   0.00000  Uiso   1.00
C79    C     0.51265   0.20655   0.04762   0.00000  Uiso   1.00
C80    C     0.51271   0.12678   0.45253   0.00000  Uiso   1.00
C81    C     0.48671   0.20648   0.45226   0.00000  Uiso   1.00
C82    C     0.48694   0.12681   0.04757   0.00000  Uiso   1.00
C83    C     0.51253   0.20665   0.09356   0.00000  Uiso   1.00
C84    C     0.51251   0.12669   0.40659   0.00000  Uiso   1.00
C85    C     0.48697   0.20657   0.40633   0.00000  Uiso   1.00
C86    C     0.48728   0.12672   0.09351   0.00000  Uiso   1.00
C87    C     0.49998   0.16668   0.11673   0.00000  Uiso   1.00
C88    C     0.49978   0.16663   0.38326   0.00000  Uiso   1.00
C89    C     0.49975   0.16667   0.02427   0.00000  Uiso   1.00
C90    C     0.49971   0.16664   0.47571   0.00000  Uiso   1.00
C91    C     0.62380   0.16656   0.25036   0.00000  Uiso   1.00
C92    C     0.37620   0.16677   0.24964   0.00000  Uiso   1.00
Cu93   Cu    0.50000   0.21355   0.25000   0.00000  Uiso   1.00
Cu94   Cu    0.50000   0.11978   0.25000   0.00000  Uiso   1.00
N95    N     0.50000   0.28402   0.25000   0.00000  Uiso   1.00
N96    N     0.50000   0.04931   0.25000   0.00000  Uiso   1.00
O97    O     0.43988   0.20625   0.25000   0.00000  Uiso   1.00
O98    O     0.56012   0.12709   0.25001   0.00000  Uiso   1.00
O99    O     0.56012   0.20625   0.25001   0.00000  Uiso   1.00
O100   O     0.43988   0.12709   0.25000   0.00000  Uiso   1.00
O101   O     0.50000   0.20626   0.18573   0.00000  Uiso   1.00
O102   O     0.50000   0.12707   0.31427   0.00000  Uiso   1.00
O103   O     0.50000   0.20626   0.31427   0.00000  Uiso   1.00
O104   O     0.50000   0.12707   0.18573   0.00000  Uiso   1.00
H105   H     0.45420   0.04359   0.19973   0.00000  Uiso   1.00
H106   H     0.54581   0.28975   0.30026   0.00000  Uiso   1.00
H107   H     0.54580   0.04338   0.30027   0.00000  Uiso   1.00
H108   H     0.45420   0.28996   0.19974   0.00000  Uiso   1.00
H109   H     0.52332   0.23744   0.03039   0.00000  Uiso   1.00
H110   H     0.52352   0.09591   0.46989   0.00000  Uiso   1.00
H111   H     0.47589   0.23736   0.46941   0.00000  Uiso   1.00
H112   H     0.47620   0.09591   0.03028   0.00000  Uiso   1.00
H113   H     0.52278   0.23773   0.11092   0.00000  Uiso   1.00
H114   H     0.52285   0.09563   0.38935   0.00000  Uiso   1.00
H115   H     0.47665   0.23761   0.38888   0.00000  Uiso   1.00
H116   H     0.47708   0.09565   0.11082   0.00000  Uiso   1.00
C117   C     0.37751   0.14883   0.16686   0.00000  Uiso   1.00
H118   H     0.41160   0.14994   0.16999   0.00000  Uiso   1.00
H119   H     0.36948   0.11359   0.15399   0.00000  Uiso   1.00
H120   H     0.36893   0.17594   0.14212   0.00000  Uiso   1.00
C121   C     0.62250   0.18412   0.33321   0.00000  Uiso   1.00
H122   H     0.58841   0.18261   0.33014   0.00000  Uiso   1.00
H123   H     0.63135   0.15709   0.35790   0.00000  Uiso   1.00
H124   H     0.63024   0.21945   0.34608   0.00000  Uiso   1.00
C125   C     0.61894   0.14896   0.16847   0.00000  Uiso   1.00
H126   H     0.59952   0.11731   0.17291   0.00000  Uiso   1.00
H127   H     0.59845   0.17947   0.16195   0.00000  Uiso   1.00
H128   H     0.63731   0.14335   0.13825   0.00000  Uiso   1.00
C129   C     0.38107   0.18471   0.33147   0.00000  Uiso   1.00
H130   H     0.40045   0.21637   0.32688   0.00000  Uiso   1.00
H131   H     0.36269   0.19050   0.36166   0.00000  Uiso   1.00
H132   H     0.40158   0.15427   0.33814   0.00000  Uiso   1.00
C133   C     0.75421   0.16670   0.24981   0.00000  Uiso   1.00
C134   C     0.91246   0.16664   0.25019   0.00000  Uiso   1.00
C135   C     0.83341   0.16668   0.16497   0.00000  Uiso   1.00
C136   C     0.83319   0.16665   0.33503   0.00000  Uiso   1.00
C137   C     0.80791   0.02486   0.22209   0.00000  Uiso   1.00
C138   C     0.85876   0.30848   0.27791   0.00000  Uiso   1.00
C139   C     0.85876   0.02474   0.27791   0.00000  Uiso   1.00
C140   C     0.80791   0.30859   0.22209   0.00000  Uiso   1.00
C141   C     0.68792   0.15777   0.20977   0.00000  Uiso   1.00
C142   C     0.97875   0.17548   0.29024   0.00000  Uiso   1.00
C143   C     0.97772   0.15772   0.21022   0.00000  Uiso   1.00
C144   C     0.68895   0.17570   0.28977   0.00000  Uiso   1.00
C145   C     0.84599   0.20655   0.04762   0.00000  Uiso   1.00
C146   C     0.84604   0.12678   0.45253   0.00000  Uiso   1.00
C147   C     0.82004   0.20648   0.45226   0.00000  Uiso   1.00
C148   C     0.82028   0.12681   0.04757   0.00000  Uiso   1.00
C149   C     0.84586   0.20665   0.09356   0.00000  Uiso   1.00
C150   C     0.84584   0.12669   0.40659   0.00000  Uiso   1.00
C151   C     0.82031   0.20657   0.40633   0.00000  Uiso   1.00
C152   C     0.82062   0.12672   0.09351   0.00000  Uiso   1.00
C153   C     0.83331   0.16668   0.11673   0.00000  Uiso   1.00
C154   C     0.83311   0.16663   0.38326   0.00000  Uiso   1.00
C155   C     0.83309   0.16667   0.02427   0.00000  Uiso   1.00
C156   C     0.83304   0.16664   0.47571   0.00000  Uiso   1.00
C157   C     0.95713   0.16656   0.25036   0.00000  Uiso   1.00
C158   C     0.70954   0.16677   0.24964   0.00000  Uiso   1.00
Cu159  Cu    0.83333   0.21355   0.25000   0.00000  Uiso   1.00
Cu160  Cu    0.83333   0.11978   0.25000   0.00000  Uiso   1.00
N161   N     0.83333   0.28402   0.25000   0.00000  Uiso   1.00
N162   N     0.83333   0.04931   0.25000   0.00000  Uiso   1.00
O163   O     0.77321   0.20625   0.25000   0.00000  Uiso   1.00
O164   O     0.89345   0.12709   0.25001   0.00000  Uiso   1.00
O165   O     0.89345   0.20625   0.25001   0.00000  Uiso   1.00
O166   O     0.77321   0.12709   0.25000   0.00000  Uiso   1.00
O167   O     0.83333   0.20626   0.18573   0.00000  Uiso   1.00
O168   O     0.83334   0.12707   0.31427   0.00000  Uiso   1.00
O169   O     0.83334   0.20626   0.31427   0.00000  Uiso   1.00
O170   O     0.83333   0.12707   0.18573   0.00000  Uiso   1.00
H171   H     0.78753   0.04359   0.19973   0.00000  Uiso   1.00
H172   H     0.87914   0.28975   0.30026   0.00000  Uiso   1.00
H173   H     0.87913   0.04338   0.30027   0.00000  Uiso   1.00
H174   H     0.78753   0.28996   0.19974   0.00000  Uiso   1.00
H175   H     0.85665   0.23744   0.03039   0.00000  Uiso   1.00
H176   H     0.85685   0.09591   0.46989   0.00000  Uiso   1.00
H177   H     0.80922   0.23736   0.46941   0.00000  Uiso   1.00
H178   H     0.80953   0.09591   0.03028   0.00000  Uiso   1.00
H179   H     0.85611   0.23773   0.11092   0.00000  Uiso   1.00
H180   H     0.85619   0.09563   0.38935   0.00000  Uiso   1.00
H181   H     0.80998   0.23761   0.38888   0.00000  Uiso   1.00
H182   H     0.81042   0.09565   0.11082   0.00000  Uiso   1.00
C183   C     0.71084   0.14883   0.16686   0.00000  Uiso   1.00
H184   H     0.74493   0.14994   0.16999   0.00000  Uiso   1.00
H185   H     0.70282   0.11359   0.15399   0.00000  Uiso   1.00
H186   H     0.70226   0.17594   0.14212   0.00000  Uiso   1.00
C187   C     0.95583   0.18412   0.33321   0.00000  Uiso   1.00
H188   H     0.92175   0.18261   0.33014   0.00000  Uiso   1.00
H189   H     0.96469   0.15709   0.35790   0.00000  Uiso   1.00
H190   H     0.96358   0.21945   0.34608   0.00000  Uiso   1.00
C191   C     0.95227   0.14896   0.16847   0.00000  Uiso   1.00
H192   H     0.93286   0.11731   0.17291   0.00000  Uiso   1.00
H193   H     0.93179   0.17947   0.16195   0.00000  Uiso   1.00
H194   H     0.97064   0.14335   0.13825   0.00000  Uiso   1.00
C195   C     0.71440   0.18471   0.33147   0.00000  Uiso   1.00
H196   H     0.73379   0.21637   0.32688   0.00000  Uiso   1.00
H197   H     0.69603   0.19050   0.36166   0.00000  Uiso   1.00
H198   H     0.73491   0.15427   0.33814   0.00000  Uiso   1.00
C199   C     0.08754   0.50003   0.24981   0.00000  Uiso   1.00
C200   C     0.24579   0.49997   0.25019   0.00000  Uiso   1.00
C201   C     0.16675   0.50001   0.16497   0.00000  Uiso   1.00
C202   C     0.16653   0.49999   0.33503   0.00000  Uiso   1.00
C203   C     0.14124   0.35819   0.22209   0.00000  Uiso   1.00
C204   C     0.19209   0.64181   0.27791   0.00000  Uiso   1.00
C205   C     0.19209   0.35808   0.27791   0.00000  Uiso   1.00
C206   C     0.14124   0.64193   0.22209   0.00000  Uiso   1.00
C207   C     0.02126   0.49110   0.20977   0.00000  Uiso   1.00
C208   C     0.31208   0.50881   0.29024   0.00000  Uiso   1.00
C209   C     0.31106   0.49105   0.21022   0.00000  Uiso   1.00
C210   C     0.02228   0.50904   0.28977   0.00000  Uiso   1.00
C211   C     0.17932   0.53988   0.04762   0.00000  Uiso   1.00
C212   C     0.17937   0.46011   0.45253   0.00000  Uiso   1.00
C213   C     0.15338   0.53981   0.45226   0.00000  Uiso   1.00
C214   C     0.15361   0.46014   0.04757   0.00000  Uiso   1.00
C215   C     0.17920   0.53998   0.09356   0.00000  Uiso   1.00
C216   C     0.17917   0.46002   0.40659   0.00000  Uiso   1.00
C217   C     0.15364   0.53990   0.40633   0.00000  Uiso   1.00
C218   C     0.15395   0.46005   0.09351   0.00000  Uiso   1.00
C219   C     0.16665   0.50001   0.11673   0.00000  Uiso   1.00
C220   C     0.16644   0.49996   0.38326   0.00000  Uiso   1.00
C221   C     0.16642   0.50000   0.02427   0.00000  Uiso   1.00
C222   C     0.16637   0.49997   0.47571   0.00000  Uiso   1.00
C223   C     0.29047   0.49989   0.25036   0.00000  Uiso   1.00
C224   C     0.04287   0.50010   0.24964   0.00000  Uiso   1.00
Cu225  Cu    0.16667   0.54689   0.25000   0.00000  Uiso   1.00
Cu226  Cu    0.16667   0.45311   0.25000   0.00000  Uiso   1.00
N227   N     0.16667   0.61736   0.25000   0.00000  Uiso   1.00
N228   N     0.16667   0.38264   0.25000   0.00000  Uiso   1.00
O229   O     0.10655   0.53958   0.25000   0.00000  Uiso   1.00
O230   O     0.22679   0.46042   0.25001   0.00000  Uiso   1.00
O231   O     0.22679   0.53958   0.25001   0.00000  Uiso   1.00
O232   O     0.10655   0.46042   0.25000   0.00000  Uiso   1.00
O233   O     0.16666   0.53959   0.18573   0.00000  Uiso   1.00
O234   O     0.16667   0.46041   0.31427   0.00000  Uiso   1.00
O235   O     0.16667   0.53959   0.31427   0.00000  Uiso   1.00
O236   O     0.16666   0.46041   0.18573   0.00000  Uiso   1.00
H237   H     0.12087   0.37692   0.19973   0.00000  Uiso   1.00
H238   H     0.21248   0.62308   0.30026   0.00000  Uiso   1.00
H239   H     0.21246   0.37671   0.30027   0.00000  Uiso   1.00
H240   H     0.12086   0.62329   0.19974   0.00000  Uiso   1.00
H241   H     0.18998   0.57078   0.03039   0.00000  Uiso   1.00
H242   H     0.19018   0.42924   0.46989   0.00000  Uiso   1.00
H243   H     0.14256   0.57069   0.46941   0.00000  Uiso   1.00
H244   H     0.14287   0.42924   0.03028   0.00000  Uiso   1.00
H245   H     0.18945   0.57106   0.11092   0.00000  Uiso   1.00
H246   H     0.18952   0.42896   0.38935   0.00000  Uiso   1.00
H247   H     0.14331   0.57095   0.38888   0.00000  Uiso   1.00
H248   H     0.14375   0.42899   0.11082   0.00000  Uiso   1.00
C249   C     0.04418   0.48217   0.16686   0.00000  Uiso   1.00
H250   H     0.07827   0.48327   0.16999   0.00000  Uiso   1.00
H251   H     0.03615   0.44692   0.15399   0.00000  Uiso   1.00
H252   H     0.03559   0.50927   0.14212   0.00000  Uiso   1.00
C253   C     0.28916   0.51746   0.33321   0.00000  Uiso   1.00
H254   H     0.25508   0.51594   0.33014   0.00000  Uiso   1.00
H255   H     0.29802   0.49042   0.35790   0.00000  Uiso   1.00
H256   H     0.29691   0.55278   0.34608   0.00000  Uiso   1.00
C257   C     0.28560   0.48230   0.16847   0.00000  Uiso   1.00
H258   H     0.26619   0.45064   0.17291   0.00000  Uiso   1.00
H259   H     0.26512   0.51280   0.16195   0.00000  Uiso   1.00
H260   H     0.30398   0.47668   0.13825   0.00000  Uiso   1.00
C261   C     0.04773   0.51805   0.33147   0.00000  Uiso   1.00
H262   H     0.06712   0.54970   0.32688   0.00000  Uiso   1.00
H263   H     0.02936   0.52383   0.36166   0.00000  Uiso   1.00
H264   H     0.06825   0.48761   0.33814   0.00000  Uiso   1.00
C265   C     0.42088   0.50003   0.24981   0.00000  Uiso   1.00
C266   C     0.57912   0.49997   0.25019   0.00000  Uiso   1.00
C267   C     0.50008   0.50001   0.16497   0.00000  Uiso   1.00
C268   C     0.49986   0.49999   0.33503   0.00000  Uiso   1.00
C269   C     0.47458   0.35819   0.22209   0.00000  Uiso   1.00
C270   C     0.52543   0.64181   0.27791   0.00000  Uiso   1.00
C271   C     0.52542   0.35808   0.27791   0.00000  Uiso   1.00
C272   C     0.47457   0.64193   0.22209   0.00000  Uiso   1.00
C273   C     0.35459   0.49110   0.20977   0.00000  Uiso   1.00
C274   C     0.64542   0.50881   0.29024   0.00000  Uiso   1.00
C275   C     0.64439   0.49105   0.21022   0.00000  Uiso   1.00
C276   C     0.35561   0.50904   0.28977   0.00000  Uiso   1.00
C277   C     0.51265   0.53988   0.04762   0.00000  Uiso   1.00
C278   C     0.51271   0.46011   0.45253   0.00000  Uiso   1.00
C279   C     0.48671   0.53981   0.45226   0.00000  Uiso   1.00
C280   C     0.48694   0.46014   0.04757   0.00000  Uiso   1.00
C281   C     0.51253   0.53998   0.09356   0.00000  Uiso   1.00
C282   C     0.51251   0.46002   0.40659   0.00000  Uiso   1.00
C283   C     0.48697   0.53990   0.40633   0.00000  Uiso   1.00
C284   C     0.48728   0.46005   0.09351   0.00000  Uiso   1.00
C285   C     0.49998   0.50001   0.11673   0.00000  Uiso   1.00
C286   C     0.49978   0.49996   0.38326   0.00000  Uiso   1.00
C287   C     0.49975   0.50000   0.02427   0.00000  Uiso   1.00
C288   C     0.49971   0.49997   0.47571   0.00000  Uiso   1.00
C289   C     0.62380   0.49989   0.25036   0.00000  Uiso   1.00
C290   C     0.37620   0.50010   0.24964   0.00000  Uiso   1.00
Cu291  Cu    0.50000   0.54689   0.25000   0.00000  Uiso   1.00
Cu292  Cu    0.50000   0.45311   0.25000   0.00000  Uiso   1.00
N293   N     0.50000   0.61736   0.25000   0.00000  Uiso   1.00
N294   N     0.50000   0.38264   0.25000   0.00000  Uiso   1.00
O295   O     0.43988   0.53958   0.25000   0.00000  Uiso   1.00
O296   O     0.56012   0.46042   0.25001   0.00000  Uiso   1.00
O297   O     0.56012   0.53958   0.25001   0.00000  Uiso   1.00
O298   O     0.43988   0.46042   0.25000   0.00000  Uiso   1.00
O299   O     0.50000   0.53959   0.18573   0.00000  Uiso   1.00
O300   O     0.50000   0.46041   0.31427   0.00000  Uiso   1.00
O301   O     0.50000   0.53959   0.31427   0.00000  Uiso   1.00
O302   O     0.50000   0.46041   0.18573   0.00000  Uiso   1.00
H303   H     0.45420   0.37692   0.19973   0.00000  Uiso   1.00
H304   H     0.54581   0.62308   0.30026   0.00000  Uiso   1.00
H305   H     0.54580   0.37671   0.30027   0.00000  Uiso   1.00
H306   H     0.45420   0.62329   0.19974   0.00000  Uiso   1.00
H307   H     0.52332   0.57078   0.03039   0.00000  Uiso   1.00
H308   H     0.52352   0.42924   0.46989   0.00000  Uiso   1.00
H309   H     0.47589   0.57069   0.46941   0.00000  Uiso   1.00
H310   H     0.47620   0.42924   0.03028   0.00000  Uiso   1.00
H311   H     0.52278   0.57106   0.11092   0.00000  Uiso   1.00
H312   H     0.52285   0.42896   0.38935   0.00000  Uiso   1.00
H313   H     0.47665   0.57095   0.38888   0.00000  Uiso   1.00
H314   H     0.47708   0.42899   0.11082   0.00000  Uiso   1.00
C315   C     0.37751   0.48217   0.16686   0.00000  Uiso   1.00
H316   H     0.41160   0.48327   0.16999   0.00000  Uiso   1.00
H317   H     0.36948   0.44692   0.15399   0.00000  Uiso   1.00
H318   H     0.36893   0.50927   0.14212   0.00000  Uiso   1.00
C319   C     0.62250   0.51746   0.33321   0.00000  Uiso   1.00
H320   H     0.58841   0.51594   0.33014   0.00000  Uiso   1.00
H321   H     0.63135   0.49042   0.35790   0.00000  Uiso   1.00
H322   H     0.63024   0.55278   0.34608   0.00000  Uiso   1.00
C323   C     0.61894   0.48230   0.16847   0.00000  Uiso   1.00
H324   H     0.59952   0.45064   0.17291   0.00000  Uiso   1.00
H325   H     0.59845   0.51280   0.16195   0.00000  Uiso   1.00
H326   H     0.63731   0.47668   0.13825   0.00000  Uiso   1.00
C327   C     0.38107   0.51805   0.33147   0.00000  Uiso   1.00
H328   H     0.40045   0.54970   0.32688   0.00000  Uiso   1.00
H329   H     0.36269   0.52383   0.36166   0.00000  Uiso   1.00
H330   H     0.40158   0.48761   0.33814   0.00000  Uiso   1.00
C331   C     0.75421   0.50003   0.24981   0.00000  Uiso   1.00
C332   C     0.91246   0.49997   0.25019   0.00000  Uiso   1.00
C333   C     0.83341   0.50001   0.16497   0.00000  Uiso   1.00
C334   C     0.83319   0.49999   0.33503   0.00000  Uiso   1.00
C335   C     0.80791   0.35819   0.22209   0.00000  Uiso   1.00
C336   C     0.85876   0.64181   0.27791   0.00000  Uiso   1.00
C337   C     0.85876   0.35808   0.27791   0.00000  Uiso   1.00
C338   C     0.80791   0.64193   0.22209   0.00000  Uiso   1.00
C339   C     0.68792   0.49110   0.20977   0.00000  Uiso   1.00
C340   C     0.97875   0.50881   0.29024   0.00000  Uiso   1.00
C341   C     0.97772   0.49105   0.21022   0.00000  Uiso   1.00
C342   C     0.68895   0.50904   0.28977   0.00000  Uiso   1.00
C343   C     0.84599   0.53988   0.04762   0.00000  Uiso   1.00
C344   C     0.84604   0.46011   0.45253   0.00000  Uiso   1.00
C345   C     0.82004   0.53981   0.45226   0.00000  Uiso   1.00
C346   C     0.82028   0.46014   0.04757   0.00000  Uiso   1.00
C347   C     0.84586   0.53998   0.09356   0.00000  Uiso   1.00
C348   C     0.84584   0.46002   0.40659   0.00000  Uiso   1.00
C349   C     0.82031   0.53990   0.40633   0.00000  Uiso   1.00
C350   C     0.82062   0.46005   0.09351   0.00000  Uiso   1.00
C351   C     0.83331   0.50001   0.11673   0.00000  Uiso   1.00
C352   C     0.83311   0.49996   0.38326   0.00000  Uiso   1.00
C353   C     0.83309   0.50000   0.02427   0.00000  Uiso   1.00
C354   C     0.83304   0.49997   0.47571   0.00000  Uiso   1.00
C355   C     0.95713   0.49989   0.25036   0.00000  Uiso   1.00
C356   C     0.70954   0.50010   0.24964   0.00000  Uiso   1.00
Cu357  Cu    0.83333   0.54689   0.25000   0.00000  Uiso   1.00
Cu358  Cu    0.83333   0.45311   0.25000   0.00000  Uiso   1.00
N359   N     0.83333   0.61736   0.25000   0.00000  Uiso   1.00
N360   N     0.83333   0.38264   0.25000   0.00000  Uiso   1.00
O361   O     0.77321   0.53958   0.25000   0.00000  Uiso   1.00
O362   O     0.89345   0.46042   0.25001   0.00000  Uiso   1.00
O363   O     0.89345   0.53958   0.25001   0.00000  Uiso   1.00
O364   O     0.77321   0.46042   0.25000   0.00000  Uiso   1.00
O365   O     0.83333   0.53959   0.18573   0.00000  Uiso   1.00
O366   O     0.83334   0.46041   0.31427   0.00000  Uiso   1.00
O367   O     0.83334   0.53959   0.31427   0.00000  Uiso   1.00
O368   O     0.83333   0.46041   0.18573   0.00000  Uiso   1.00
H369   H     0.78753   0.37692   0.19973   0.00000  Uiso   1.00
H370   H     0.87914   0.62308   0.30026   0.00000  Uiso   1.00
H371   H     0.87913   0.37671   0.30027   0.00000  Uiso   1.00
H372   H     0.78753   0.62329   0.19974   0.00000  Uiso   1.00
H373   H     0.85665   0.57078   0.03039   0.00000  Uiso   1.00
H374   H     0.85685   0.42924   0.46989   0.00000  Uiso   1.00
H375   H     0.80922   0.57069   0.46941   0.00000  Uiso   1.00
H376   H     0.80953   0.42924   0.03028   0.00000  Uiso   1.00
H377   H     0.85611   0.57106   0.11092   0.00000  Uiso   1.00
H378   H     0.85619   0.42896   0.38935   0.00000  Uiso   1.00
H379   H     0.80998   0.57095   0.38888   0.00000  Uiso   1.00
H380   H     0.81042   0.42899   0.11082   0.00000  Uiso   1.00
C381   C     0.71084   0.48217   0.16686   0.00000  Uiso   1.00
H382   H     0.74493   0.48327   0.16999   0.00000  Uiso   1.00
H383   H     0.70282   0.44692   0.15399   0.00000  Uiso   1.00
H384   H     0.70226   0.50927   0.14212   0.00000  Uiso   1.00
C385   C     0.95583   0.51746   0.33321   0.00000  Uiso   1.00
H386   H     0.92175   0.51594   0.33014   0.00000  Uiso   1.00
H387   H     0.96469   0.49042   0.35790   0.00000  Uiso   1.00
H388   H     0.96358   0.55278   0.34608   0.00000  Uiso   1.00
C389   C     0.95227   0.48230   0.16847   0.00000  Uiso   1.00
H390   H     0.93286   0.45064   0.17291   0.00000  Uiso   1.00
H391   H     0.93179   0.51280   0.16195   0.00000  Uiso   1.00
H392   H     0.97064   0.47668   0.13825   0.00000  Uiso   1.00
C393   C     0.71440   0.51805   0.33147   0.00000  Uiso   1.00
H394   H     0.73379   0.54970   0.32688   0.00000  Uiso   1.00
H395   H     0.69603   0.52383   0.36166   0.00000  Uiso   1.00
H396   H     0.73491   0.48761   0.33814   0.00000  Uiso   1.00
C397   C     0.08754   0.83336   0.24981   0.00000  Uiso   1.00
C398   C     0.24579   0.83330   0.25019   0.00000  Uiso   1.00
C399   C     0.16675   0.83334   0.16497   0.00000  Uiso   1.00
C400   C     0.16653   0.83332   0.33503   0.00000  Uiso   1.00
C401   C     0.14124   0.69152   0.22209   0.00000  Uiso   1.00
C402   C     0.19209   0.97514   0.27791   0.00000  Uiso   1.00
C403   C     0.19209   0.69141   0.27791   0.00000  Uiso   1.00
C404   C     0.14124   0.97526   0.22209   0.00000  Uiso   1.00
C405   C     0.02126   0.82444   0.20977   0.00000  Uiso   1.00
C406   C     0.31208   0.84215   0.29024   0.00000  Uiso   1.00
C407   C     0.31106   0.82438   0.21022   0.00000  Uiso   1.00
C408   C     0.02228   0.84237   0.28977   0.00000  Uiso   1.00
C409   C     0.17932   0.87322   0.04762   0.00000  Uiso   1.00
C410   C     0.17937   0.79345   0.45253   0.00000  Uiso   1.00
C411   C     0.15338   0.87315   0.45226   0.00000  Uiso   1.00
C412   C     0.15361   0.79347   0.04757   0.00000  Uiso   1.00
C413   C     0.17920   0.87331   0.09356   0.00000  Uiso   1.00
C414   C     0.17917   0.79335   0.40659   0.00000  Uiso   1.00
C415   C     0.15364   0.87323   0.40633   0.00000  Uiso   1.00
C416   C     0.15395   0.79339   0.09351   0.00000  Uiso   1.00
C417   C     0.16665   0.83335   0.11673   0.00000  Uiso   1.00
C418   C     0.16644   0.83330   0.38326   0.00000  Uiso   1.00
C419   C     0.16642   0.83334   0.02427   0.00000  Uiso   1.00
C420   C     0.16637   0.83331   0.47571   0.00000  Uiso   1.00
C421   C     0.29047   0.83323   0.25036   0.00000  Uiso   1.00
C422   C     0.04287   0.83344   0.24964   0.00000  Uiso   1.00
Cu423  Cu    0.16667   0.88022   0.25000   0.00000  Uiso   1.00
Cu424  Cu    0.16667   0.78645   0.25000   0.00000  Uiso   1.00
N425   N     0.16667   0.95069   0.25000   0.00000  Uiso   1.00
N426   N     0.16667   0.71598   0.25000   0.00000  Uiso   1.00
O427   O     0.10655   0.87291   0.25000   0.00000  Uiso   1.00
O428   O     0.22679   0.79375   0.25001   0.00000  Uiso   1.00
O429   O     0.22679   0.87291   0.25001   0.00000  Uiso   1.00
O430   O     0.10655   0.79375   0.25000   0.00000  Uiso   1.00
O431   O     0.16666   0.87293   0.18573   0.00000  Uiso   1.00
O432   O     0.16667   0.79374   0.31427   0.00000  Uiso   1.00
O433   O     0.16667   0.87293   0.31427   0.00000  Uiso   1.00
O434   O     0.16666   0.79374   0.18573   0.00000  Uiso   1.00
H435   H     0.12087   0.71025   0.19973   0.00000  Uiso   1.00
H436   H     0.21248   0.95642   0.30026   0.00000  Uiso   1.00
H437   H     0.21246   0.71004   0.30027   0.00000  Uiso   1.00
H438   H     0.12086   0.95663   0.19974   0.00000  Uiso   1.00
H439   H     0.18998   0.90411   0.03039   0.00000  Uiso   1.00
H440   H     0.19018   0.76258   0.46989   0.00000  Uiso   1.00
H441   H     0.14256   0.90403   0.46941   0.00000  Uiso   1.00
H442   H     0.14287   0.76257   0.03028   0.00000  Uiso   1.00
H443   H     0.18945   0.90439   0.11092   0.00000  Uiso   1.00
H444   H     0.18952   0.76229   0.38935   0.00000  Uiso   1.00
H445   H     0.14331   0.90428   0.38888   0.00000  Uiso   1.00
H446   H     0.14375   0.76232   0.11082   0.00000  Uiso   1.00
C447   C     0.04418   0.81550   0.16686   0.00000  Uiso   1.00
H448   H     0.07827   0.81661   0.16999   0.00000  Uiso   1.00
H449   H     0.03615   0.78025   0.15399   0.00000  Uiso   1.00
H450   H     0.03559   0.84260   0.14212   0.00000  Uiso   1.00
C451   C     0.28916   0.85079   0.33321   0.00000  Uiso   1.00
H452   H     0.25508   0.84928   0.33014   0.00000  Uiso   1.00
H453   H     0.29802   0.82376   0.35790   0.00000  Uiso   1.00
H454   H     0.29691   0.88611   0.34608   0.00000  Uiso   1.00
C455   C     0.28560   0.81563   0.16847   0.00000  Uiso   1.00
H456   H     0.26619   0.78398   0.17291   0.00000  Uiso   1.00
H457   H     0.26512   0.84614   0.16195   0.00000  Uiso   1.00
H458   H     0.30398   0.81001   0.13825   0.00000  Uiso   1.00
C459   C     0.04773   0.85138   0.33147   0.00000  Uiso   1.00
H460   H     0.06712   0.88303   0.32688   0.00000  Uiso   1.00
H461   H     0.02936   0.85717   0.36166   0.00000  Uiso   1.00
H462   H     0.06825   0.82094   0.33814   0.00000  Uiso   1.00
C463   C     0.42088   0.83336   0.24981   0.00000  Uiso   1.00
C464   C     0.57912   0.83330   0.25019   0.00000  Uiso   1.00
C465   C     0.50008   0.83334   0.16497   0.00000  Uiso   1.00
C466   C     0.49986   0.83332   0.33503   0.00000  Uiso   1.00
C467   C     0.47458   0.69152   0.22209   0.00000  Uiso   1.00
C468   C     0.52543   0.97514   0.27791   0.00000  Uiso   1.00
C469   C     0.52542   0.69141   0.27791   0.00000  Uiso   1.00
C470   C     0.47457   0.97526   0.22209   0.00000  Uiso   1.00
C471   C     0.35459   0.82444   0.20977   0.00000  Uiso   1.00
C472   C     0.64542   0.84215   0.29024   0.00000  Uiso   1.00
C473   C     0.64439   0.82438   0.21022   0.00000  Uiso   1.00
C474   C     0.35561   0.84237   0.28977   0.00000  Uiso   1.00
C475   C     0.51265   0.87322   0.04762   0.00000  Uiso   1.00
C476   C     0.51271   0.79345   0.45253   0.00000  Uiso   1.00
C477   C     0.48671   0.87315   0.45226   0.00000  Uiso   1.00
C478   C     0.48694   0.79347   0.04757   0.00000  Uiso   1.00
C479   C     0.51253   0.87331   0.09356   0.00000  Uiso   1.00
C480   C     0.51251   0.79335   0.40659   0.00000  Uiso   1.00
C481   C     0.48697   0.87323   0.40633   0.00000  Uiso   1.00
C482   C     0.48728   0.79339   0.09351   0.00000  Uiso   1.00
C483   C     0.49998   0.83335   0.11673   0.00000  Uiso   1.00
C484   C     0.49978   0.83330   0.38326   0.00000  Uiso   1.00
C485   C     0.49975   0.83334   0.02427   0.00000  Uiso   1.00
C486   C     0.49971   0.83331   0.47571   0.00000  Uiso   1.00
C487   C     0.62380   0.83323   0.25036   0.00000  Uiso   1.00
C488   C     0.37620   0.83344   0.24964   0.00000  Uiso   1.00
Cu489  Cu    0.50000   0.88022   0.25000   0.00000  Uiso   1.00
Cu490  Cu    0.50000   0.78645   0.25000   0.00000  Uiso   1.00
N491   N     0.50000   0.95069   0.25000   0.00000  Uiso   1.00
N492   N     0.50000   0.71598   0.25000   0.00000  Uiso   1.00
O493   O     0.43988   0.87291   0.25000   0.00000  Uiso   1.00
O494   O     0.56012   0.79375   0.25001   0.00000  Uiso   1.00
O495   O     0.56012   0.87291   0.25001   0.00000  Uiso   1.00
O496   O     0.43988   0.79375   0.25000   0.00000  Uiso   1.00
O497   O     0.50000   0.87293   0.18573   0.00000  Uiso   1.00
O498   O     0.50000   0.79374   0.31427   0.00000  Uiso   1.00
O499   O     0.50000   0.87293   0.31427   0.00000  Uiso   1.00
O500   O     0.50000   0.79374   0.18573   0.00000  Uiso   1.00
H501   H     0.45420   0.71025   0.19973   0.00000  Uiso   1.00
H502   H     0.54581   0.95642   0.30026   0.00000  Uiso   1.00
H503   H     0.54580   0.71004   0.30027   0.00000  Uiso   1.00
H504   H     0.45420   0.95663   0.19974   0.00000  Uiso   1.00
H505   H     0.52332   0.90411   0.03039   0.00000  Uiso   1.00
H506   H     0.52352   0.76258   0.46989   0.00000  Uiso   1.00
H507   H     0.47589   0.90403   0.46941   0.00000  Uiso   1.00
H508   H     0.47620   0.76257   0.03028   0.00000  Uiso   1.00
H509   H     0.52278   0.90439   0.11092   0.00000  Uiso   1.00
H510   H     0.52285   0.76229   0.38935   0.00000  Uiso   1.00
H511   H     0.47665   0.90428   0.38888   0.00000  Uiso   1.00
H512   H     0.47708   0.76232   0.11082   0.00000  Uiso   1.00
C513   C     0.37751   0.81550   0.16686   0.00000  Uiso   1.00
H514   H     0.41160   0.81661   0.16999   0.00000  Uiso   1.00
H515   H     0.36948   0.78025   0.15399   0.00000  Uiso   1.00
H516   H     0.36893   0.84260   0.14212   0.00000  Uiso   1.00
C517   C     0.62250   0.85079   0.33321   0.00000  Uiso   1.00
H518   H     0.58841   0.84928   0.33014   0.00000  Uiso   1.00
H519   H     0.63135   0.82376   0.35790   0.00000  Uiso   1.00
H520   H     0.63024   0.88611   0.34608   0.00000  Uiso   1.00
C521   C     0.61894   0.81563   0.16847   0.00000  Uiso   1.00
H522   H     0.59952   0.78398   0.17291   0.00000  Uiso   1.00
H523   H     0.59845   0.84614   0.16195   0.00000  Uiso   1.00
H524   H     0.63731   0.81001   0.13825   0.00000  Uiso   1.00
C525   C     0.38107   0.85138   0.33147   0.00000  Uiso   1.00
H526   H     0.40045   0.88303   0.32688   0.00000  Uiso   1.00
H527   H     0.36269   0.85717   0.36166   0.00000  Uiso   1.00
H528   H     0.40158   0.82094   0.33814   0.00000  Uiso   1.00
C529   C     0.75421   0.83336   0.24981   0.00000  Uiso   1.00
C530   C     0.91246   0.83330   0.25019   0.00000  Uiso   1.00
C531   C     0.83341   0.83334   0.16497   0.00000  Uiso   1.00
C532   C     0.83319   0.83332   0.33503   0.00000  Uiso   1.00
C533   C     0.80791   0.69152   0.22209   0.00000  Uiso   1.00
C534   C     0.85876   0.97514   0.27791   0.00000  Uiso   1.00
C535   C     0.85876   0.69141   0.27791   0.00000  Uiso   1.00
C536   C     0.80791   0.97526   0.22209   0.00000  Uiso   1.00
C537   C     0.68792   0.82444   0.20977   0.00000  Uiso   1.00
C538   C     0.97875   0.84215   0.29024   0.00000  Uiso   1.00
C539   C     0.97772   0.82438   0.21022   0.00000  Uiso   1.00
C540   C     0.68895   0.84237   0.28977   0.00000  Uiso   1.00
C541   C     0.84599   0.87322   0.04762   0.00000  Uiso   1.00
C542   C     0.84604   0.79345   0.45253   0.00000  Uiso   1.00
C543   C     0.82004   0.87315   0.45226   0.00000  Uiso   1.00
C544   C     0.82028   0.79347   0.04757   0.00000  Uiso   1.00
C545   C     0.84586   0.87331   0.09356   0.00000  Uiso   1.00
C546   C     0.84584   0.79335   0.40659   0.00000  Uiso   1.00
C547   C     0.82031   0.87323   0.40633   0.00000  Uiso   1.00
C548   C     0.82062   0.79339   0.09351   0.00000  Uiso   1.00
C549   C     0.83331   0.83335   0.11673   0.00000  Uiso   1.00
C550   C     0.83311   0.83330   0.38326   0.00000  Uiso   1.00
C551   C     0.83309   0.83334   0.02427   0.00000  Uiso   1.00
C552   C     0.83304   0.83331   0.47571   0.00000  Uiso   1.00
C553   C     0.95713   0.83323   0.25036   0.00000  Uiso   1.00
C554   C     0.70954   0.83344   0.24964   0.00000  Uiso   1.00
Cu555  Cu    0.83333   0.88022   0.25000   0.00000  Uiso   1.00
Cu556  Cu    0.83333   0.78645   0.25000   0.00000  Uiso   1.00
N557   N     0.83333   0.95069   0.25000   0.00000  Uiso   1.00
N558   N     0.83333   0.71598   0.25000   0.00000  Uiso   1.00
O559   O     0.77321   0.87291   0.25000   0.00000  Uiso   1.00
O560   O     0.89345   0.79375   0.25001   0.00000  Uiso   1.00
O561   O     0.89345   0.87291   0.25001   0.00000  Uiso   1.00
O562   O     0.77321   0.79375   0.25000   0.00000  Uiso   1.00
O563   O     0.83333   0.87293   0.18573   0.00000  Uiso   1.00
O564   O     0.83334   0.79374   0.31427   0.00000  Uiso   1.00
O565   O     0.83334   0.87293   0.31427   0.00000  Uiso   1.00
O566   O     0.83333   0.79374   0.18573   0.00000  Uiso   1.00
H567   H     0.78753   0.71025   0.19973   0.00000  Uiso   1.00
H568   H     0.87914   0.95642   0.30026   0.00000  Uiso   1.00
H569   H     0.87913   0.71004   0.30027   0.00000  Uiso   1.00
H570   H     0.78753   0.95663   0.19974   0.00000  Uiso   1.00
H571   H     0.85665   0.90411   0.03039   0.00000  Uiso   1.00
H572   H     0.85685   0.76258   0.46989   0.00000  Uiso   1.00
H573   H     0.80922   0.90403   0.46941   0.00000  Uiso   1.00
H574   H     0.80953   0.76257   0.03028   0.00000  Uiso   1.00
H575   H     0.85611   0.90439   0.11092   0.00000  Uiso   1.00
H576   H     0.85619   0.76229   0.38935   0.00000  Uiso   1.00
H577   H     0.80998   0.90428   0.38888   0.00000  Uiso   1.00
H578   H     0.81042   0.76232   0.11082   0.00000  Uiso   1.00
C579   C     0.71084   0.81550   0.16686   0.00000  Uiso   1.00
H580   H     0.74493   0.81661   0.16999   0.00000  Uiso   1.00
H581   H     0.70282   0.78025   0.15399   0.00000  Uiso   1.00
H582   H     0.70226   0.84260   0.14212   0.00000  Uiso   1.00
C583   C     0.95583   0.85079   0.33321   0.00000  Uiso   1.00
H584   H     0.92175   0.84928   0.33014   0.00000  Uiso   1.00
H585   H     0.96469   0.82376   0.35790   0.00000  Uiso   1.00
H586   H     0.96358   0.88611   0.34608   0.00000  Uiso   1.00
C587   C     0.95227   0.81563   0.16847   0.00000  Uiso   1.00
H588   H     0.93286   0.78398   0.17291   0.00000  Uiso   1.00
H589   H     0.93179   0.84614   0.16195   0.00000  Uiso   1.00
H590   H     0.97064   0.81001   0.13825   0.00000  Uiso   1.00
C591   C     0.71440   0.85138   0.33147   0.00000  Uiso   1.00
H592   H     0.73379   0.88303   0.32688   0.00000  Uiso   1.00
H593   H     0.69603   0.85717   0.36166   0.00000  Uiso   1.00
H594   H     0.73491   0.82094   0.33814   0.00000  Uiso   1.00
C595   C     0.08754   0.16670   0.74981   0.00000  Uiso   1.00
C596   C     0.24579   0.16664   0.75019   0.00000  Uiso   1.00
C597   C     0.16675   0.16668   0.66497   0.00000  Uiso   1.00
C598   C     0.16653   0.16665   0.83503   0.00000  Uiso   1.00
C599   C     0.14124   0.02486   0.72209   0.00000  Uiso   1.00
C600   C     0.19209   0.30848   0.77791   0.00000  Uiso   1.00
C601   C     0.19209   0.02474   0.77791   0.00000  Uiso   1.00
C602   C     0.14124   0.30859   0.72209   0.00000  Uiso   1.00
C603   C     0.02126   0.15777   0.70977   0.00000  Uiso   1.00
C604   C     0.31208   0.17548   0.79024   0.00000  Uiso   1.00
C605   C     0.31106   0.15772   0.71022   0.00000  Uiso   1.00
C606   C     0.02228   0.17570   0.78977   0.00000  Uiso   1.00
C607   C     0.17932   0.20655   0.54762   0.00000  Uiso   1.00
C608   C     0.17937   0.12678   0.95253   0.00000  Uiso   1.00
C609   C     0.15338   0.20648   0.95226   0.00000  Uiso   1.00
C610   C     0.15361   0.12681   0.54757   0.00000  Uiso   1.00
C611   C     0.17920   0.20665   0.59356   0.00000  Uiso   1.00
C612   C     0.17917   0.12669   0.90659   0.00000  Uiso   1.00
C613   C     0.15364   0.20657   0.90633   0.00000  Uiso   1.00
C614   C     0.15395   0.12672   0.59351   0.00000  Uiso   1.00
C615   C     0.16665   0.16668   0.61673   0.00000  Uiso   1.00
C616   C     0.16644   0.16663   0.88326   0.00000  Uiso   1.00
C617   C     0.16642   0.16667   0.52427   0.00000  Uiso   1.00
C618   C     0.16637   0.16664   0.97571   0.00000  Uiso   1.00
C619   C     0.29047   0.16656   0.75036   0.00000  Uiso   1.00
C620   C     0.04287   0.16677   0.74964   0.00000  Uiso   1.00
Cu621  Cu    0.16667   0.21355   0.75000   0.00000  Uiso   1.00
Cu622  Cu    0.16667   0.11978   0.75000   0.00000  Uiso   1.00
N623   N     0.16667   0.28402   0.75000   0.00000  Uiso   1.00
N624   N     0.16667   0.04931   0.75000   0.00000  Uiso   1.00
O625   O     0.10655   0.20625   0.75000   0.00000  Uiso   1.00
O626   O     0.22679   0.12709   0.75001   0.00000  Uiso   1.00
O627   O     0.22679   0.20625   0.75001   0.00000  Uiso   1.00
O628   O     0.10655   0.12709   0.75000   0.00000  Uiso   1.00
O629   O     0.16666   0.20626   0.68573   0.00000  Uiso   1.00
O630   O     0.16667   0.12707   0.81427   0.00000  Uiso   1.00
O631   O     0.16667   0.20626   0.81427   0.00000  Uiso   1.00
O632   O     0.16666   0.12707   0.68573   0.00000  Uiso   1.00
H633   H     0.12087   0.04359   0.69973   0.00000  Uiso   1.00
H634   H     0.21248   0.28975   0.80026   0.00000  Uiso   1.00
H635   H     0.21246   0.04338   0.80027   0.00000  Uiso   1.00
H636   H     0.12086   0.28996   0.69974   0.00000  Uiso   1.00
H637   H     0.18998   0.23744   0.53039   0.00000  Uiso   1.00
H638   H     0.19018   0.09591   0.96989   0.00000  Uiso   1.00
H639   H     0.14256   0.23736   0.96941   0.00000  Uiso   1.00
H640   H     0.14287   0.09591   0.53028   0.00000  Uiso   1.00
H641   H     0.18945   0.23773   0.61092   0.00000  Uiso   1.00
H642   H     0.18952   0.09563   0.88935   0.00000  Uiso   1.00
H643   H     0.14331   0.23761   0.88888   0.00000  Uiso   1.00
H644   H     0.14375   0.09565   0.61082   0.00000  Uiso   1.00
C645   C     0.04418   0.14883   0.66686   0.00000  Uiso   1.00
H646   H     0.07827   0.14994   0.66999   0.00000  Uiso   1.00
H647   H     0.03615   0.11359   0.65399   0.00000  Uiso   1.00
H648   H     0.03559   0.17594   0.64212   0.00000  Uiso   1.00
C649   C     0.28916   0.18412   0.83321   0.00000  Uiso   1.00
H650   H     0.25508   0.18261   0.83014   0.00000  Uiso   1.00
H651   H     0.29802   0.15709   0.85790   0.00000  Uiso   1.00
H652   H     0.29691   0.21945   0.84608   0.00000  Uiso   1.00
C653   C     0.28560   0.14896   0.66847   0.00000  Uiso   1.00
H654   H     0.26619   0.11731   0.67291   0.00000  Uiso   1.00
H655   H     0.26512   0.17947   0.66195   0.00000  Uiso   1.00
H656   H     0.30398   0.14335   0.63825   0.00000  Uiso   1.00
C657   C     0.04773   0.18471   0.83147   0.00000  Uiso   1.00
H658   H     0.06712   0.21637   0.82688   0.00000  Uiso   1.00
H659   H     0.02936   0.19050   0.86166   0.00000  Uiso   1.00
H660   H     0.06825   0.15427   0.83814   0.00000  Uiso   1.00
C661   C     0.42088   0.16670   0.74981   0.00000  Uiso   1.00
C662   C     0.57912   0.16664   0.75019   0.00000  Uiso   1.00
C663   C     0.50008   0.16668   0.66497   0.00000  Uiso   1.00
C664   C     0.49986   0.16665   0.83503   0.00000  Uiso   1.00
C665   C     0.47458   0.02486   0.72209   0.00000  Uiso   1.00
C666   C     0.52543   0.30848   0.77791   0.00000  Uiso   1.00
C667   C     0.52542   0.02474   0.77791   0.00000  Uiso   1.00
C668   C     0.47457   0.30859   0.72209   0.00000  Uiso   1.00
C669   C     0.35459   0.15777   0.70977   0.00000  Uiso   1.00
C670   C     0.64542   0.17548   0.79024   0.00000  Uiso   1.00
C671   C     0.64439   0.15772   0.71022   0.00000  Uiso   1.00
C672   C     0.35561   0.17570   0.78977   0.00000  Uiso   1.00
C673   C     0.51265   0.20655   0.54762   0.00000  Uiso   1.00
C674   C     0.51271   0.12678   0.95253   0.00000  Uiso   1.00
C675   C     0.48671   0.20648   0.95226   0.00000  Uiso   1.00
C676   C     0.48694   0.12681   0.54757   0.00000  Uiso   1.00
C677   C     0.51253   0.20665   0.59356   0.00000  Uiso   1.00
C678   C     0.51251   0.12669   0.90659   0.00000  Uiso   1.00
C679   C     0.48697   0.20657   0.90633   0.00000  Uiso   1.00
C680   C     0.48728   0.12672   0.59351   0.00000  Uiso   1.00
C681   C     0.49998   0.16668   0.61673   0.00000  Uiso   1.00
C682   C     0.49978   0.16663   0.88326   0.00000  Uiso   1.00
C683   C     0.49975   0.16667   0.52427   0.00000  Uiso   1.00
C684   C     0.49971   0.16664   0.97571   0.00000  Uiso   1.00
C685   C     0.62380   0.16656   0.75036   0.00000  Uiso   1.00
C686   C     0.37620   0.16677   0.74964   0.00000  Uiso   1.00
Cu687  Cu    0.50000   0.21355   0.75000   0.00000  Uiso   1.00
Cu688  Cu    0.50000   0.11978   0.75000   0.00000  Uiso   1.00
N689   N     0.50000   0.28402   0.75000   0.00000  Uiso   1.00
N690   N     0.50000   0.04931   0.75000   0.00000  Uiso   1.00
O691   O     0.43988   0.20625   0.75000   0.00000  Uiso   1.00
O692   O     0.56012   0.12709   0.75001   0.00000  Uiso   1.00
O693   O     0.56012   0.20625   0.75001   0.00000  Uiso   1.00
O694   O     0.43988   0.12709   0.75000   0.00000  Uiso   1.00
O695   O     0.50000   0.20626   0.68573   0.00000  Uiso   1.00
O696   O     0.50000   0.12707   0.81427   0.00000  Uiso   1.00
O697   O     0.50000   0.20626   0.81427   0.00000  Uiso   1.00
O698   O     0.50000   0.12707   0.68573   0.00000  Uiso   1.00
H699   H     0.45420   0.04359   0.69973   0.00000  Uiso   1.00
H700   H     0.54581   0.28975   0.80026   0.00000  Uiso   1.00
H701   H     0.54580   0.04338   0.80027   0.00000  Uiso   1.00
H702   H     0.45420   0.28996   0.69974   0.00000  Uiso   1.00
H703   H     0.52332   0.23744   0.53039   0.00000  Uiso   1.00
H704   H     0.52352   0.09591   0.96989   0.00000  Uiso   1.00
H705   H     0.47589   0.23736   0.96941   0.00000  Uiso   1.00
H706   H     0.47620   0.09591   0.53028   0.00000  Uiso   1.00
H707   H     0.52278   0.23773   0.61092   0.00000  Uiso   1.00
H708   H     0.52285   0.09563   0.88935   0.00000  Uiso   1.00
H709   H     0.47665   0.23761   0.88888   0.00000  Uiso   1.00
H710   H     0.47708   0.09565   0.61082   0.00000  Uiso   1.00
C711   C     0.37751   0.14883   0.66686   0.00000  Uiso   1.00
H712   H     0.41160   0.14994   0.66999   0.00000  Uiso   1.00
H713   H     0.36948   0.11359   0.65399   0.00000  Uiso   1.00
H714   H     0.36893   0.17594   0.64212   0.00000  Uiso   1.00
C715   C     0.62250   0.18412   0.83321   0.00000  Uiso   1.00
H716   H     0.58841   0.18261   0.83014   0.00000  Uiso   1.00
H717   H     0.63135   0.15709   0.85790   0.00000  Uiso   1.00
H718   H     0.63024   0.21945   0.84608   0.00000  Uiso   1.00
C719   C     0.61894   0.14896   0.66847   0.00000  Uiso   1.00
H720   H     0.59952   0.11731   0.67291   0.00000  Uiso   1.00
H721   H     0.59845   0.17947   0.66195   0.00000  Uiso   1.00
H722   H     0.63731   0.14335   0.63825   0.00000  Uiso   1.00
C723   C     0.38107   0.18471   0.83147   0.00000  Uiso   1.00
H724   H     0.40045   0.21637   0.82688   0.00000  Uiso   1.00
H725   H     0.36269   0.19050   0.86166   0.00000  Uiso   1.00
H726   H     0.40158   0.15427   0.83814   0.00000  Uiso   1.00
C727   C     0.75421   0.16670   0.74981   0.00000  Uiso   1.00
C728   C     0.91246   0.16664   0.75019   0.00000  Uiso   1.00
C729   C     0.83341   0.16668   0.66497   0.00000  Uiso   1.00
C730   C     0.83319   0.16665   0.83503   0.00000  Uiso   1.00
C731   C     0.80791   0.02486   0.72209   0.00000  Uiso   1.00
C732   C     0.85876   0.30848   0.77791   0.00000  Uiso   1.00
C733   C     0.85876   0.02474   0.77791   0.00000  Uiso   1.00
C734   C     0.80791   0.30859   0.72209   0.00000  Uiso   1.00
C735   C     0.68792   0.15777   0.70977   0.00000  Uiso   1.00
C736   C     0.97875   0.17548   0.79024   0.00000  Uiso   1.00
C737   C     0.97772   0.15772   0.71022   0.00000  Uiso   1.00
C738   C     0.68895   0.17570   0.78977   0.00000  Uiso   1.00
C739   C     0.84599   0.20655   0.54762   0.00000  Uiso   1.00
C740   C     0.84604   0.12678   0.95253   0.00000  Uiso   1.00
C741   C     0.82004   0.20648   0.95226   0.00000  Uiso   1.00
C742   C     0.82028   0.12681   0.54757   0.00000  Uiso   1.00
C743   C     0.84586   0.20665   0.59356   0.00000  Uiso   1.00
C744   C     0.84584   0.12669   0.90659   0.00000  Uiso   1.00
C745   C     0.82031   0.20657   0.90633   0.00000  Uiso   1.00
C746   C     0.82062   0.12672   0.59351   0.00000  Uiso   1.00
C747   C     0.83331   0.16668   0.61673   0.00000  Uiso   1.00
C748   C     0.83311   0.16663   0.88326   0.00000  Uiso   1.00
C749   C     0.83309   0.16667   0.52427   0.00000  Uiso   1.00
C750   C     0.83304   0.16664   0.97571   0.00000  Uiso   1.00
C751   C     0.95713   0.16656   0.75036   0.00000  Uiso   1.00
C752   C     0.70954   0.16677   0.74964   0.00000  Uiso   1.00
Cu753  Cu    0.83333   0.21355   0.75000   0.00000  Uiso   1.00
Cu754  Cu    0.83333   0.11978   0.75000   0.00000  Uiso   1.00
N755   N     0.83333   0.28402   0.75000   0.00000  Uiso   1.00
N756   N     0.83333   0.04931   0.75000   0.00000  Uiso   1.00
O757   O     0.77321   0.20625   0.75000   0.00000  Uiso   1.00
O758   O     0.89345   0.12709   0.75001   0.00000  Uiso   1.00
O759   O     0.89345   0.20625   0.75001   0.00000  Uiso   1.00
O760   O     0.77321   0.12709   0.75000   0.00000  Uiso   1.00
O761   O     0.83333   0.20626   0.68573   0.00000  Uiso   1.00
O762   O     0.83334   0.12707   0.81427   0.00000  Uiso   1.00
O763   O     0.83334   0.20626   0.81427   0.00000  Uiso   1.00
O764   O     0.83333   0.12707   0.68573   0.00000  Uiso   1.00
H765   H     0.78753   0.04359   0.69973   0.00000  Uiso   1.00
H766   H     0.87914   0.28975   0.80026   0.00000  Uiso   1.00
H767   H     0.87913   0.04338   0.80027   0.00000  Uiso   1.00
H768   H     0.78753   0.28996   0.69974   0.00000  Uiso   1.00
H769   H     0.85665   0.23744   0.53039   0.00000  Uiso   1.00
H770   H     0.85685   0.09591   0.96989   0.00000  Uiso   1.00
H771   H     0.80922   0.23736   0.96941   0.00000  Uiso   1.00
H772   H     0.80953   0.09591   0.53028   0.00000  Uiso   1.00
H773   H     0.85611   0.23773   0.61092   0.00000  Uiso   1.00
H774   H     0.85619   0.09563   0.88935   0.00000  Uiso   1.00
H775   H     0.80998   0.23761   0.88888   0.00000  Uiso   1.00
H776   H     0.81042   0.09565   0.61082   0.00000  Uiso   1.00
C777   C     0.71084   0.14883   0.66686   0.00000  Uiso   1.00
H778   H     0.74493   0.14994   0.66999   0.00000  Uiso   1.00
H779   H     0.70282   0.11359   0.65399   0.00000  Uiso   1.00
H780   H     0.70226   0.17594   0.64212   0.00000  Uiso   1.00
C781   C     0.95583   0.18412   0.83321   0.00000  Uiso   1.00
H782   H     0.92175   0.18261   0.83014   0.00000  Uiso   1.00
H783   H     0.96469   0.15709   0.85790   0.00000  Uiso   1.00
H784   H     0.96358   0.21945   0.84608   0.00000  Uiso   1.00
C785   C     0.95227   0.14896   0.66847   0.00000  Uiso   1.00
H786   H     0.93286   0.11731   0.67291   0.00000  Uiso   1.00
H787   H     0.93179   0.17947   0.66195   0.00000  Uiso   1.00
H788   H     0.97064   0.14335   0.63825   0.00000  Uiso   1.00
C789   C     0.71440   0.18471   0.83147   0.00000  Uiso   1.00
H790   H     0.73379   0.21637   0.82688   0.00000  Uiso   1.00
H791   H     0.69603   0.19050   0.86166   0.00000  Uiso   1.00
H792   H     0.73491   0.15427   0.83814   0.00000  Uiso   1.00
C793   C     0.08754   0.50003   0.74981   0.00000  Uiso   1.00
C794   C     0.24579   0.49997   0.75019   0.00000  Uiso   1.00
C795   C     0.16675   0.50001   0.66497   0.00000  Uiso   1.00
C796   C     0.16653   0.49999   0.83503   0.00000  Uiso   1.00
C797   C     0.14124   0.35819   0.72209   0.00000  Uiso   1.00
C798   C     0.19209   0.64181   0.77791   0.00000  Uiso   1.00
C799   C     0.19209   0.35808   0.77791   0.00000  Uiso   1.00
C800   C     0.14124   0.64193   0.72209   0.00000  Uiso   1.00
C801   C     0.02126   0.49110   0.70977   0.00000  Uiso   1.00
C802   C     0.31208   0.50881   0.79024   0.00000  Uiso   1.00
C803   C     0.31106   0.49105   0.71022   0.00000  Uiso   1.00
C804   C     0.02228   0.50904   0.78977   0.00000  Uiso   1.00
C805   C     0.17932   0.53988   0.54762   0.00000  Uiso   1.00
C806   C     0.17937   0.46011   0.95253   0.00000  Uiso   1.00
C807   C     0.15338   0.53981   0.95226   0.00000  Uiso   1.00
C808   C     0.15361   0.46014   0.54757   0.00000  Uiso   1.00
C809   C     0.17920   0.53998   0.59356   0.00000  Uiso   1.00
C810   C     0.17917   0.46002   0.90659   0.00000  Uiso   1.00
C811   C     0.15364   0.53990   0.90633   0.00000  Uiso   1.00
C812   C     0.15395   0.46005   0.59351   0.00000  Uiso   1.00
C813   C     0.16665   0.50001   0.61673   0.00000  Uiso   1.00
C814   C     0.16644   0.49996   0.88326   0.00000  Uiso   1.00
C815   C     0.16642   0.50000   0.52427   0.00000  Uiso   1.00
C816   C     0.16637   0.49997   0.97571   0.00000  Uiso   1.00
C817   C     0.29047   0.49989   0.75036   0.00000  Uiso   1.00
C818   C     0.04287   0.50010   0.74964   0.00000  Uiso   1.00
Cu819  Cu    0.16667   0.54689   0.75000   0.00000  Uiso   1.00
Cu820  Cu    0.16667   0.45311   0.75000   0.00000  Uiso   1.00
N821   N     0.16667   0.61736   0.75000   0.00000  Uiso   1.00
N822   N     0.16667   0.38264   0.75000   0.00000  Uiso   1.00
O823   O     0.10655   0.53958   0.75000   0.00000  Uiso   1.00
O824   O     0.22679   0.46042   0.75001   0.00000  Uiso   1.00
O825   O     0.22679   0.53958   0.75001   0.00000  Uiso   1.00
O826   O     0.10655   0.46042   0.75000   0.00000  Uiso   1.00
O827   O     0.16666   0.53959   0.68573   0.00000  Uiso   1.00
O828   O     0.16667   0.46041   0.81427   0.00000  Uiso   1.00
O829   O     0.16667   0.53959   0.81427   0.00000  Uiso   1.00
O830   O     0.16666   0.46041   0.68573   0.00000  Uiso   1.00
H831   H     0.12087   0.37692   0.69973   0.00000  Uiso   1.00
H832   H     0.21248   0.62308   0.80026   0.00000  Uiso   1.00
H833   H     0.21246   0.37671   0.80027   0.00000  Uiso   1.00
H834   H     0.12086   0.62329   0.69974   0.00000  Uiso   1.00
H835   H     0.18998   0.57078   0.53039   0.00000  Uiso   1.00
H836   H     0.19018   0.42924   0.96989   0.00000  Uiso   1.00
H837   H     0.14256   0.57069   0.96941   0.00000  Uiso   1.00
H838   H     0.14287   0.42924   0.53028   0.00000  Uiso   1.00
H839   H     0.18945   0.57106   0.61092   0.00000  Uiso   1.00
H840   H     0.18952   0.42896   0.88935   0.00000  Uiso   1.00
H841   H     0.14331   0.57095   0.88888   0.00000  Uiso   1.00
H842   H     0.14375   0.42899   0.61082   0.00000  Uiso   1.00
C843   C     0.04418   0.48217   0.66686   0.00000  Uiso   1.00
H844   H     0.07827   0.48327   0.66999   0.00000  Uiso   1.00
H845   H     0.03615   0.44692   0.65399   0.00000  Uiso   1.00
H846   H     0.03559   0.50927   0.64212   0.00000  Uiso   1.00
C847   C     0.28916   0.51746   0.83321   0.00000  Uiso   1.00
H848   H     0.25508   0.51594   0.83014   0.00000  Uiso   1.00
H849   H     0.29802   0.49042   0.85790   0.00000  Uiso   1.00
H850   H     0.29691   0.55278   0.84608   0.00000  Uiso   1.00
C851   C     0.28560   0.48230   0.66847   0.00000  Uiso   1.00
H852   H     0.26619   0.45064   0.67291   0.00000  Uiso   1.00
H853   H     0.26512   0.51280   0.66195   0.00000  Uiso   1.00
H854   H     0.30398   0.47668   0.63825   0.00000  Uiso   1.00
C855   C     0.04773   0.51805   0.83147   0.00000  Uiso   1.00
H856   H     0.06712   0.54970   0.82688   0.00000  Uiso   1.00
H857   H     0.02936   0.52383   0.86166   0.00000  Uiso   1.00
H858   H     0.06825   0.48761   0.83814   0.00000  Uiso   1.00
C859   C     0.42088   0.50003   0.74981   0.00000  Uiso   1.00
C860   C     0.57912   0.49997   0.75019   0.00000  Uiso   1.00
C861   C     0.50008   0.50001   0.66497   0.00000  Uiso   1.00
C862   C     0.49986   0.49999   0.83503   0.00000  Uiso   1.00
C863   C     0.47458   0.35819   0.72209   0.00000  Uiso   1.00
C864   C     0.52543   0.64181   0.77791   0.00000  Uiso   1.00
C865   C     0.52542   0.35808   0.77791   0.00000  Uiso   1.00
C866   C     0.47457   0.64193   0.72209   0.00000  Uiso   1.00
C867   C     0.35459   0.49110   0.70977   0.00000  Uiso   1.00
C868   C     0.64542   0.50881   0.79024   0.00000  Uiso   1.00
C869   C     0.64439   0.49105   0.71022   0.00000  Uiso   1.00
C870   C     0.35561   0.50904   0.78977   0.00000  Uiso   1.00
C871   C     0.51265   0.53988   0.54762   0.00000  Uiso   1.00
C872   C     0.51271   0.46011   0.95253   0.00000  Uiso   1.00
C873   C     0.48671   0.53981   0.95226   0.00000  Uiso   1.00
C874   C     0.48694   0.46014   0.54757   0.00000  Uiso   1.00
C875   C     0.51253   0.53998   0.59356   0.00000  Uiso   1.00
C876   C     0.51251   0.46002   0.90659   0.00000  Uiso   1.00
C877   C     0.48697   0.53990   0.90633   0.00000  Uiso   1.00
C878   C     0.48728   0.46005   0.59351   0.00000  Uiso   1.00
C879   C     0.49998   0.50001   0.61673   0.00000  Uiso   1.00
C880   C     0.49978   0.49996   0.88326   0.00000  Uiso   1.00
C881   C     0.49975   0.50000   0.52427   0.00000  Uiso   1.00
C882   C     0.49971   0.49997   0.97571   0.00000  Uiso   1.00
C883   C     0.62380   0.49989   0.75036   0.00000  Uiso   1.00
C884   C     0.37620   0.50010   0.74964   0.00000  Uiso   1.00
Cu885  Cu    0.50000   0.54689   0.75000   0.00000  Uiso   1.00
Cu886  Cu    0.50000   0.45311   0.75000   0.00000  Uiso   1.00
N887   N     0.50000   0.61736   0.75000   0.00000  Uiso   1.00
N888   N     0.50000   0.38264   0.75000   0.00000  Uiso   1.00
O889   O     0.43988   0.53958   0.75000   0.00000  Uiso   1.00
O890   O     0.56012   0.46042   0.75001   0.00000  Uiso   1.00
O891   O     0.56012   0.53958   0.75001   0.00000  Uiso   1.00
O892   O     0.43988   0.46042   0.75000   0.00000  Uiso   1.00
O893   O     0.50000   0.53959   0.68573   0.00000  Uiso   1.00
O894   O     0.50000   0.46041   0.81427   0.00000  Uiso   1.00
O895   O     0.50000   0.53959   0.81427   0.00000  Uiso   1.00
O896   O     0.50000   0.46041   0.68573   0.00000  Uiso   1.00
H897   H     0.45420   0.37692   0.69973   0.00000  Uiso   1.00
H898   H     0.54581   0.62308   0.80026   0.00000  Uiso   1.00
H899   H     0.54580   0.37671   0.80027   0.00000  Uiso   1.00
H900   H     0.45420   0.62329   0.69974   0.00000  Uiso   1.00
H901   H     0.52332   0.57078   0.53039   0.00000  Uiso   1.00
H902   H     0.52352   0.42924   0.96989   0.00000  Uiso   1.00
H903   H     0.47589   0.57069   0.96941   0.00000  Uiso   1.00
H904   H     0.47620   0.42924   0.53028   0.00000  Uiso   1.00
H905   H     0.52278   0.57106   0.61092   0.00000  Uiso   1.00
H906   H     0.52285   0.42896   0.88935   0.00000  Uiso   1.00
H907   H     0.47665   0.57095   0.88888   0.00000  Uiso   1.00
H908   H     0.47708   0.42899   0.61082   0.00000  Uiso   1.00
C909   C     0.37751   0.48217   0.66686   0.00000  Uiso   1.00
H910   H     0.41160   0.48327   0.66999   0.00000  Uiso   1.00
H911   H     0.36948   0.44692   0.65399   0.00000  Uiso   1.00
H912   H     0.36893   0.50927   0.64212   0.00000  Uiso   1.00
C913   C     0.62250   0.51746   0.83321   0.00000  Uiso   1.00
H914   H     0.58841   0.51594   0.83014   0.00000  Uiso   1.00
H915   H     0.63135   0.49042   0.85790   0.00000  Uiso   1.00
H916   H     0.63024   0.55278   0.84608   0.00000  Uiso   1.00
C917   C     0.61894   0.48230   0.66847   0.00000  Uiso   1.00
H918   H     0.59952   0.45064   0.67291   0.00000  Uiso   1.00
H919   H     0.59845   0.51280   0.66195   0.00000  Uiso   1.00
H920   H     0.63731   0.47668   0.63825   0.00000  Uiso   1.00
C921   C     0.38107   0.51805   0.83147   0.00000  Uiso   1.00
H922   H     0.40045   0.54970   0.82688   0.00000  Uiso   1.00
H923   H     0.36269   0.52383   0.86166   0.00000  Uiso   1.00
H924   H     0.40158   0.48761   0.83814   0.00000  Uiso   1.00
C925   C     0.75421   0.50003   0.74981   0.00000  Uiso   1.00
C926   C     0.91246   0.49997   0.75019   0.00000  Uiso   1.00
C927   C     0.83341   0.50001   0.66497   0.00000  Uiso   1.00
C928   C     0.83319   0.49999   0.83503   0.00000  Uiso   1.00
C929   C     0.80791   0.35819   0.72209   0.00000  Uiso   1.00
C930   C     0.85876   0.64181   0.77791   0.00000  Uiso   1.00
C931   C     0.85876   0.35808   0.77791   0.00000  Uiso   1.00
C932   C     0.80791   0.64193   0.72209   0.00000  Uiso   1.00
C933   C     0.68792   0.49110   0.70977   0.00000  Uiso   1.00
C934   C     0.97875   0.50881   0.79024   0.00000  Uiso   1.00
C935   C     0.97772   0.49105   0.71022   0.00000  Uiso   1.00
C936   C     0.68895   0.50904   0.78977   0.00000  Uiso   1.00
C937   C     0.84599   0.53988   0.54762   0.00000  Uiso   1.00
C938   C     0.84604   0.46011   0.95253   0.00000  Uiso   1.00
C939   C     0.82004   0.53981   0.95226   0.00000  Uiso   1.00
C940   C     0.82028   0.46014   0.54757   0.00000  Uiso   1.00
C941   C     0.84586   0.53998   0.59356   0.00000  Uiso   1.00
C942   C     0.84584   0.46002   0.90659   0.00000  Uiso   1.00
C943   C     0.82031   0.53990   0.90633   0.00000  Uiso   1.00
C944   C     0.82062   0.46005   0.59351   0.00000  Uiso   1.00
C945   C     0.83331   0.50001   0.61673   0.00000  Uiso   1.00
C946   C     0.83311   0.49996   0.88326   0.00000  Uiso   1.00
C947   C     0.83309   0.50000   0.52427   0.00000  Uiso   1.00
C948   C     0.83304   0.49997   0.97571   0.00000  Uiso   1.00
C949   C     0.95713   0.49989   0.75036   0.00000  Uiso   1.00
C950   C     0.70954   0.50010   0.74964   0.00000  Uiso   1.00
Cu951  Cu    0.83333   0.54689   0.75000   0.00000  Uiso   1.00
Cu952  Cu    0.83333   0.45311   0.75000   0.00000  Uiso   1.00
N953   N     0.83333   0.61736   0.75000   0.00000  Uiso   1.00
N954   N     0.83333   0.38264   0.75000   0.00000  Uiso   1.00
O955   O     0.77321   0.53958   0.75000   0.00000  Uiso   1.00
O956   O     0.89345   0.46042   0.75001   0.00000  Uiso   1.00
O957   O     0.89345   0.53958   0.75001   0.00000  Uiso   1.00
O958   O     0.77321   0.46042   0.75000   0.00000  Uiso   1.00
O959   O     0.83333   0.53959   0.68573   0.00000  Uiso   1.00
O960   O     0.83334   0.46041   0.81427   0.00000  Uiso   1.00
O961   O     0.83334   0.53959   0.81427   0.00000  Uiso   1.00
O962   O     0.83333   0.46041   0.68573   0.00000  Uiso   1.00
H963   H     0.78753   0.37692   0.69973   0.00000  Uiso   1.00
H964   H     0.87914   0.62308   0.80026   0.00000  Uiso   1.00
H965   H     0.87913   0.37671   0.80027   0.00000  Uiso   1.00
H966   H     0.78753   0.62329   0.69974   0.00000  Uiso   1.00
H967   H     0.85665   0.57078   0.53039   0.00000  Uiso   1.00
H968   H     0.85685   0.42924   0.96989   0.00000  Uiso   1.00
H969   H     0.80922   0.57069   0.96941   0.00000  Uiso   1.00
H970   H     0.80953   0.42924   0.53028   0.00000  Uiso   1.00
H971   H     0.85611   0.57106   0.61092   0.00000  Uiso   1.00
H972   H     0.85619   0.42896   0.88935   0.00000  Uiso   1.00
H973   H     0.80998   0.57095   0.88888   0.00000  Uiso   1.00
H974   H     0.81042   0.42899   0.61082   0.00000  Uiso   1.00
C975   C     0.71084   0.48217   0.66686   0.00000  Uiso   1.00
H976   H     0.74493   0.48327   0.66999   0.00000  Uiso   1.00
H977   H     0.70282   0.44692   0.65399   0.00000  Uiso   1.00
H978   H     0.70226   0.50927   0.64212   0.00000  Uiso   1.00
C979   C     0.95583   0.51746   0.83321   0.00000  Uiso   1.00
H980   H     0.92175   0.51594   0.83014   0.00000  Uiso   1.00
H981   H     0.96469   0.49042   0.85790   0.00000  Uiso   1.00
H982   H     0.96358   0.55278   0.84608   0.00000  Uiso   1.00
C983   C     0.95227   0.48230   0.66847   0.00000  Uiso   1.00
H984   H     0.93286   0.45064   0.67291   0.00000  Uiso   1.00
H985   H     0.93179   0.51280   0.66195   0.00000  Uiso   1.00
H986   H     0.97064   0.47668   0.63825   0.00000  Uiso   1.00
C987   C     0.71440   0.51805   0.83147   0.00000  Uiso   1.00
H988   H     0.73379   0.54970   0.82688   0.00000  Uiso   1.00
H989   H     0.69603   0.52383   0.86166   0.00000  Uiso   1.00
H990   H     0.73491   0.48761   0.83814   0.00000  Uiso   1.00
C991   C     0.08754   0.83336   0.74981   0.00000  Uiso   1.00
C992   C     0.24579   0.83330   0.75019   0.00000  Uiso   1.00
C993   C     0.16675   0.83334   0.66497   0.00000  Uiso   1.00
C994   C     0.16653   0.83332   0.83503   0.00000  Uiso   1.00
C995   C     0.14124   0.69152   0.72209   0.00000  Uiso   1.00
C996   C     0.19209   0.97514   0.77791   0.00000  Uiso   1.00
C997   C     0.19209   0.69141   0.77791   0.00000  Uiso   1.00
C998   C     0.14124   0.97526   0.72209   0.00000  Uiso   1.00
C999   C     0.02126   0.82444   0.70977   0.00000  Uiso   1.00
C1000  C     0.31208   0.84215   0.79024   0.00000  Uiso   1.00
C1001  C     0.31106   0.82438   0.71022   0.00000  Uiso   1.00
C1002  C     0.02228   0.84237   0.78977   0.00000  Uiso   1.00
C1003  C     0.17932   0.87322   0.54762   0.00000  Uiso   1.00
C1004  C     0.17937   0.79345   0.95253   0.00000  Uiso   1.00
C1005  C     0.15338   0.87315   0.95226   0.00000  Uiso   1.00
C1006  C     0.15361   0.79347   0.54757   0.00000  Uiso   1.00
C1007  C     0.17920   0.87331   0.59356   0.00000  Uiso   1.00
C1008  C     0.17917   0.79335   0.90659   0.00000  Uiso   1.00
C1009  C     0.15364   0.87323   0.90633   0.00000  Uiso   1.00
C1010  C     0.15395   0.79339   0.59351   0.00000  Uiso   1.00
C1011  C     0.16665   0.83335   0.61673   0.00000  Uiso   1.00
C1012  C     0.16644   0.83330   0.88326   0.00000  Uiso   1.00
C1013  C     0.16642   0.83334   0.52427   0.00000  Uiso   1.00
C1014  C     0.16637   0.83331   0.97571   0.00000  Uiso   1.00
C1015  C     0.29047   0.83323   0.75036   0.00000  Uiso   1.00
C1016  C     0.04287   0.83344   0.74964   0.00000  Uiso   1.00
Cu1017 Cu    0.16667   0.88022   0.75000   0.00000  Uiso   1.00
Cu1018 Cu    0.16667   0.78645   0.75000   0.00000  Uiso   1.00
N1019  N     0.16667   0.95069   0.75000   0.00000  Uiso   1.00
N1020  N     0.16667   0.71598   0.75000   0.00000  Uiso   1.00
O1021  O     0.10655   0.87291   0.75000   0.00000  Uiso   1.00
O1022  O     0.22679   0.79375   0.75001   0.00000  Uiso   1.00
O1023  O     0.22679   0.87291   0.75001   0.00000  Uiso   1.00
O1024  O     0.10655   0.79375   0.75000   0.00000  Uiso   1.00
O1025  O     0.16666   0.87293   0.68573   0.00000  Uiso   1.00
O1026  O     0.16667   0.79374   0.81427   0.00000  Uiso   1.00
O1027  O     0.16667   0.87293   0.81427   0.00000  Uiso   1.00
O1028  O     0.16666   0.79374   0.68573   0.00000  Uiso   1.00
H1029  H     0.12087   0.71025   0.69973   0.00000  Uiso   1.00
H1030  H     0.21248   0.95642   0.80026   0.00000  Uiso   1.00
H1031  H     0.21246   0.71004   0.80027   0.00000  Uiso   1.00
H1032  H     0.12086   0.95663   0.69974   0.00000  Uiso   1.00
H1033  H     0.18998   0.90411   0.53039   0.00000  Uiso   1.00
H1034  H     0.19018   0.76258   0.96989   0.00000  Uiso   1.00
H1035  H     0.14256   0.90403   0.96941   0.00000  Uiso   1.00
H1036  H     0.14287   0.76257   0.53028   0.00000  Uiso   1.00
H1037  H     0.18945   0.90439   0.61092   0.00000  Uiso   1.00
H1038  H     0.18952   0.76229   0.88935   0.00000  Uiso   1.00
H1039  H     0.14331   0.90428   0.88888   0.00000  Uiso   1.00
H1040  H     0.14375   0.76232   0.61082   0.00000  Uiso   1.00
C1041  C     0.04418   0.81550   0.66686   0.00000  Uiso   1.00
H1042  H     0.07827   0.81661   0.66999   0.00000  Uiso   1.00
H1043  H     0.03615   0.78025   0.65399   0.00000  Uiso   1.00
H1044  H     0.03559   0.84260   0.64212   0.00000  Uiso   1.00
C1045  C     0.28916   0.85079   0.83321   0.00000  Uiso   1.00
H1046  H     0.25508   0.84928   0.83014   0.00000  Uiso   1.00
H1047  H     0.29802   0.82376   0.85790   0.00000  Uiso   1.00
H1048  H     0.29691   0.88611   0.84608   0.00000  Uiso   1.00
C1049  C     0.28560   0.81563   0.66847   0.00000  Uiso   1.00
H1050  H     0.26619   0.78398   0.67291   0.00000  Uiso   1.00
H1051  H     0.26512   0.84614   0.66195   0.00000  Uiso   1.00
H1052  H     0.30398   0.81001   0.63825   0.00000  Uiso   1.00
C1053  C     0.04773   0.85138   0.83147   0.00000  Uiso   1.00
H1054  H     0.06712   0.88303   0.82688   0.00000  Uiso   1.00
H1055  H     0.02936   0.85717   0.86166   0.00000  Uiso   1.00
H1056  H     0.06825   0.82094   0.83814   0.00000  Uiso   1.00
C1057  C     0.42088   0.83336   0.74981   0.00000  Uiso   1.00
C1058  C     0.57912   0.83330   0.75019   0.00000  Uiso   1.00
C1059  C     0.50008   0.83334   0.66497   0.00000  Uiso   1.00
C1060  C     0.49986   0.83332   0.83503   0.00000  Uiso   1.00
C1061  C     0.47458   0.69152   0.72209   0.00000  Uiso   1.00
C1062  C     0.52543   0.97514   0.77791   0.00000  Uiso   1.00
C1063  C     0.52542   0.69141   0.77791   0.00000  Uiso   1.00
C1064  C     0.47457   0.97526   0.72209   0.00000  Uiso   1.00
C1065  C     0.35459   0.82444   0.70977   0.00000  Uiso   1.00
C1066  C     0.64542   0.84215   0.79024   0.00000  Uiso   1.00
C1067  C     0.64439   0.82438   0.71022   0.00000  Uiso   1.00
C1068  C     0.35561   0.84237   0.78977   0.00000  Uiso   1.00
C1069  C     0.51265   0.87322   0.54762   0.00000  Uiso   1.00
C1070  C     0.51271   0.79345   0.95253   0.00000  Uiso   1.00
C1071  C     0.48671   0.87315   0.95226   0.00000  Uiso   1.00
C1072  C     0.48694   0.79347   0.54757   0.00000  Uiso   1.00
C1073  C     0.51253   0.87331   0.59356   0.00000  Uiso   1.00
C1074  C     0.51251   0.79335   0.90659   0.00000  Uiso   1.00
C1075  C     0.48697   0.87323   0.90633   0.00000  Uiso   1.00
C1076  C     0.48728   0.79339   0.59351   0.00000  Uiso   1.00
C1077  C     0.49998   0.83335   0.61673   0.00000  Uiso   1.00
C1078  C     0.49978   0.83330   0.88326   0.00000  Uiso   1.00
C1079  C     0.49975   0.83334   0.52427   0.00000  Uiso   1.00
C1080  C     0.49971   0.83331   0.97571   0.00000  Uiso   1.00
C1081  C     0.62380   0.83323   0.75036   0.00000  Uiso   1.00
C1082  C     0.37620   0.83344   0.74964   0.00000  Uiso   1.00
Cu1083 Cu    0.50000   0.88022   0.75000   0.00000  Uiso   1.00
Cu1084 Cu    0.50000   0.78645   0.75000   0.00000  Uiso   1.00
N1085  N     0.50000   0.95069   0.75000   0.00000  Uiso   1.00
N1086  N     0.50000   0.71598   0.75000   0.00000  Uiso   1.00
O1087  O     0.43988   0.87291   0.75000   0.00000  Uiso   1.00
O1088  O     0.56012   0.79375   0.75001   0.00000  Uiso   1.00
O1089  O     0.56012   0.87291   0.75001   0.00000  Uiso   1.00
O1090  O     0.43988   0.79375   0.75000   0.00000  Uiso   1.00
O1091  O     0.50000   0.87293   0.68573   0.00000  Uiso   1.00
O1092  O     0.50000   0.79374   0.81427   0.00000  Uiso   1.00
O1093  O     0.50000   0.87293   0.81427   0.00000  Uiso   1.00
O1094  O     0.50000   0.79374   0.68573   0.00000  Uiso   1.00
H1095  H     0.45420   0.71025   0.69973   0.00000  Uiso   1.00
H1096  H     0.54581   0.95642   0.80026   0.00000  Uiso   1.00
H1097  H     0.54580   0.71004   0.80027   0.00000  Uiso   1.00
H1098  H     0.45420   0.95663   0.69974   0.00000  Uiso   1.00
H1099  H     0.52332   0.90411   0.53039   0.00000  Uiso   1.00
H1100  H     0.52352   0.76258   0.96989   0.00000  Uiso   1.00
H1101  H     0.47589   0.90403   0.96941   0.00000  Uiso   1.00
H1102  H     0.47620   0.76257   0.53028   0.00000  Uiso   1.00
H1103  H     0.52278   0.90439   0.61092   0.00000  Uiso   1.00
H1104  H     0.52285   0.76229   0.88935   0.00000  Uiso   1.00
H1105  H     0.47665   0.90428   0.88888   0.00000  Uiso   1.00
H1106  H     0.47708   0.76232   0.61082   0.00000  Uiso   1.00
C1107  C     0.37751   0.81550   0.66686   0.00000  Uiso   1.00
H1108  H     0.41160   0.81661   0.66999   0.00000  Uiso   1.00
H1109  H     0.36948   0.78025   0.65399   0.00000  Uiso   1.00
H1110  H     0.36893   0.84260   0.64212   0.00000  Uiso   1.00
C1111  C     0.62250   0.85079   0.83321   0.00000  Uiso   1.00
H1112  H     0.58841   0.84928   0.83014   0.00000  Uiso   1.00
H1113  H     0.63135   0.82376   0.85790   0.00000  Uiso   1.00
H1114  H     0.63024   0.88611   0.84608   0.00000  Uiso   1.00
C1115  C     0.61894   0.81563   0.66847   0.00000  Uiso   1.00
H1116  H     0.59952   0.78398   0.67291   0.00000  Uiso   1.00
H1117  H     0.59845   0.84614   0.66195   0.00000  Uiso   1.00
H1118  H     0.63731   0.81001   0.63825   0.00000  Uiso   1.00
C1119  C     0.38107   0.85138   0.83147   0.00000  Uiso   1.00
H1120  H     0.40045   0.88303   0.82688   0.00000  Uiso   1.00
H1121  H     0.36269   0.85717   0.86166   0.00000  Uiso   1.00
H1122  H     0.40158   0.82094   0.83814   0.00000  Uiso   1.00
C1123  C     0.75421   0.83336   0.74981   0.00000  Uiso   1.00
C1124  C     0.91246   0.83330   0.75019   0.00000  Uiso   1.00
C1125  C     0.83341   0.83334   0.66497   0.00000  Uiso   1.00
C1126  C     0.83319   0.83332   0.83503   0.00000  Uiso   1.00
C1127  C     0.80791   0.69152   0.72209   0.00000  Uiso   1.00
C1128  C     0.85876   0.97514   0.77791   0.00000  Uiso   1.00
C1129  C     0.85876   0.69141   0.77791   0.00000  Uiso   1.00
C1130  C     0.80791   0.97526   0.72209   0.00000  Uiso   1.00
C1131  C     0.68792   0.82444   0.70977   0.00000  Uiso   1.00
C1132  C     0.97875   0.84215   0.79024   0.00000  Uiso   1.00
C1133  C     0.97772   0.82438   0.71022   0.00000  Uiso   1.00
C1134  C     0.68895   0.84237   0.78977   0.00000  Uiso   1.00
C1135  C     0.84599   0.87322   0.54762   0.00000  Uiso   1.00
C1136  C     0.84604   0.79345   0.95253   0.00000  Uiso   1.00
C1137  C     0.82004   0.87315   0.95226   0.00000  Uiso   1.00
C1138  C     0.82028   0.79347   0.54757   0.00000  Uiso   1.00
C1139  C     0.84586   0.87331   0.59356   0.00000  Uiso   1.00
C1140  C     0.84584   0.79335   0.90659   0.00000  Uiso   1.00
C1141  C     0.82031   0.87323   0.90633   0.00000  Uiso   1.00
C1142  C     0.82062   0.79339   0.59351   0.00000  Uiso   1.00
C1143  C     0.83331   0.83335   0.61673   0.00000  Uiso   1.00
C1144  C     0.83311   0.83330   0.88326   0.00000  Uiso   1.00
C1145  C     0.83309   0.83334   0.52427   0.00000  Uiso   1.00
C1146  C     0.83304   0.83331   0.97571   0.00000  Uiso   1.00
C1147  C     0.95713   0.83323   0.75036   0.00000  Uiso   1.00
C1148  C     0.70954   0.83344   0.74964   0.00000  Uiso   1.00
Cu1149 Cu    0.83333   0.88022   0.75000   0.00000  Uiso   1.00
Cu1150 Cu    0.83333   0.78645   0.75000   0.00000  Uiso   1.00
N1151  N     0.83333   0.95069   0.75000   0.00000  Uiso   1.00
N1152  N     0.83333   0.71598   0.75000   0.00000  Uiso   1.00
O1153  O     0.77321   0.87291   0.75000   0.00000  Uiso   1.00
O1154  O     0.89345   0.79375   0.75001   0.00000  Uiso   1.00
O1155  O     0.89345   0.87291   0.75001   0.00000  Uiso   1.00
O1156  O     0.77321   0.79375   0.75000   0.00000  Uiso   1.00
O1157  O     0.83333   0.87293   0.68573   0.00000  Uiso   1.00
O1158  O     0.83334   0.79374   0.81427   0.00000  Uiso   1.00
O1159  O     0.83334   0.87293   0.81427   0.00000  Uiso   1.00
O1160  O     0.83333   0.79374   0.68573   0.00000  Uiso   1.00
H1161  H     0.78753   0.71025   0.69973   0.00000  Uiso   1.00
H1162  H     0.87914   0.95642   0.80026   0.00000  Uiso   1.00
H1163  H     0.87913   0.71004   0.80027   0.00000  Uiso   1.00
H1164  H     0.78753   0.95663   0.69974   0.00000  Uiso   1.00
H1165  H     0.85665   0.90411   0.53039   0.00000  Uiso   1.00
H1166  H     0.85685   0.76258   0.96989   0.00000  Uiso   1.00
H1167  H     0.80922   0.90403   0.96941   0.00000  Uiso   1.00
H1168  H     0.80953   0.76257   0.53028   0.00000  Uiso   1.00
H1169  H     0.85611   0.90439   0.61092   0.00000  Uiso   1.00
H1170  H     0.85619   0.76229   0.88935   0.00000  Uiso   1.00
H1171  H     0.80998   0.90428   0.88888   0.00000  Uiso   1.00
H1172  H     0.81042   0.76232   0.61082   0.00000  Uiso   1.00
C1173  C     0.71084   0.81550   0.66686   0.00000  Uiso   1.00
H1174  H     0.74493   0.81661   0.66999   0.00000  Uiso   1.00
H1175  H     0.70282   0.78025   0.65399   0.00000  Uiso   1.00
H1176  H     0.70226   0.84260   0.64212   0.00000  Uiso   1.00
C1177  C     0.95583   0.85079   0.83321   0.00000  Uiso   1.00
H1178  H     0.92175   0.84928   0.83014   0.00000  Uiso   1.00
H1179  H     0.96469   0.82376   0.85790   0.00000  Uiso   1.00
H1180  H     0.96358   0.88611   0.84608   0.00000  Uiso   1.00
C1181  C     0.95227   0.81563   0.66847   0.00000  Uiso   1.00
H1182  H     0.93286   0.78398   0.67291   0.00000  Uiso   1.00
H1183  H     0.93179   0.84614   0.66195   0.00000  Uiso   1.00
H1184  H     0.97064   0.81001   0.63825   0.00000  Uiso   1.00
C1185  C     0.71440   0.85138   0.83147   0.00000  Uiso   1.00
H1186  H     0.73379   0.88303   0.82688   0.00000  Uiso   1.00
H1187  H     0.69603   0.85717   0.86166   0.00000  Uiso   1.00
H1188  H     0.73491   0.82094   0.83814   0.00000  Uiso   1.00
loop_
_geom_bond_atom_site_label_1
_geom_bond_atom_site_label_2
_geom_bond_distance
_geom_bond_site_symmetry_2
_ccdc_geom_bond_type
C1     O34     1.287   .     A
C1     C26     1.444   .     S
C1     O31     1.287   .     A
C2     O33     1.287   .     A
C2     C25     1.444   .     S
C2     O32     1.287   .     A
C3     O35     1.294   .     A
C3     C21     1.459   .     S
C3     O38     1.294   .     A
C4     C22     1.459   .     S
C4     O37     1.294   .     A
C4     O36     1.294   .     A
C5     H39     1.082   .     S
C5     N30     1.367   .     A
C5     C404    1.417   1_545 S
C6     H40     1.082   .     S
C6     N29     1.367   .     A
C6     C205    1.417   .     S
C7     H41     1.082   .     S
C7     N30     1.367   .     A
C7     C402    1.417   1_545 S
C8     N29     1.367   .     A
C8     H42     1.082   .     S
C8     C203    1.417   .     S
C9     C51     1.521   .     S
C9     C26     1.414   .     A
C9     C143    1.407   1_455 S
C10    C55     1.521   .     S
C10    C25     1.414   .     A
C10    C78     1.407   .     S
C11    C59     1.524   .     S
C11    C25     1.412   .     A
C11    C75     1.407   .     S
C12    C63     1.524   .     S
C12    C26     1.412   .     A
C12    C142    1.407   1_455 S
C13    H43     1.083   .     S
C13    C23     1.404   .     A
C13    C17     1.390   .     A
C14    C18     1.390   .     A
C14    C24     1.404   .     A
C14    H44     1.083   .     S
C15    C19     1.390   .     A
C15    C24     1.404   .     A
C15    H45     1.083   .     S
C16    C23     1.403   .     A
C16    C20     1.390   .     A
C16    H46     1.083   .     S
C17    H47     1.083   .     S
C17    C21     1.402   .     A
C18    C22     1.402   .     A
C18    H48     1.083   .     S
C19    C22     1.402   .     A
C19    H49     1.083   .     S
C20    H50     1.083   .     S
C20    C21     1.402   .     A
C23    C618    1.469   1_554 S
C24    C617    1.469   .     S
Cu27   O33     1.954   .     S
Cu27   O37     1.955   .     S
Cu27   O31     1.954   .     S
Cu27   N29     2.014   .     S
Cu27   O35     1.956   .     S
Cu27   Cu28    2.680   .     S
Cu28   O38     1.955   .     S
Cu28   O34     1.954   .     S
Cu28   N30     2.014   .     S
Cu28   O36     1.956   .     S
Cu28   O32     1.954   .     S
C51    H53     1.110   .     S
C51    H54     1.110   .     S
C51    H52     1.106   .     S
C55    H57     1.110   .     S
C55    H56     1.106   .     S
C55    H58     1.110   .     S
C59    H60     1.110   .     S
C59    H61     1.111   .     S
C59    H62     1.105   .     S
C63    H65     1.105   .     S
C63    H66     1.111   .     S
C63    H64     1.110   .     S
C67    O100    1.287   .     A
C67    C92     1.444   .     S
C67    O97     1.287   .     A
C68    O99     1.287   .     A
C68    C91     1.444   .     S
C68    O98     1.287   .     A
C69    O101    1.294   .     A
C69    C87     1.459   .     S
C69    O104    1.294   .     A
C70    C88     1.459   .     S
C70    O103    1.294   .     A
C70    O102    1.294   .     A
C71    H105    1.082   .     S
C71    N96     1.367   .     A
C71    C470    1.417   1_545 S
C72    H106    1.082   .     S
C72    N95     1.367   .     A
C72    C271    1.417   .     S
C73    H107    1.082   .     S
C73    N96     1.367   .     A
C73    C468    1.417   1_545 S
C74    N95     1.367   .     A
C74    H108    1.082   .     S
C74    C269    1.417   .     S
C75    C117    1.521   .     S
C75    C92     1.414   .     A
C76    C121    1.521   .     S
C76    C91     1.414   .     A
C76    C144    1.407   .     S
C77    C125    1.524   .     S
C77    C91     1.412   .     A
C77    C141    1.407   .     S
C78    C129    1.524   .     S
C78    C92     1.412   .     A
C79    H109    1.083   .     S
C79    C89     1.404   .     A
C79    C83     1.390   .     A
C80    C84     1.390   .     A
C80    C90     1.404   .     A
C80    H110    1.083   .     S
C81    C85     1.390   .     A
C81    C90     1.404   .     A
C81    H111    1.083   .     S
C82    C89     1.403   .     A
C82    C86     1.390   .     A
C82    H112    1.083   .     S
C83    H113    1.083   .     S
C83    C87     1.402   .     A
C84    C88     1.402   .     A
C84    H114    1.083   .     S
C85    C88     1.402   .     A
C85    H115    1.083   .     S
C86    H116    1.083   .     S
C86    C87     1.402   .     A
C89    C684    1.469   1_554 S
C90    C683    1.469   .     S
Cu93   O99     1.954   .     S
Cu93   O103    1.955   .     S
Cu93   O97     1.954   .     S
Cu93   N95     2.014   .     S
Cu93   O101    1.956   .     S
Cu93   Cu94    2.680   .     S
Cu94   O104    1.955   .     S
Cu94   O100    1.954   .     S
Cu94   N96     2.014   .     S
Cu94   O102    1.956   .     S
Cu94   O98     1.954   .     S
C117   H119    1.110   .     S
C117   H120    1.110   .     S
C117   H118    1.106   .     S
C121   H123    1.110   .     S
C121   H122    1.106   .     S
C121   H124    1.110   .     S
C125   H126    1.110   .     S
C125   H127    1.111   .     S
C125   H128    1.105   .     S
C129   H131    1.105   .     S
C129   H132    1.111   .     S
C129   H130    1.110   .     S
C133   O166    1.287   .     A
C133   C158    1.444   .     S
C133   O163    1.287   .     A
C134   O165    1.287   .     A
C134   C157    1.444   .     S
C134   O164    1.287   .     A
C135   O167    1.294   .     A
C135   C153    1.459   .     S
C135   O170    1.294   .     A
C136   C154    1.459   .     S
C136   O169    1.294   .     A
C136   O168    1.294   .     A
C137   H171    1.082   .     S
C137   N162    1.367   .     A
C137   C536    1.417   1_545 S
C138   H172    1.082   .     S
C138   N161    1.367   .     A
C138   C337    1.417   .     S
C139   H173    1.082   .     S
C139   N162    1.367   .     A
C139   C534    1.417   1_545 S
C140   N161    1.367   .     A
C140   H174    1.082   .     S
C140   C335    1.417   .     S
C141   C183    1.521   .     S
C141   C158    1.414   .     A
C142   C187    1.521   .     S
C142   C157    1.414   .     A
C142   C12     1.407   1_655 S
C143   C191    1.524   .     S
C143   C157    1.412   .     A
C143   C9      1.407   1_655 S
C144   C195    1.524   .     S
C144   C158    1.412   .     A
C145   H175    1.083   .     S
C145   C155    1.404   .     A
C145   C149    1.390   .     A
C146   C150    1.390   .     A
C146   C156    1.404   .     A
C146   H176    1.083   .     S
C147   C151    1.390   .     A
C147   C156    1.404   .     A
C147   H177    1.083   .     S
C148   C155    1.403   .     A
C148   C152    1.390   .     A
C148   H178    1.083   .     S
C149   H179    1.083   .     S
C149   C153    1.402   .     A
C150   C154    1.402   .     A
C150   H180    1.083   .     S
C151   C154    1.402   .     A
C151   H181    1.083   .     S
C152   H182    1.083   .     S
C152   C153    1.402   .     A
C155   C750    1.469   1_554 S
C156   C749    1.469   .     S
Cu159  O165    1.954   .     S
Cu159  O169    1.955   .     S
Cu159  O163    1.954   .     S
Cu159  N161    2.014   .     S
Cu159  O167    1.956   .     S
Cu159  Cu160   2.680   .     S
Cu160  O170    1.955   .     S
Cu160  O166    1.954   .     S
Cu160  N162    2.014   .     S
Cu160  O168    1.956   .     S
Cu160  O164    1.954   .     S
C183   H185    1.110   .     S
C183   H186    1.110   .     S
C183   H184    1.106   .     S
C187   H189    1.110   .     S
C187   H188    1.106   .     S
C187   H190    1.110   .     S
C191   H192    1.110   .     S
C191   H193    1.111   .     S
C191   H194    1.105   .     S
C195   H197    1.105   .     S
C195   H198    1.111   .     S
C195   H196    1.110   .     S
C199   O232    1.287   .     A
C199   C224    1.444   .     S
C199   O229    1.287   .     A
C200   O231    1.287   .     A
C200   C223    1.444   .     S
C200   O230    1.287   .     A
C201   O233    1.294   .     A
C201   C219    1.459   .     S
C201   O236    1.294   .     A
C202   C220    1.459   .     S
C202   O235    1.294   .     A
C202   O234    1.294   .     A
C203   H237    1.082   .     S
C203   N228    1.367   .     A
C204   H238    1.082   .     S
C204   N227    1.367   .     A
C204   C403    1.417   .     S
C205   H239    1.082   .     S
C205   N228    1.367   .     A
C206   N227    1.367   .     A
C206   H240    1.082   .     S
C206   C401    1.417   .     S
C207   C249    1.521   .     S
C207   C224    1.414   .     A
C207   C341    1.407   1_455 S
C208   C253    1.521   .     S
C208   C223    1.414   .     A
C208   C276    1.407   .     S
C209   C257    1.524   .     S
C209   C223    1.412   .     A
C209   C273    1.407   .     S
C210   C261    1.524   .     S
C210   C224    1.412   .     A
C210   C340    1.407   1_455 S
C211   H241    1.083   .     S
C211   C221    1.404   .     A
C211   C215    1.390   .     A
C212   C216    1.390   .     A
C212   C222    1.404   .     A
C212   H242    1.083   .     S
C213   C217    1.390   .     A
C213   C222    1.404   .     A
C213   H243    1.083   .     S
C214   C221    1.403   .     A
C214   C218    1.390   .     A
C214   H244    1.083   .     S
C215   H245    1.083   .     S
C215   C219    1.402   .     A
C216   C220    1.402   .     A
C216   H246    1.083   .     S
C217   C220    1.402   .     A
C217   H247    1.083   .     S
C218   H248    1.083   .     S
C218   C219    1.402   .     A
C221   C816    1.469   1_554 S
C222   C815    1.469   .     S
Cu225  O231    1.954   .     S
Cu225  O235    1.955   .     S
Cu225  O229    1.954   .     S
Cu225  N227    2.014   .     S
Cu225  O233    1.956   .     S
Cu225  Cu226   2.680   .     S
Cu226  O236    1.955   .     S
Cu226  O232    1.954   .     S
Cu226  N228    2.014   .     S
Cu226  O234    1.956   .     S
Cu226  O230    1.954   .     S
C249   H251    1.110   .     S
C249   H252    1.110   .     S
C249   H250    1.106   .     S
C253   H255    1.110   .     S
C253   H254    1.106   .     S
C253   H256    1.110   .     S
C257   H258    1.110   .     S
C257   H259    1.111   .     S
C257   H260    1.105   .     S
C261   H263    1.105   .     S
C261   H264    1.111   .     S
C261   H262    1.110   .     S
C265   O298    1.287   .     A
C265   C290    1.444   .     S
C265   O295    1.287   .     A
C266   O297    1.287   .     A
C266   C289    1.444   .     S
C266   O296    1.287   .     A
C267   O299    1.294   .     A
C267   C285    1.459   .     S
C267   O302    1.294   .     A
C268   C286    1.459   .     S
C268   O301    1.294   .     A
C268   O300    1.294   .     A
C269   H303    1.082   .     S
C269   N294    1.367   .     A
C270   H304    1.082   .     S
C270   N293    1.367   .     A
C270   C469    1.417   .     S
C271   H305    1.082   .     S
C271   N294    1.367   .     A
C272   N293    1.367   .     A
C272   H306    1.082   .     S
C272   C467    1.417   .     S
C273   C315    1.521   .     S
C273   C290    1.414   .     A
C274   C319    1.521   .     S
C274   C289    1.414   .     A
C274   C342    1.407   .     S
C275   C323    1.524   .     S
C275   C289    1.412   .     A
C275   C339    1.407   .     S
C276   C327    1.524   .     S
C276   C290    1.412   .     A
C277   H307    1.083   .     S
C277   C287    1.404   .     A
C277   C281    1.390   .     A
C278   C282    1.390   .     A
C278   C288    1.404   .     A
C278   H308    1.083   .     S
C279   C283    1.390   .     A
C279   C288    1.404   .     A
C279   H309    1.083   .     S
C280   C287    1.403   .     A
C280   C284    1.390   .     A
C280   H310    1.083   .     S
C281   H311    1.083   .     S
C281   C285    1.402   .     A
C282   C286    1.402   .     A
C282   H312    1.083   .     S
C283   C286    1.402   .     A
C283   H313    1.083   .     S
C284   H314    1.083   .     S
C284   C285    1.402   .     A
C287   C882    1.469   1_554 S
C288   C881    1.469   .     S
Cu291  O297    1.954   .     S
Cu291  O301    1.955   .     S
Cu291  O295    1.954   .     S
Cu291  N293    2.014   .     S
Cu291  O299    1.956   .     S
Cu291  Cu292   2.680   .     S
Cu292  O302    1.955   .     S
Cu292  O298    1.954   .     S
Cu292  N294    2.014   .     S
Cu292  O300    1.956   .     S
Cu292  O296    1.954   .     S
C315   H317    1.110   .     S
C315   H318    1.110   .     S
C315   H316    1.106   .     S
C319   H321    1.110   .     S
C319   H320    1.106   .     S
C319   H322    1.110   .     S
C323   H324    1.110   .     S
C323   H325    1.111   .     S
C323   H326    1.105   .     S
C327   H329    1.105   .     S
C327   H330    1.111   .     S
C327   H328    1.110   .     S
C331   O364    1.287   .     A
C331   C356    1.444   .     S
C331   O361    1.287   .     A
C332   O363    1.287   .     A
C332   C355    1.444   .     S
C332   O362    1.287   .     A
C333   O365    1.294   .     A
C333   C351    1.459   .     S
C333   O368    1.294   .     A
C334   C352    1.459   .     S
C334   O367    1.294   .     A
C334   O366    1.294   .     A
C335   H369    1.082   .     S
C335   N360    1.367   .     A
C336   H370    1.082   .     S
C336   N359    1.367   .     A
C336   C535    1.417   .     S
C337   H371    1.082   .     S
C337   N360    1.367   .     A
C338   N359    1.367   .     A
C338   H372    1.082   .     S
C338   C533    1.417   .     S
C339   C381    1.521   .     S
C339   C356    1.414   .     A
C340   C385    1.521   .     S
C340   C355    1.414   .     A
C340   C210    1.407   1_655 S
C341   C389    1.524   .     S
C341   C355    1.412   .     A
C341   C207    1.407   1_655 S
C342   C393    1.524   .     S
C342   C356    1.412   .     A
C343   H373    1.083   .     S
C343   C353    1.404   .     A
C343   C347    1.390   .     A
C344   C348    1.390   .     A
C344   C354    1.404   .     A
C344   H374    1.083   .     S
C345   C349    1.390   .     A
C345   C354    1.404   .     A
C345   H375    1.083   .     S
C346   C353    1.403   .     A
C346   C350    1.390   .     A
C346   H376    1.083   .     S
C347   H377    1.083   .     S
C347   C351    1.402   .     A
C348   C352    1.402   .     A
C348   H378    1.083   .     S
C349   C352    1.402   .     A
C349   H379    1.083   .     S
C350   H380    1.083   .     S
C350   C351    1.402   .     A
C353   C948    1.469   1_554 S
C354   C947    1.469   .     S
Cu357  O363    1.954   .     S
Cu357  O367    1.955   .     S
Cu357  O361    1.954   .     S
Cu357  N359    2.014   .     S
Cu357  O365    1.956   .     S
Cu357  Cu358   2.680   .     S
Cu358  O368    1.955   .     S
Cu358  O364    1.954   .     S
Cu358  N360    2.014   .     S
Cu358  O366    1.956   .     S
Cu358  O362    1.954   .     S
C381   H383    1.110   .     S
C381   H384    1.110   .     S
C381   H382    1.106   .     S
C385   H387    1.110   .     S
C385   H386    1.106   .     S
C385   H388    1.110   .     S
C389   H390    1.110   .     S
C389   H391    1.111   .     S
C389   H392    1.105   .     S
C393   H395    1.105   .     S
C393   H396    1.111   .     S
C393   H394    1.110   .     S
C397   O430    1.287   .     A
C397   C422    1.444   .     S
C397   O427    1.287   .     A
C398   O429    1.287   .     A
C398   C421    1.444   .     S
C398   O428    1.287   .     A
C399   O431    1.294   .     A
C399   C417    1.459   .     S
C399   O434    1.294   .     A
C400   C418    1.459   .     S
C400   O433    1.294   .     A
C400   O432    1.294   .     A
C401   H435    1.082   .     S
C401   N426    1.367   .     A
C402   H436    1.082   .     S
C402   N425    1.367   .     A
C402   C7      1.417   1_565 S
C403   H437    1.082   .     S
C403   N426    1.367   .     A
C404   N425    1.367   .     A
C404   H438    1.082   .     S
C404   C5      1.417   1_565 S
C405   C447    1.521   .     S
C405   C422    1.414   .     A
C405   C539    1.407   1_455 S
C406   C451    1.521   .     S
C406   C421    1.414   .     A
C406   C474    1.407   .     S
C407   C455    1.524   .     S
C407   C421    1.412   .     A
C407   C471    1.407   .     S
C408   C459    1.524   .     S
C408   C422    1.412   .     A
C408   C538    1.407   1_455 S
C409   H439    1.083   .     S
C409   C419    1.404   .     A
C409   C413    1.390   .     A
C410   C414    1.390   .     A
C410   C420    1.404   .     A
C410   H440    1.083   .     S
C411   C415    1.390   .     A
C411   C420    1.404   .     A
C411   H441    1.083   .     S
C412   C419    1.403   .     A
C412   C416    1.390   .     A
C412   H442    1.083   .     S
C413   H443    1.083   .     S
C413   C417    1.402   .     A
C414   C418    1.402   .     A
C414   H444    1.083   .     S
C415   C418    1.402   .     A
C415   H445    1.083   .     S
C416   H446    1.083   .     S
C416   C417    1.402   .     A
C419   C1014   1.469   1_554 S
C420   C1013   1.469   .     S
Cu423  O429    1.954   .     S
Cu423  O433    1.955   .     S
Cu423  O427    1.954   .     S
Cu423  N425    2.014   .     S
Cu423  O431    1.956   .     S
Cu423  Cu424   2.680   .     S
Cu424  O434    1.955   .     S
Cu424  O430    1.954   .     S
Cu424  N426    2.014   .     S
Cu424  O432    1.956   .     S
Cu424  O428    1.954   .     S
C447   H449    1.110   .     S
C447   H450    1.110   .     S
C447   H448    1.106   .     S
C451   H453    1.110   .     S
C451   H452    1.106   .     S
C451   H454    1.110   .     S
C455   H456    1.110   .     S
C455   H457    1.111   .     S
C455   H458    1.105   .     S
C459   H461    1.105   .     S
C459   H462    1.111   .     S
C459   H460    1.110   .     S
C463   O496    1.287   .     A
C463   C488    1.444   .     S
C463   O493    1.287   .     A
C464   O495    1.287   .     A
C464   C487    1.444   .     S
C464   O494    1.287   .     A
C465   O497    1.294   .     A
C465   C483    1.459   .     S
C465   O500    1.294   .     A
C466   C484    1.459   .     S
C466   O499    1.294   .     A
C466   O498    1.294   .     A
C467   H501    1.082   .     S
C467   N492    1.367   .     A
C468   H502    1.082   .     S
C468   N491    1.367   .     A
C468   C73     1.417   1_565 S
C469   H503    1.082   .     S
C469   N492    1.367   .     A
C470   N491    1.367   .     A
C470   H504    1.082   .     S
C470   C71     1.417   1_565 S
C471   C513    1.521   .     S
C471   C488    1.414   .     A
C472   C517    1.521   .     S
C472   C487    1.414   .     A
C472   C540    1.407   .     S
C473   C521    1.524   .     S
C473   C487    1.412   .     A
C473   C537    1.407   .     S
C474   C525    1.524   .     S
C474   C488    1.412   .     A
C475   H505    1.083   .     S
C475   C485    1.404   .     A
C475   C479    1.390   .     A
C476   C480    1.390   .     A
C476   C486    1.404   .     A
C476   H506    1.083   .     S
C477   C481    1.390   .     A
C477   C486    1.404   .     A
C477   H507    1.083   .     S
C478   C485    1.403   .     A
C478   C482    1.390   .     A
C478   H508    1.083   .     S
C479   H509    1.083   .     S
C479   C483    1.402   .     A
C480   C484    1.402   .     A
C480   H510    1.083   .     S
C481   C484    1.402   .     A
C481   H511    1.083   .     S
C482   H512    1.083   .     S
C482   C483    1.402   .     A
C485   C1080   1.469   1_554 S
C486   C1079   1.469   .     S
Cu489  O495    1.954   .     S
Cu489  O499    1.955   .     S
Cu489  O493    1.954   .     S
Cu489  N491    2.014   .     S
Cu489  O497    1.956   .     S
Cu489  Cu490   2.680   .     S
Cu490  O500    1.955   .     S
Cu490  O496    1.954   .     S
Cu490  N492    2.014   .     S
Cu490  O498    1.956   .     S
Cu490  O494    1.954   .     S
C513   H515    1.110   .     S
C513   H516    1.110   .     S
C513   H514    1.106   .     S
C517   H519    1.110   .     S
C517   H518    1.106   .     S
C517   H520    1.110   .     S
C521   H522    1.110   .     S
C521   H523    1.111   .     S
C521   H524    1.105   .     S
C525   H527    1.105   .     S
C525   H528    1.111   .     S
C525   H526    1.110   .     S
C529   O562    1.287   .     A
C529   C554    1.444   .     S
C529   O559    1.287   .     A
C530   O561    1.287   .     A
C530   C553    1.444   .     S
C530   O560    1.287   .     A
C531   O563    1.294   .     A
C531   C549    1.459   .     S
C531   O566    1.294   .     A
C532   C550    1.459   .     S
C532   O565    1.294   .     A
C532   O564    1.294   .     A
C533   H567    1.082   .     S
C533   N558    1.367   .     A
C534   H568    1.082   .     S
C534   N557    1.367   .     A
C534   C139    1.417   1_565 S
C535   H569    1.082   .     S
C535   N558    1.367   .     A
C536   N557    1.367   .     A
C536   H570    1.082   .     S
C536   C137    1.417   1_565 S
C537   C579    1.521   .     S
C537   C554    1.414   .     A
C538   C583    1.521   .     S
C538   C553    1.414   .     A
C538   C408    1.407   1_655 S
C539   C587    1.524   .     S
C539   C553    1.412   .     A
C539   C405    1.407   1_655 S
C540   C591    1.524   .     S
C540   C554    1.412   .     A
C541   H571    1.083   .     S
C541   C551    1.404   .     A
C541   C545    1.390   .     A
C542   C546    1.390   .     A
C542   C552    1.404   .     A
C542   H572    1.083   .     S
C543   C547    1.390   .     A
C543   C552    1.404   .     A
C543   H573    1.083   .     S
C544   C551    1.403   .     A
C544   C548    1.390   .     A
C544   H574    1.083   .     S
C545   H575    1.083   .     S
C545   C549    1.402   .     A
C546   C550    1.402   .     A
C546   H576    1.083   .     S
C547   C550    1.402   .     A
C547   H577    1.083   .     S
C548   H578    1.083   .     S
C548   C549    1.402   .     A
C551   C1146   1.469   1_554 S
C552   C1145   1.469   .     S
Cu555  O561    1.954   .     S
Cu555  O565    1.955   .     S
Cu555  O559    1.954   .     S
Cu555  N557    2.014   .     S
Cu555  O563    1.956   .     S
Cu555  Cu556   2.680   .     S
Cu556  O566    1.955   .     S
Cu556  O562    1.954   .     S
Cu556  N558    2.014   .     S
Cu556  O564    1.956   .     S
Cu556  O560    1.954   .     S
C579   H581    1.110   .     S
C579   H582    1.110   .     S
C579   H580    1.106   .     S
C583   H585    1.110   .     S
C583   H584    1.106   .     S
C583   H586    1.110   .     S
C587   H588    1.110   .     S
C587   H589    1.111   .     S
C587   H590    1.105   .     S
C591   H593    1.105   .     S
C591   H594    1.111   .     S
C591   H592    1.110   .     S
C595   O628    1.287   .     A
C595   C620    1.444   .     S
C595   O625    1.287   .     A
C596   O627    1.287   .     A
C596   C619    1.444   .     S
C596   O626    1.287   .     A
C597   O629    1.294   .     A
C597   C615    1.459   .     S
C597   O632    1.294   .     A
C598   C616    1.459   .     S
C598   O631    1.294   .     A
C598   O630    1.294   .     A
C599   H633    1.082   .     S
C599   N624    1.367   .     A
C599   C998    1.417   1_545 S
C600   H634    1.082   .     S
C600   N623    1.367   .     A
C600   C799    1.417   .     S
C601   H635    1.082   .     S
C601   N624    1.367   .     A
C601   C996    1.417   1_545 S
C602   N623    1.367   .     A
C602   H636    1.082   .     S
C602   C797    1.417   .     S
C603   C645    1.521   .     S
C603   C620    1.414   .     A
C603   C737    1.407   1_455 S
C604   C649    1.521   .     S
C604   C619    1.414   .     A
C604   C672    1.407   .     S
C605   C653    1.524   .     S
C605   C619    1.412   .     A
C605   C669    1.407   .     S
C606   C657    1.524   .     S
C606   C620    1.412   .     A
C606   C736    1.407   1_455 S
C607   H637    1.083   .     S
C607   C617    1.404   .     A
C607   C611    1.390   .     A
C608   C612    1.390   .     A
C608   C618    1.404   .     A
C608   H638    1.083   .     S
C609   C613    1.390   .     A
C609   C618    1.404   .     A
C609   H639    1.083   .     S
C610   C617    1.403   .     A
C610   C614    1.390   .     A
C610   H640    1.083   .     S
C611   H641    1.083   .     S
C611   C615    1.402   .     A
C612   C616    1.402   .     A
C612   H642    1.083   .     S
C613   C616    1.402   .     A
C613   H643    1.083   .     S
C614   H644    1.083   .     S
C614   C615    1.402   .     A
C618   C23     1.469   1_556 S
Cu621  O627    1.954   .     S
Cu621  O631    1.955   .     S
Cu621  O625    1.954   .     S
Cu621  N623    2.014   .     S
Cu621  O629    1.956   .     S
Cu621  Cu622   2.680   .     S
Cu622  O632    1.955   .     S
Cu622  O628    1.954   .     S
Cu622  N624    2.014   .     S
Cu622  O630    1.956   .     S
Cu622  O626    1.954   .     S
C645   H647    1.110   .     S
C645   H648    1.110   .     S
C645   H646    1.106   .     S
C649   H651    1.110   .     S
C649   H650    1.106   .     S
C649   H652    1.110   .     S
C653   H654    1.110   .     S
C653   H655    1.111   .     S
C653   H656    1.105   .     S
C657   H659    1.105   .     S
C657   H660    1.111   .     S
C657   H658    1.110   .     S
C661   O694    1.287   .     A
C661   C686    1.444   .     S
C661   O691    1.287   .     A
C662   O693    1.287   .     A
C662   C685    1.444   .     S
C662   O692    1.287   .     A
C663   O695    1.294   .     A
C663   C681    1.459   .     S
C663   O698    1.294   .     A
C664   C682    1.459   .     S
C664   O697    1.294   .     A
C664   O696    1.294   .     A
C665   H699    1.082   .     S
C665   N690    1.367   .     A
C665   C1064   1.417   1_545 S
C666   H700    1.082   .     S
C666   N689    1.367   .     A
C666   C865    1.417   .     S
C667   H701    1.082   .     S
C667   N690    1.367   .     A
C667   C1062   1.417   1_545 S
C668   N689    1.367   .     A
C668   H702    1.082   .     S
C668   C863    1.417   .     S
C669   C711    1.521   .     S
C669   C686    1.414   .     A
C670   C715    1.521   .     S
C670   C685    1.414   .     A
C670   C738    1.407   .     S
C671   C719    1.524   .     S
C671   C685    1.412   .     A
C671   C735    1.407   .     S
C672   C723    1.524   .     S
C672   C686    1.412   .     A
C673   H703    1.083   .     S
C673   C683    1.404   .     A
C673   C677    1.390   .     A
C674   C678    1.390   .     A
C674   C684    1.404   .     A
C674   H704    1.083   .     S
C675   C679    1.390   .     A
C675   C684    1.404   .     A
C675   H705    1.083   .     S
C676   C683    1.403   .     A
C676   C680    1.390   .     A
C676   H706    1.083   .     S
C677   H707    1.083   .     S
C677   C681    1.402   .     A
C678   C682    1.402   .     A
C678   H708    1.083   .     S
C679   C682    1.402   .     A
C679   H709    1.083   .     S
C680   H710    1.083   .     S
C680   C681    1.402   .     A
C684   C89     1.469   1_556 S
Cu687  O693    1.954   .     S
Cu687  O697    1.955   .     S
Cu687  O691    1.954   .     S
Cu687  N689    2.014   .     S
Cu687  O695    1.956   .     S
Cu687  Cu688   2.680   .     S
Cu688  O698    1.955   .     S
Cu688  O694    1.954   .     S
Cu688  N690    2.014   .     S
Cu688  O696    1.956   .     S
Cu688  O692    1.954   .     S
C711   H713    1.110   .     S
C711   H714    1.110   .     S
C711   H712    1.106   .     S
C715   H717    1.110   .     S
C715   H716    1.106   .     S
C715   H718    1.110   .     S
C719   H720    1.110   .     S
C719   H721    1.111   .     S
C719   H722    1.105   .     S
C723   H725    1.105   .     S
C723   H726    1.111   .     S
C723   H724    1.110   .     S
C727   O760    1.287   .     A
C727   C752    1.444   .     S
C727   O757    1.287   .     A
C728   O759    1.287   .     A
C728   C751    1.444   .     S
C728   O758    1.287   .     A
C729   O761    1.294   .     A
C729   C747    1.459   .     S
C729   O764    1.294   .     A
C730   C748    1.459   .     S
C730   O763    1.294   .     A
C730   O762    1.294   .     A
C731   H765    1.082   .     S
C731   N756    1.367   .     A
C731   C1130   1.417   1_545 S
C732   H766    1.082   .     S
C732   N755    1.367   .     A
C732   C931    1.417   .     S
C733   H767    1.082   .     S
C733   N756    1.367   .     A
C733   C1128   1.417   1_545 S
C734   N755    1.367   .     A
C734   H768    1.082   .     S
C734   C929    1.417   .     S
C735   C777    1.521   .     S
C735   C752    1.414   .     A
C736   C781    1.521   .     S
C736   C751    1.414   .     A
C736   C606    1.407   1_655 S
C737   C785    1.524   .     S
C737   C751    1.412   .     A
C737   C603    1.407   1_655 S
C738   C789    1.524   .     S
C738   C752    1.412   .     A
C739   H769    1.083   .     S
C739   C749    1.404   .     A
C739   C743    1.390   .     A
C740   C744    1.390   .     A
C740   C750    1.404   .     A
C740   H770    1.083   .     S
C741   C745    1.390   .     A
C741   C750    1.404   .     A
C741   H771    1.083   .     S
C742   C749    1.403   .     A
C742   C746    1.390   .     A
C742   H772    1.083   .     S
C743   H773    1.083   .     S
C743   C747    1.402   .     A
C744   C748    1.402   .     A
C744   H774    1.083   .     S
C745   C748    1.402   .     A
C745   H775    1.083   .     S
C746   H776    1.083   .     S
C746   C747    1.402   .     A
C750   C155    1.469   1_556 S
Cu753  O759    1.954   .     S
Cu753  O763    1.955   .     S
Cu753  O757    1.954   .     S
Cu753  N755    2.014   .     S
Cu753  O761    1.956   .     S
Cu753  Cu754   2.680   .     S
Cu754  O764    1.955   .     S
Cu754  O760    1.954   .     S
Cu754  N756    2.014   .     S
Cu754  O762    1.956   .     S
Cu754  O758    1.954   .     S
C777   H779    1.110   .     S
C777   H780    1.110   .     S
C777   H778    1.106   .     S
C781   H783    1.110   .     S
C781   H782    1.106   .     S
C781   H784    1.110   .     S
C785   H786    1.110   .     S
C785   H787    1.111   .     S
C785   H788    1.105   .     S
C789   H791    1.105   .     S
C789   H792    1.111   .     S
C789   H790    1.110   .     S
C793   O826    1.287   .     A
C793   C818    1.444   .     S
C793   O823    1.287   .     A
C794   O825    1.287   .     A
C794   C817    1.444   .     S
C794   O824    1.287   .     A
C795   O827    1.294   .     A
C795   C813    1.459   .     S
C795   O830    1.294   .     A
C796   C814    1.459   .     S
C796   O829    1.294   .     A
C796   O828    1.294   .     A
C797   H831    1.082   .     S
C797   N822    1.367   .     A
C798   H832    1.082   .     S
C798   N821    1.367   .     A
C798   C997    1.417   .     S
C799   H833    1.082   .     S
C799   N822    1.367   .     A
C800   N821    1.367   .     A
C800   H834    1.082   .     S
C800   C995    1.417   .     S
C801   C843    1.521   .     S
C801   C818    1.414   .     A
C801   C935    1.407   1_455 S
C802   C847    1.521   .     S
C802   C817    1.414   .     A
C802   C870    1.407   .     S
C803   C851    1.524   .     S
C803   C817    1.412   .     A
C803   C867    1.407   .     S
C804   C855    1.524   .     S
C804   C818    1.412   .     A
C804   C934    1.407   1_455 S
C805   H835    1.083   .     S
C805   C815    1.404   .     A
C805   C809    1.390   .     A
C806   C810    1.390   .     A
C806   C816    1.404   .     A
C806   H836    1.083   .     S
C807   C811    1.390   .     A
C807   C816    1.404   .     A
C807   H837    1.083   .     S
C808   C815    1.403   .     A
C808   C812    1.390   .     A
C808   H838    1.083   .     S
C809   H839    1.083   .     S
C809   C813    1.402   .     A
C810   C814    1.402   .     A
C810   H840    1.083   .     S
C811   C814    1.402   .     A
C811   H841    1.083   .     S
C812   H842    1.083   .     S
C812   C813    1.402   .     A
C816   C221    1.469   1_556 S
Cu819  O825    1.954   .     S
Cu819  O829    1.955   .     S
Cu819  O823    1.954   .     S
Cu819  N821    2.014   .     S
Cu819  O827    1.956   .     S
Cu819  Cu820   2.680   .     S
Cu820  O830    1.955   .     S
Cu820  O826    1.954   .     S
Cu820  N822    2.014   .     S
Cu820  O828    1.956   .     S
Cu820  O824    1.954   .     S
C843   H845    1.110   .     S
C843   H846    1.110   .     S
C843   H844    1.106   .     S
C847   H849    1.110   .     S
C847   H848    1.106   .     S
C847   H850    1.110   .     S
C851   H852    1.110   .     S
C851   H853    1.111   .     S
C851   H854    1.105   .     S
C855   H857    1.105   .     S
C855   H858    1.111   .     S
C855   H856    1.110   .     S
C859   O892    1.287   .     A
C859   C884    1.444   .     S
C859   O889    1.287   .     A
C860   O891    1.287   .     A
C860   C883    1.444   .     S
C860   O890    1.287   .     A
C861   O893    1.294   .     A
C861   C879    1.459   .     S
C861   O896    1.294   .     A
C862   C880    1.459   .     S
C862   O895    1.294   .     A
C862   O894    1.294   .     A
C863   H897    1.082   .     S
C863   N888    1.367   .     A
C864   H898    1.082   .     S
C864   N887    1.367   .     A
C864   C1063   1.417   .     S
C865   H899    1.082   .     S
C865   N888    1.367   .     A
C866   N887    1.367   .     A
C866   H900    1.082   .     S
C866   C1061   1.417   .     S
C867   C909    1.521   .     S
C867   C884    1.414   .     A
C868   C913    1.521   .     S
C868   C883    1.414   .     A
C868   C936    1.407   .     S
C869   C917    1.524   .     S
C869   C883    1.412   .     A
C869   C933    1.407   .     S
C870   C921    1.524   .     S
C870   C884    1.412   .     A
C871   H901    1.083   .     S
C871   C881    1.404   .     A
C871   C875    1.390   .     A
C872   C876    1.390   .     A
C872   C882    1.404   .     A
C872   H902    1.083   .     S
C873   C877    1.390   .     A
C873   C882    1.404   .     A
C873   H903    1.083   .     S
C874   C881    1.403   .     A
C874   C878    1.390   .     A
C874   H904    1.083   .     S
C875   H905    1.083   .     S
C875   C879    1.402   .     A
C876   C880    1.402   .     A
C876   H906    1.083   .     S
C877   C880    1.402   .     A
C877   H907    1.083   .     S
C878   H908    1.083   .     S
C878   C879    1.402   .     A
C882   C287    1.469   1_556 S
Cu885  O891    1.954   .     S
Cu885  O895    1.955   .     S
Cu885  O889    1.954   .     S
Cu885  N887    2.014   .     S
Cu885  O893    1.956   .     S
Cu885  Cu886   2.680   .     S
Cu886  O896    1.955   .     S
Cu886  O892    1.954   .     S
Cu886  N888    2.014   .     S
Cu886  O894    1.956   .     S
Cu886  O890    1.954   .     S
C909   H911    1.110   .     S
C909   H912    1.110   .     S
C909   H910    1.106   .     S
C913   H915    1.110   .     S
C913   H914    1.106   .     S
C913   H916    1.110   .     S
C917   H918    1.110   .     S
C917   H919    1.111   .     S
C917   H920    1.105   .     S
C921   H923    1.105   .     S
C921   H924    1.111   .     S
C921   H922    1.110   .     S
C925   O958    1.287   .     A
C925   C950    1.444   .     S
C925   O955    1.287   .     A
C926   O957    1.287   .     A
C926   C949    1.444   .     S
C926   O956    1.287   .     A
C927   O959    1.294   .     A
C927   C945    1.459   .     S
C927   O962    1.294   .     A
C928   C946    1.459   .     S
C928   O961    1.294   .     A
C928   O960    1.294   .     A
C929   H963    1.082   .     S
C929   N954    1.367   .     A
C930   H964    1.082   .     S
C930   N953    1.367   .     A
C930   C1129   1.417   .     S
C931   H965    1.082   .     S
C931   N954    1.367   .     A
C932   N953    1.367   .     A
C932   H966    1.082   .     S
C932   C1127   1.417   .     S
C933   C975    1.521   .     S
C933   C950    1.414   .     A
C934   C979    1.521   .     S
C934   C949    1.414   .     A
C934   C804    1.407   1_655 S
C935   C983    1.524   .     S
C935   C949    1.412   .     A
C935   C801    1.407   1_655 S
C936   C987    1.524   .     S
C936   C950    1.412   .     A
C937   H967    1.083   .     S
C937   C947    1.404   .     A
C937   C941    1.390   .     A
C938   C942    1.390   .     A
C938   C948    1.404   .     A
C938   H968    1.083   .     S
C939   C943    1.390   .     A
C939   C948    1.404   .     A
C939   H969    1.083   .     S
C940   C947    1.403   .     A
C940   C944    1.390   .     A
C940   H970    1.083   .     S
C941   H971    1.083   .     S
C941   C945    1.402   .     A
C942   C946    1.402   .     A
C942   H972    1.083   .     S
C943   C946    1.402   .     A
C943   H973    1.083   .     S
C944   H974    1.083   .     S
C944   C945    1.402   .     A
C948   C353    1.469   1_556 S
Cu951  O957    1.954   .     S
Cu951  O961    1.955   .     S
Cu951  O955    1.954   .     S
Cu951  N953    2.014   .     S
Cu951  O959    1.956   .     S
Cu951  Cu952   2.680   .     S
Cu952  O962    1.955   .     S
Cu952  O958    1.954   .     S
Cu952  N954    2.014   .     S
Cu952  O960    1.956   .     S
Cu952  O956    1.954   .     S
C975   H977    1.110   .     S
C975   H978    1.110   .     S
C975   H976    1.106   .     S
C979   H981    1.110   .     S
C979   H980    1.106   .     S
C979   H982    1.110   .     S
C983   H984    1.110   .     S
C983   H985    1.111   .     S
C983   H986    1.105   .     S
C987   H989    1.105   .     S
C987   H990    1.111   .     S
C987   H988    1.110   .     S
C991   O1024   1.287   .     A
C991   C1016   1.444   .     S
C991   O1021   1.287   .     A
C992   O1023   1.287   .     A
C992   C1015   1.444   .     S
C992   O1022   1.287   .     A
C993   O1025   1.294   .     A
C993   C1011   1.459   .     S
C993   O1028   1.294   .     A
C994   C1012   1.459   .     S
C994   O1027   1.294   .     A
C994   O1026   1.294   .     A
C995   H1029   1.082   .     S
C995   N1020   1.367   .     A
C996   H1030   1.082   .     S
C996   N1019   1.367   .     A
C996   C601    1.417   1_565 S
C997   H1031   1.082   .     S
C997   N1020   1.367   .     A
C998   N1019   1.367   .     A
C998   H1032   1.082   .     S
C998   C599    1.417   1_565 S
C999   C1041   1.521   .     S
C999   C1016   1.414   .     A
C999   C1133   1.407   1_455 S
C1000  C1045   1.521   .     S
C1000  C1015   1.414   .     A
C1000  C1068   1.407   .     S
C1001  C1049   1.524   .     S
C1001  C1015   1.412   .     A
C1001  C1065   1.407   .     S
C1002  C1053   1.524   .     S
C1002  C1016   1.412   .     A
C1002  C1132   1.407   1_455 S
C1003  H1033   1.083   .     S
C1003  C1013   1.404   .     A
C1003  C1007   1.390   .     A
C1004  C1008   1.390   .     A
C1004  C1014   1.404   .     A
C1004  H1034   1.083   .     S
C1005  C1009   1.390   .     A
C1005  C1014   1.404   .     A
C1005  H1035   1.083   .     S
C1006  C1013   1.403   .     A
C1006  C1010   1.390   .     A
C1006  H1036   1.083   .     S
C1007  H1037   1.083   .     S
C1007  C1011   1.402   .     A
C1008  C1012   1.402   .     A
C1008  H1038   1.083   .     S
C1009  C1012   1.402   .     A
C1009  H1039   1.083   .     S
C1010  H1040   1.083   .     S
C1010  C1011   1.402   .     A
C1014  C419    1.469   1_556 S
Cu1017 O1023   1.954   .     S
Cu1017 O1027   1.955   .     S
Cu1017 O1021   1.954   .     S
Cu1017 N1019   2.014   .     S
Cu1017 O1025   1.956   .     S
Cu1017 Cu1018  2.680   .     S
Cu1018 O1028   1.955   .     S
Cu1018 O1024   1.954   .     S
Cu1018 N1020   2.014   .     S
Cu1018 O1026   1.956   .     S
Cu1018 O1022   1.954   .     S
C1041  H1043   1.110   .     S
C1041  H1044   1.110   .     S
C1041  H1042   1.106   .     S
C1045  H1047   1.110   .     S
C1045  H1046   1.106   .     S
C1045  H1048   1.110   .     S
C1049  H1050   1.110   .     S
C1049  H1051   1.111   .     S
C1049  H1052   1.105   .     S
C1053  H1055   1.105   .     S
C1053  H1056   1.111   .     S
C1053  H1054   1.110   .     S
C1057  O1090   1.287   .     A
C1057  C1082   1.444   .     S
C1057  O1087   1.287   .     A
C1058  O1089   1.287   .     A
C1058  C1081   1.444   .     S
C1058  O1088   1.287   .     A
C1059  O1091   1.294   .     A
C1059  C1077   1.459   .     S
C1059  O1094   1.294   .     A
C1060  C1078   1.459   .     S
C1060  O1093   1.294   .     A
C1060  O1092   1.294   .     A
C1061  H1095   1.082   .     S
C1061  N1086   1.367   .     A
C1062  H1096   1.082   .     S
C1062  N1085   1.367   .     A
C1062  C667    1.417   1_565 S
C1063  H1097   1.082   .     S
C1063  N1086   1.367   .     A
C1064  N1085   1.367   .     A
C1064  H1098   1.082   .     S
C1064  C665    1.417   1_565 S
C1065  C1107   1.521   .     S
C1065  C1082   1.414   .     A
C1066  C1111   1.521   .     S
C1066  C1081   1.414   .     A
C1066  C1134   1.407   .     S
C1067  C1115   1.524   .     S
C1067  C1081   1.412   .     A
C1067  C1131   1.407   .     S
C1068  C1119   1.524   .     S
C1068  C1082   1.412   .     A
C1069  H1099   1.083   .     S
C1069  C1079   1.404   .     A
C1069  C1073   1.390   .     A
C1070  C1074   1.390   .     A
C1070  C1080   1.404   .     A
C1070  H1100   1.083   .     S
C1071  C1075   1.390   .     A
C1071  C1080   1.404   .     A
C1071  H1101   1.083   .     S
C1072  C1079   1.403   .     A
C1072  C1076   1.390   .     A
C1072  H1102   1.083   .     S
C1073  H1103   1.083   .     S
C1073  C1077   1.402   .     A
C1074  C1078   1.402   .     A
C1074  H1104   1.083   .     S
C1075  C1078   1.402   .     A
C1075  H1105   1.083   .     S
C1076  H1106   1.083   .     S
C1076  C1077   1.402   .     A
C1080  C485    1.469   1_556 S
Cu1083 O1089   1.954   .     S
Cu1083 O1093   1.955   .     S
Cu1083 O1087   1.954   .     S
Cu1083 N1085   2.014   .     S
Cu1083 O1091   1.956   .     S
Cu1083 Cu1084  2.680   .     S
Cu1084 O1094   1.955   .     S
Cu1084 O1090   1.954   .     S
Cu1084 N1086   2.014   .     S
Cu1084 O1092   1.956   .     S
Cu1084 O1088   1.954   .     S
C1107  H1109   1.110   .     S
C1107  H1110   1.110   .     S
C1107  H1108   1.106   .     S
C1111  H1113   1.110   .     S
C1111  H1112   1.106   .     S
C1111  H1114   1.110   .     S
C1115  H1116   1.110   .     S
C1115  H1117   1.111   .     S
C1115  H1118   1.105   .     S
C1119  H1121   1.105   .     S
C1119  H1122   1.111   .     S
C1119  H1120   1.110   .     S
C1123  O1156   1.287   .     A
C1123  C1148   1.444   .     S
C1123  O1153   1.287   .     A
C1124  O1155   1.287   .     A
C1124  C1147   1.444   .     S
C1124  O1154   1.287   .     A
C1125  O1157   1.294   .     A
C1125  C1143   1.459   .     S
C1125  O1160   1.294   .     A
C1126  C1144   1.459   .     S
C1126  O1159   1.294   .     A
C1126  O1158   1.294   .     A
C1127  H1161   1.082   .     S
C1127  N1152   1.367   .     A
C1128  H1162   1.082   .     S
C1128  N1151   1.367   .     A
C1128  C733    1.417   1_565 S
C1129  H1163   1.082   .     S
C1129  N1152   1.367   .     A
C1130  N1151   1.367   .     A
C1130  H1164   1.082   .     S
C1130  C731    1.417   1_565 S
C1131  C1173   1.521   .     S
C1131  C1148   1.414   .     A
C1132  C1177   1.521   .     S
C1132  C1147   1.414   .     A
C1132  C1002   1.407   1_655 S
C1133  C1181   1.524   .     S
C1133  C1147   1.412   .     A
C1133  C999    1.407   1_655 S
C1134  C1185   1.524   .     S
C1134  C1148   1.412   .     A
C1135  H1165   1.083   .     S
C1135  C1145   1.404   .     A
C1135  C1139   1.390   .     A
C1136  C1140   1.390   .     A
C1136  C1146   1.404   .     A
C1136  H1166   1.083   .     S
C1137  C1141   1.390   .     A
C1137  C1146   1.404   .     A
C1137  H1167   1.083   .     S
C1138  C1145   1.403   .     A
C1138  C1142   1.390   .     A
C1138  H1168   1.083   .     S
C1139  H1169   1.083   .     S
C1139  C1143   1.402   .     A
C1140  C1144   1.402   .     A
C1140  H1170   1.083   .     S
C1141  C1144   1.402   .     A
C1141  H1171   1.083   .     S
C1142  H1172   1.083   .     S
C1142  C1143   1.402   .     A
C1146  C551    1.469   1_556 S
Cu1149 O1155   1.954   .     S
Cu1149 O1159   1.955   .     S
Cu1149 O1153   1.954   .     S
Cu1149 N1151   2.014   .     S
Cu1149 O1157   1.956   .     S
Cu1149 Cu1150  2.680   .     S
Cu1150 O1160   1.955   .     S
Cu1150 O1156   1.954   .     S
Cu1150 N1152   2.014   .     S
Cu1150 O1158   1.956   .     S
Cu1150 O1154   1.954   .     S
C1173  H1175   1.110   .     S
C1173  H1176   1.110   .     S
C1173  H1174   1.106   .     S
C1177  H1179   1.110   .     S
C1177  H1178   1.106   .     S
C1177  H1180   1.110   .     S
C1181  H1182   1.110   .     S
C1181  H1183   1.111   .     S
C1181  H1184   1.105   .     S
C1185  H1187   1.105   .     S
C1185  H1188   1.111   .     S
C1185  H1186   1.110   .     S
