data_str_m3_o1_o5_pcu_sym.14
_audit_creation_date              2020-01-03
_audit_creation_method            'Materials Studio'
_symmetry_space_group_name_H-M    'P1'
_symmetry_Int_Tables_number       1
_symmetry_cell_setting            triclinic
loop_
_symmetry_equiv_pos_as_xyz
  x,y,z
_cell_length_a                    32.1140
_cell_length_b                    29.6799
_cell_length_c                    26.6833
_cell_angle_alpha                 89.9690
_cell_angle_beta                  90.8282
_cell_angle_gamma                 90.9646
loop_
_atom_site_label
_atom_site_type_symbol
_atom_site_fract_x
_atom_site_fract_y
_atom_site_fract_z
_atom_site_U_iso_or_equiv
_atom_site_adp_type
_atom_site_occupancy
C1     C     0.08666   0.16624   0.16766   0.00000  Uiso   1.00
C2     C     0.02215   0.19923   0.19629   0.00000  Uiso   1.00
C3     C     0.29051   0.16746   0.16680   0.00000  Uiso   1.00
C4     C     0.04235   0.16532   0.16955   0.00000  Uiso   1.00
C5     C     0.18805   0.02455   0.20290   0.00000  Uiso   1.00
C6     C     0.14584   0.30880   0.12997   0.00000  Uiso   1.00
C7     C     0.14656   0.02371   0.12936   0.00000  Uiso   1.00
C8     C     0.18821   0.30962   0.20277   0.00000  Uiso   1.00
C9     C     0.03297   0.05700   0.15506   0.00000  Uiso   1.00
C10    C     0.28719   0.20398   0.27683   0.00000  Uiso   1.00
C11    C     0.28530   0.12552   0.05903   0.00000  Uiso   1.00
C12    C     0.24649   0.16700   0.16662   0.00000  Uiso   1.00
C13    C     0.04161   0.27318   0.20471   0.00000  Uiso   1.00
C14    C     0.16671   0.16667   0.07293   0.00000  Uiso   1.00
C15    C     0.16685   0.16666   0.26040   0.00000  Uiso   1.00
C16    C     0.16688   0.16668   0.02182   0.00000  Uiso   1.00
C17    C     0.16693   0.16666   0.31152   0.00000  Uiso   1.00
C18    C     0.01989   0.13106   0.14406   0.00000  Uiso   1.00
C19    C     0.31235   0.19766   0.19826   0.00000  Uiso   1.00
C20    C     0.31076   0.13544   0.13793   0.00000  Uiso   1.00
H21    H     0.04964   0.06201   0.19154   0.00000  Uiso   1.00
H22    H     0.04680   0.27323   0.16354   0.00000  Uiso   1.00
H23    H     0.01102   0.28815   0.21302   0.00000  Uiso   1.00
H24    H     0.06608   0.29523   0.22200   0.00000  Uiso   1.00
H25    H     0.24258   0.04161   0.23755   0.00000  Uiso   1.00
H26    H     0.20052   0.04023   0.27549   0.00000  Uiso   1.00
H27    H     0.09226   0.29258   0.09280   0.00000  Uiso   1.00
H28    H     0.13557   0.29260   0.05709   0.00000  Uiso   1.00
H29    H     0.09747   0.03695   0.08291   0.00000  Uiso   1.00
H30    H     0.14455   0.03991   0.05594   0.00000  Uiso   1.00
H31    H     0.24238   0.29605   0.23872   0.00000  Uiso   1.00
H32    H     0.33269   0.04976   0.16161   0.00000  Uiso   1.00
H33    H     0.19964   0.29358   0.27528   0.00000  Uiso   1.00
H34    H     0.04551   0.02649   0.13733   0.00000  Uiso   1.00
H35    H     0.31803   0.19712   0.29452   0.00000  Uiso   1.00
H36    H     0.27020   0.22639   0.30242   0.00000  Uiso   1.00
H37    H     0.26857   0.17217   0.27300   0.00000  Uiso   1.00
H38    H     0.26786   0.15760   0.06031   0.00000  Uiso   1.00
H39    H     0.26751   0.10203   0.03411   0.00000  Uiso   1.00
H40    H     0.31645   0.13134   0.04221   0.00000  Uiso   1.00
N41    N     0.16667   0.28573   0.16667   0.00000  Uiso   1.00
N42    N     0.16667   0.04760   0.16667   0.00000  Uiso   1.00
N43    N     0.21112   0.04961   0.24008   0.00000  Uiso   1.00
N44    N     0.12360   0.28380   0.09203   0.00000  Uiso   1.00
N45    N     0.12824   0.04774   0.08833   0.00000  Uiso   1.00
N46    N     0.21122   0.28551   0.24006   0.00000  Uiso   1.00
O47    O     0.10559   0.20487   0.16666   0.00000  Uiso   1.00
O48    O     0.29164   0.22596   0.23026   0.00000  Uiso   1.00
O49    O     0.28884   0.10577   0.10694   0.00000  Uiso   1.00
O50    O     0.04481   0.22967   0.22571   0.00000  Uiso   1.00
O51    O     0.22774   0.12846   0.16667   0.00000  Uiso   1.00
O52    O     0.22774   0.20487   0.16667   0.00000  Uiso   1.00
O53    O     0.10559   0.12846   0.16666   0.00000  Uiso   1.00
O54    O     0.16667   0.20488   0.09511   0.00000  Uiso   1.00
O55    O     0.16666   0.12845   0.23822   0.00000  Uiso   1.00
O56    O     0.16666   0.20488   0.23822   0.00000  Uiso   1.00
O57    O     0.16667   0.12845   0.09511   0.00000  Uiso   1.00
O58    O     0.03932   0.09448   0.12307   0.00000  Uiso   1.00
Zn59   Zn    0.16667   0.21771   0.16667   0.00000  Uiso   1.00
Zn60   Zn    0.16667   0.11563   0.16667   0.00000  Uiso   1.00
C61    C     0.42000   0.16624   0.16766   0.00000  Uiso   1.00
C62    C     0.35549   0.19923   0.19629   0.00000  Uiso   1.00
C63    C     0.62384   0.16746   0.16680   0.00000  Uiso   1.00
C64    C     0.37568   0.16532   0.16955   0.00000  Uiso   1.00
C65    C     0.52139   0.02455   0.20290   0.00000  Uiso   1.00
C66    C     0.47917   0.30880   0.12997   0.00000  Uiso   1.00
C67    C     0.47989   0.02371   0.12936   0.00000  Uiso   1.00
C68    C     0.52154   0.30962   0.20277   0.00000  Uiso   1.00
C69    C     0.36630   0.05700   0.15506   0.00000  Uiso   1.00
C70    C     0.62052   0.20398   0.27683   0.00000  Uiso   1.00
C71    C     0.61863   0.12552   0.05903   0.00000  Uiso   1.00
C72    C     0.57982   0.16700   0.16662   0.00000  Uiso   1.00
C73    C     0.37495   0.27318   0.20471   0.00000  Uiso   1.00
C74    C     0.50005   0.16667   0.07293   0.00000  Uiso   1.00
C75    C     0.50018   0.16666   0.26040   0.00000  Uiso   1.00
C76    C     0.50022   0.16668   0.02182   0.00000  Uiso   1.00
C77    C     0.50027   0.16666   0.31152   0.00000  Uiso   1.00
C78    C     0.35323   0.13106   0.14406   0.00000  Uiso   1.00
C79    C     0.64568   0.19766   0.19826   0.00000  Uiso   1.00
C80    C     0.64410   0.13544   0.13793   0.00000  Uiso   1.00
H81    H     0.38298   0.06201   0.19154   0.00000  Uiso   1.00
H82    H     0.38014   0.27323   0.16354   0.00000  Uiso   1.00
H83    H     0.34435   0.28815   0.21302   0.00000  Uiso   1.00
H84    H     0.39942   0.29523   0.22200   0.00000  Uiso   1.00
H85    H     0.57592   0.04161   0.23755   0.00000  Uiso   1.00
H86    H     0.53385   0.04023   0.27549   0.00000  Uiso   1.00
H87    H     0.42559   0.29258   0.09280   0.00000  Uiso   1.00
H88    H     0.46890   0.29260   0.05709   0.00000  Uiso   1.00
H89    H     0.43080   0.03695   0.08291   0.00000  Uiso   1.00
H90    H     0.47789   0.03991   0.05594   0.00000  Uiso   1.00
H91    H     0.57572   0.29605   0.23872   0.00000  Uiso   1.00
H92    H     0.66602   0.04976   0.16161   0.00000  Uiso   1.00
H93    H     0.53297   0.29358   0.27528   0.00000  Uiso   1.00
H94    H     0.37884   0.02649   0.13733   0.00000  Uiso   1.00
H95    H     0.65136   0.19712   0.29452   0.00000  Uiso   1.00
H96    H     0.60354   0.22639   0.30242   0.00000  Uiso   1.00
H97    H     0.60191   0.17217   0.27300   0.00000  Uiso   1.00
H98    H     0.60120   0.15760   0.06031   0.00000  Uiso   1.00
H99    H     0.60084   0.10203   0.03411   0.00000  Uiso   1.00
H100   H     0.64979   0.13134   0.04221   0.00000  Uiso   1.00
N101   N     0.50000   0.28573   0.16667   0.00000  Uiso   1.00
N102   N     0.50000   0.04760   0.16667   0.00000  Uiso   1.00
N103   N     0.54446   0.04961   0.24008   0.00000  Uiso   1.00
N104   N     0.45694   0.28380   0.09203   0.00000  Uiso   1.00
N105   N     0.46157   0.04774   0.08833   0.00000  Uiso   1.00
N106   N     0.54456   0.28551   0.24006   0.00000  Uiso   1.00
O107   O     0.43892   0.20487   0.16666   0.00000  Uiso   1.00
O108   O     0.62497   0.22596   0.23026   0.00000  Uiso   1.00
O109   O     0.62218   0.10577   0.10694   0.00000  Uiso   1.00
O110   O     0.37814   0.22967   0.22571   0.00000  Uiso   1.00
O111   O     0.56108   0.12846   0.16667   0.00000  Uiso   1.00
O112   O     0.56108   0.20487   0.16667   0.00000  Uiso   1.00
O113   O     0.43892   0.12846   0.16666   0.00000  Uiso   1.00
O114   O     0.50000   0.20488   0.09511   0.00000  Uiso   1.00
O115   O     0.50000   0.12845   0.23822   0.00000  Uiso   1.00
O116   O     0.50000   0.20488   0.23822   0.00000  Uiso   1.00
O117   O     0.50000   0.12845   0.09511   0.00000  Uiso   1.00
O118   O     0.37265   0.09448   0.12307   0.00000  Uiso   1.00
Zn119  Zn    0.50000   0.21771   0.16667   0.00000  Uiso   1.00
Zn120  Zn    0.50000   0.11563   0.16667   0.00000  Uiso   1.00
C121   C     0.75333   0.16624   0.16766   0.00000  Uiso   1.00
C122   C     0.68882   0.19923   0.19629   0.00000  Uiso   1.00
C123   C     0.95717   0.16746   0.16680   0.00000  Uiso   1.00
C124   C     0.70901   0.16532   0.16955   0.00000  Uiso   1.00
C125   C     0.85472   0.02455   0.20290   0.00000  Uiso   1.00
C126   C     0.81251   0.30880   0.12997   0.00000  Uiso   1.00
C127   C     0.81322   0.02371   0.12936   0.00000  Uiso   1.00
C128   C     0.85487   0.30962   0.20277   0.00000  Uiso   1.00
C129   C     0.69963   0.05700   0.15506   0.00000  Uiso   1.00
C130   C     0.95386   0.20398   0.27683   0.00000  Uiso   1.00
C131   C     0.95196   0.12552   0.05903   0.00000  Uiso   1.00
C132   C     0.91315   0.16700   0.16662   0.00000  Uiso   1.00
C133   C     0.70828   0.27318   0.20471   0.00000  Uiso   1.00
C134   C     0.83338   0.16667   0.07293   0.00000  Uiso   1.00
C135   C     0.83351   0.16666   0.26040   0.00000  Uiso   1.00
C136   C     0.83355   0.16668   0.02182   0.00000  Uiso   1.00
C137   C     0.83360   0.16666   0.31152   0.00000  Uiso   1.00
C138   C     0.68656   0.13106   0.14406   0.00000  Uiso   1.00
C139   C     0.97901   0.19766   0.19826   0.00000  Uiso   1.00
C140   C     0.97743   0.13544   0.13793   0.00000  Uiso   1.00
H141   H     0.71631   0.06201   0.19154   0.00000  Uiso   1.00
H142   H     0.71347   0.27323   0.16354   0.00000  Uiso   1.00
H143   H     0.67769   0.28815   0.21302   0.00000  Uiso   1.00
H144   H     0.73275   0.29523   0.22200   0.00000  Uiso   1.00
H145   H     0.90925   0.04161   0.23755   0.00000  Uiso   1.00
H146   H     0.86719   0.04023   0.27549   0.00000  Uiso   1.00
H147   H     0.75893   0.29258   0.09280   0.00000  Uiso   1.00
H148   H     0.80224   0.29260   0.05709   0.00000  Uiso   1.00
H149   H     0.76413   0.03695   0.08291   0.00000  Uiso   1.00
H150   H     0.81122   0.03991   0.05594   0.00000  Uiso   1.00
H151   H     0.90905   0.29605   0.23872   0.00000  Uiso   1.00
H152   H     0.99935   0.04976   0.16161   0.00000  Uiso   1.00
H153   H     0.86631   0.29358   0.27528   0.00000  Uiso   1.00
H154   H     0.71217   0.02649   0.13733   0.00000  Uiso   1.00
H155   H     0.98469   0.19712   0.29452   0.00000  Uiso   1.00
H156   H     0.93687   0.22639   0.30242   0.00000  Uiso   1.00
H157   H     0.93524   0.17217   0.27300   0.00000  Uiso   1.00
H158   H     0.93453   0.15760   0.06031   0.00000  Uiso   1.00
H159   H     0.93417   0.10203   0.03411   0.00000  Uiso   1.00
H160   H     0.98312   0.13134   0.04221   0.00000  Uiso   1.00
N161   N     0.83333   0.28573   0.16667   0.00000  Uiso   1.00
N162   N     0.83333   0.04760   0.16667   0.00000  Uiso   1.00
N163   N     0.87779   0.04961   0.24008   0.00000  Uiso   1.00
N164   N     0.79027   0.28380   0.09203   0.00000  Uiso   1.00
N165   N     0.79490   0.04774   0.08833   0.00000  Uiso   1.00
N166   N     0.87789   0.28551   0.24006   0.00000  Uiso   1.00
O167   O     0.77226   0.20487   0.16666   0.00000  Uiso   1.00
O168   O     0.95830   0.22596   0.23026   0.00000  Uiso   1.00
O169   O     0.95551   0.10577   0.10694   0.00000  Uiso   1.00
O170   O     0.71148   0.22967   0.22571   0.00000  Uiso   1.00
O171   O     0.89441   0.12846   0.16667   0.00000  Uiso   1.00
O172   O     0.89441   0.20487   0.16667   0.00000  Uiso   1.00
O173   O     0.77226   0.12846   0.16666   0.00000  Uiso   1.00
O174   O     0.83334   0.20488   0.09511   0.00000  Uiso   1.00
O175   O     0.83333   0.12845   0.23822   0.00000  Uiso   1.00
O176   O     0.83333   0.20488   0.23822   0.00000  Uiso   1.00
O177   O     0.83334   0.12845   0.09511   0.00000  Uiso   1.00
O178   O     0.70598   0.09448   0.12307   0.00000  Uiso   1.00
Zn179  Zn    0.83333   0.21771   0.16667   0.00000  Uiso   1.00
Zn180  Zn    0.83333   0.11563   0.16667   0.00000  Uiso   1.00
C181   C     0.08666   0.49958   0.16766   0.00000  Uiso   1.00
C182   C     0.02215   0.53257   0.19629   0.00000  Uiso   1.00
C183   C     0.29051   0.50079   0.16680   0.00000  Uiso   1.00
C184   C     0.04235   0.49865   0.16955   0.00000  Uiso   1.00
C185   C     0.18805   0.35788   0.20290   0.00000  Uiso   1.00
C186   C     0.14584   0.64213   0.12997   0.00000  Uiso   1.00
C187   C     0.14656   0.35704   0.12936   0.00000  Uiso   1.00
C188   C     0.18821   0.64295   0.20277   0.00000  Uiso   1.00
C189   C     0.03297   0.39033   0.15506   0.00000  Uiso   1.00
C190   C     0.28719   0.53732   0.27683   0.00000  Uiso   1.00
C191   C     0.28530   0.45885   0.05903   0.00000  Uiso   1.00
C192   C     0.24649   0.50033   0.16662   0.00000  Uiso   1.00
C193   C     0.04161   0.60652   0.20471   0.00000  Uiso   1.00
C194   C     0.16671   0.50001   0.07293   0.00000  Uiso   1.00
C195   C     0.16685   0.50000   0.26040   0.00000  Uiso   1.00
C196   C     0.16688   0.50001   0.02182   0.00000  Uiso   1.00
C197   C     0.16693   0.49999   0.31152   0.00000  Uiso   1.00
C198   C     0.01989   0.46439   0.14406   0.00000  Uiso   1.00
C199   C     0.31235   0.53099   0.19826   0.00000  Uiso   1.00
C200   C     0.31076   0.46878   0.13793   0.00000  Uiso   1.00
H201   H     0.04964   0.39534   0.19154   0.00000  Uiso   1.00
H202   H     0.04680   0.60657   0.16354   0.00000  Uiso   1.00
H203   H     0.01102   0.62148   0.21302   0.00000  Uiso   1.00
H204   H     0.06608   0.62856   0.22200   0.00000  Uiso   1.00
H205   H     0.24258   0.37494   0.23755   0.00000  Uiso   1.00
H206   H     0.20052   0.37356   0.27549   0.00000  Uiso   1.00
H207   H     0.09226   0.62591   0.09280   0.00000  Uiso   1.00
H208   H     0.13557   0.62594   0.05709   0.00000  Uiso   1.00
H209   H     0.09747   0.37028   0.08291   0.00000  Uiso   1.00
H210   H     0.14455   0.37325   0.05594   0.00000  Uiso   1.00
H211   H     0.24238   0.62938   0.23872   0.00000  Uiso   1.00
H212   H     0.33269   0.38309   0.16161   0.00000  Uiso   1.00
H213   H     0.19964   0.62692   0.27528   0.00000  Uiso   1.00
H214   H     0.04551   0.35982   0.13733   0.00000  Uiso   1.00
H215   H     0.31803   0.53045   0.29452   0.00000  Uiso   1.00
H216   H     0.27020   0.55973   0.30242   0.00000  Uiso   1.00
H217   H     0.26857   0.50550   0.27300   0.00000  Uiso   1.00
H218   H     0.26786   0.49094   0.06031   0.00000  Uiso   1.00
H219   H     0.26751   0.43536   0.03411   0.00000  Uiso   1.00
H220   H     0.31645   0.46467   0.04221   0.00000  Uiso   1.00
N221   N     0.16667   0.61907   0.16667   0.00000  Uiso   1.00
N222   N     0.16667   0.38093   0.16667   0.00000  Uiso   1.00
N223   N     0.21112   0.38295   0.24008   0.00000  Uiso   1.00
N224   N     0.12360   0.61713   0.09203   0.00000  Uiso   1.00
N225   N     0.12824   0.38107   0.08833   0.00000  Uiso   1.00
N226   N     0.21122   0.61884   0.24006   0.00000  Uiso   1.00
O227   O     0.10559   0.53821   0.16666   0.00000  Uiso   1.00
O228   O     0.29164   0.55929   0.23026   0.00000  Uiso   1.00
O229   O     0.28884   0.43910   0.10694   0.00000  Uiso   1.00
O230   O     0.04481   0.56300   0.22571   0.00000  Uiso   1.00
O231   O     0.22774   0.46179   0.16667   0.00000  Uiso   1.00
O232   O     0.22774   0.53821   0.16667   0.00000  Uiso   1.00
O233   O     0.10559   0.46179   0.16666   0.00000  Uiso   1.00
O234   O     0.16667   0.53821   0.09511   0.00000  Uiso   1.00
O235   O     0.16666   0.46179   0.23822   0.00000  Uiso   1.00
O236   O     0.16666   0.53821   0.23822   0.00000  Uiso   1.00
O237   O     0.16667   0.46179   0.09511   0.00000  Uiso   1.00
O238   O     0.03932   0.42781   0.12307   0.00000  Uiso   1.00
Zn239  Zn    0.16667   0.55104   0.16667   0.00000  Uiso   1.00
Zn240  Zn    0.16667   0.44896   0.16667   0.00000  Uiso   1.00
C241   C     0.42000   0.49958   0.16766   0.00000  Uiso   1.00
C242   C     0.35549   0.53257   0.19629   0.00000  Uiso   1.00
C243   C     0.62384   0.50079   0.16680   0.00000  Uiso   1.00
C244   C     0.37568   0.49865   0.16955   0.00000  Uiso   1.00
C245   C     0.52139   0.35788   0.20290   0.00000  Uiso   1.00
C246   C     0.47917   0.64213   0.12997   0.00000  Uiso   1.00
C247   C     0.47989   0.35704   0.12936   0.00000  Uiso   1.00
C248   C     0.52154   0.64295   0.20277   0.00000  Uiso   1.00
C249   C     0.36630   0.39033   0.15506   0.00000  Uiso   1.00
C250   C     0.62052   0.53732   0.27683   0.00000  Uiso   1.00
C251   C     0.61863   0.45885   0.05903   0.00000  Uiso   1.00
C252   C     0.57982   0.50033   0.16662   0.00000  Uiso   1.00
C253   C     0.37495   0.60652   0.20471   0.00000  Uiso   1.00
C254   C     0.50005   0.50001   0.07293   0.00000  Uiso   1.00
C255   C     0.50018   0.50000   0.26040   0.00000  Uiso   1.00
C256   C     0.50022   0.50001   0.02182   0.00000  Uiso   1.00
C257   C     0.50027   0.49999   0.31152   0.00000  Uiso   1.00
C258   C     0.35323   0.46439   0.14406   0.00000  Uiso   1.00
C259   C     0.64568   0.53099   0.19826   0.00000  Uiso   1.00
C260   C     0.64410   0.46878   0.13793   0.00000  Uiso   1.00
H261   H     0.38298   0.39534   0.19154   0.00000  Uiso   1.00
H262   H     0.38014   0.60657   0.16354   0.00000  Uiso   1.00
H263   H     0.34435   0.62148   0.21302   0.00000  Uiso   1.00
H264   H     0.39942   0.62856   0.22200   0.00000  Uiso   1.00
H265   H     0.57592   0.37494   0.23755   0.00000  Uiso   1.00
H266   H     0.53385   0.37356   0.27549   0.00000  Uiso   1.00
H267   H     0.42559   0.62591   0.09280   0.00000  Uiso   1.00
H268   H     0.46890   0.62594   0.05709   0.00000  Uiso   1.00
H269   H     0.43080   0.37028   0.08291   0.00000  Uiso   1.00
H270   H     0.47789   0.37325   0.05594   0.00000  Uiso   1.00
H271   H     0.57572   0.62938   0.23872   0.00000  Uiso   1.00
H272   H     0.66602   0.38309   0.16161   0.00000  Uiso   1.00
H273   H     0.53297   0.62692   0.27528   0.00000  Uiso   1.00
H274   H     0.37884   0.35982   0.13733   0.00000  Uiso   1.00
H275   H     0.65136   0.53045   0.29452   0.00000  Uiso   1.00
H276   H     0.60354   0.55973   0.30242   0.00000  Uiso   1.00
H277   H     0.60191   0.50550   0.27300   0.00000  Uiso   1.00
H278   H     0.60120   0.49094   0.06031   0.00000  Uiso   1.00
H279   H     0.60084   0.43536   0.03411   0.00000  Uiso   1.00
H280   H     0.64979   0.46467   0.04221   0.00000  Uiso   1.00
N281   N     0.50000   0.61907   0.16667   0.00000  Uiso   1.00
N282   N     0.50000   0.38093   0.16667   0.00000  Uiso   1.00
N283   N     0.54446   0.38295   0.24008   0.00000  Uiso   1.00
N284   N     0.45694   0.61713   0.09203   0.00000  Uiso   1.00
N285   N     0.46157   0.38107   0.08833   0.00000  Uiso   1.00
N286   N     0.54456   0.61884   0.24006   0.00000  Uiso   1.00
O287   O     0.43892   0.53821   0.16666   0.00000  Uiso   1.00
O288   O     0.62497   0.55929   0.23026   0.00000  Uiso   1.00
O289   O     0.62218   0.43910   0.10694   0.00000  Uiso   1.00
O290   O     0.37814   0.56300   0.22571   0.00000  Uiso   1.00
O291   O     0.56108   0.46179   0.16667   0.00000  Uiso   1.00
O292   O     0.56108   0.53821   0.16667   0.00000  Uiso   1.00
O293   O     0.43892   0.46179   0.16666   0.00000  Uiso   1.00
O294   O     0.50000   0.53821   0.09511   0.00000  Uiso   1.00
O295   O     0.50000   0.46179   0.23822   0.00000  Uiso   1.00
O296   O     0.50000   0.53821   0.23822   0.00000  Uiso   1.00
O297   O     0.50000   0.46179   0.09511   0.00000  Uiso   1.00
O298   O     0.37265   0.42781   0.12307   0.00000  Uiso   1.00
Zn299  Zn    0.50000   0.55104   0.16667   0.00000  Uiso   1.00
Zn300  Zn    0.50000   0.44896   0.16667   0.00000  Uiso   1.00
C301   C     0.75333   0.49958   0.16766   0.00000  Uiso   1.00
C302   C     0.68882   0.53257   0.19629   0.00000  Uiso   1.00
C303   C     0.95717   0.50079   0.16680   0.00000  Uiso   1.00
C304   C     0.70901   0.49865   0.16955   0.00000  Uiso   1.00
C305   C     0.85472   0.35788   0.20290   0.00000  Uiso   1.00
C306   C     0.81251   0.64213   0.12997   0.00000  Uiso   1.00
C307   C     0.81322   0.35704   0.12936   0.00000  Uiso   1.00
C308   C     0.85487   0.64295   0.20277   0.00000  Uiso   1.00
C309   C     0.69963   0.39033   0.15506   0.00000  Uiso   1.00
C310   C     0.95386   0.53732   0.27683   0.00000  Uiso   1.00
C311   C     0.95196   0.45885   0.05903   0.00000  Uiso   1.00
C312   C     0.91315   0.50033   0.16662   0.00000  Uiso   1.00
C313   C     0.70828   0.60652   0.20471   0.00000  Uiso   1.00
C314   C     0.83338   0.50001   0.07293   0.00000  Uiso   1.00
C315   C     0.83351   0.50000   0.26040   0.00000  Uiso   1.00
C316   C     0.83355   0.50001   0.02182   0.00000  Uiso   1.00
C317   C     0.83360   0.49999   0.31152   0.00000  Uiso   1.00
C318   C     0.68656   0.46439   0.14406   0.00000  Uiso   1.00
C319   C     0.97901   0.53099   0.19826   0.00000  Uiso   1.00
C320   C     0.97743   0.46878   0.13793   0.00000  Uiso   1.00
H321   H     0.71631   0.39534   0.19154   0.00000  Uiso   1.00
H322   H     0.71347   0.60657   0.16354   0.00000  Uiso   1.00
H323   H     0.67769   0.62148   0.21302   0.00000  Uiso   1.00
H324   H     0.73275   0.62856   0.22200   0.00000  Uiso   1.00
H325   H     0.90925   0.37494   0.23755   0.00000  Uiso   1.00
H326   H     0.86719   0.37356   0.27549   0.00000  Uiso   1.00
H327   H     0.75893   0.62591   0.09280   0.00000  Uiso   1.00
H328   H     0.80224   0.62594   0.05709   0.00000  Uiso   1.00
H329   H     0.76413   0.37028   0.08291   0.00000  Uiso   1.00
H330   H     0.81122   0.37325   0.05594   0.00000  Uiso   1.00
H331   H     0.90905   0.62938   0.23872   0.00000  Uiso   1.00
H332   H     0.99935   0.38309   0.16161   0.00000  Uiso   1.00
H333   H     0.86631   0.62692   0.27528   0.00000  Uiso   1.00
H334   H     0.71217   0.35982   0.13733   0.00000  Uiso   1.00
H335   H     0.98469   0.53045   0.29452   0.00000  Uiso   1.00
H336   H     0.93687   0.55973   0.30242   0.00000  Uiso   1.00
H337   H     0.93524   0.50550   0.27300   0.00000  Uiso   1.00
H338   H     0.93453   0.49094   0.06031   0.00000  Uiso   1.00
H339   H     0.93417   0.43536   0.03411   0.00000  Uiso   1.00
H340   H     0.98312   0.46467   0.04221   0.00000  Uiso   1.00
N341   N     0.83333   0.61907   0.16667   0.00000  Uiso   1.00
N342   N     0.83333   0.38093   0.16667   0.00000  Uiso   1.00
N343   N     0.87779   0.38295   0.24008   0.00000  Uiso   1.00
N344   N     0.79027   0.61713   0.09203   0.00000  Uiso   1.00
N345   N     0.79490   0.38107   0.08833   0.00000  Uiso   1.00
N346   N     0.87789   0.61884   0.24006   0.00000  Uiso   1.00
O347   O     0.77226   0.53821   0.16666   0.00000  Uiso   1.00
O348   O     0.95830   0.55929   0.23026   0.00000  Uiso   1.00
O349   O     0.95551   0.43910   0.10694   0.00000  Uiso   1.00
O350   O     0.71148   0.56300   0.22571   0.00000  Uiso   1.00
O351   O     0.89441   0.46179   0.16667   0.00000  Uiso   1.00
O352   O     0.89441   0.53821   0.16667   0.00000  Uiso   1.00
O353   O     0.77226   0.46179   0.16666   0.00000  Uiso   1.00
O354   O     0.83334   0.53821   0.09511   0.00000  Uiso   1.00
O355   O     0.83333   0.46179   0.23822   0.00000  Uiso   1.00
O356   O     0.83333   0.53821   0.23822   0.00000  Uiso   1.00
O357   O     0.83334   0.46179   0.09511   0.00000  Uiso   1.00
O358   O     0.70598   0.42781   0.12307   0.00000  Uiso   1.00
Zn359  Zn    0.83333   0.55104   0.16667   0.00000  Uiso   1.00
Zn360  Zn    0.83333   0.44896   0.16667   0.00000  Uiso   1.00
C361   C     0.08666   0.83291   0.16766   0.00000  Uiso   1.00
C362   C     0.02215   0.86590   0.19629   0.00000  Uiso   1.00
C363   C     0.29051   0.83412   0.16680   0.00000  Uiso   1.00
C364   C     0.04235   0.83198   0.16955   0.00000  Uiso   1.00
C365   C     0.18805   0.69122   0.20290   0.00000  Uiso   1.00
C366   C     0.14584   0.97546   0.12997   0.00000  Uiso   1.00
C367   C     0.14656   0.69037   0.12936   0.00000  Uiso   1.00
C368   C     0.18821   0.97629   0.20277   0.00000  Uiso   1.00
C369   C     0.03297   0.72366   0.15506   0.00000  Uiso   1.00
C370   C     0.28719   0.87065   0.27683   0.00000  Uiso   1.00
C371   C     0.28530   0.79219   0.05903   0.00000  Uiso   1.00
C372   C     0.24649   0.83366   0.16662   0.00000  Uiso   1.00
C373   C     0.04161   0.93985   0.20471   0.00000  Uiso   1.00
C374   C     0.16671   0.83334   0.07293   0.00000  Uiso   1.00
C375   C     0.16685   0.83333   0.26040   0.00000  Uiso   1.00
C376   C     0.16688   0.83335   0.02182   0.00000  Uiso   1.00
C377   C     0.16693   0.83333   0.31152   0.00000  Uiso   1.00
C378   C     0.01989   0.79773   0.14406   0.00000  Uiso   1.00
C379   C     0.31235   0.86432   0.19826   0.00000  Uiso   1.00
C380   C     0.31076   0.80211   0.13793   0.00000  Uiso   1.00
H381   H     0.04964   0.72867   0.19154   0.00000  Uiso   1.00
H382   H     0.04680   0.93990   0.16354   0.00000  Uiso   1.00
H383   H     0.01102   0.95481   0.21302   0.00000  Uiso   1.00
H384   H     0.06608   0.96190   0.22200   0.00000  Uiso   1.00
H385   H     0.24258   0.70827   0.23755   0.00000  Uiso   1.00
H386   H     0.20052   0.70689   0.27549   0.00000  Uiso   1.00
H387   H     0.09226   0.95924   0.09280   0.00000  Uiso   1.00
H388   H     0.13557   0.95927   0.05709   0.00000  Uiso   1.00
H389   H     0.09747   0.70361   0.08291   0.00000  Uiso   1.00
H390   H     0.14455   0.70658   0.05594   0.00000  Uiso   1.00
H391   H     0.24238   0.96271   0.23872   0.00000  Uiso   1.00
H392   H     0.33269   0.71642   0.16161   0.00000  Uiso   1.00
H393   H     0.19964   0.96025   0.27528   0.00000  Uiso   1.00
H394   H     0.04551   0.69315   0.13733   0.00000  Uiso   1.00
H395   H     0.31803   0.86378   0.29452   0.00000  Uiso   1.00
H396   H     0.27020   0.89306   0.30242   0.00000  Uiso   1.00
H397   H     0.26857   0.83883   0.27300   0.00000  Uiso   1.00
H398   H     0.26786   0.82427   0.06031   0.00000  Uiso   1.00
H399   H     0.26751   0.76869   0.03411   0.00000  Uiso   1.00
H400   H     0.31645   0.79801   0.04221   0.00000  Uiso   1.00
N401   N     0.16667   0.95240   0.16667   0.00000  Uiso   1.00
N402   N     0.16667   0.71427   0.16667   0.00000  Uiso   1.00
N403   N     0.21112   0.71628   0.24008   0.00000  Uiso   1.00
N404   N     0.12360   0.95047   0.09203   0.00000  Uiso   1.00
N405   N     0.12824   0.71441   0.08833   0.00000  Uiso   1.00
N406   N     0.21122   0.95217   0.24006   0.00000  Uiso   1.00
O407   O     0.10559   0.87154   0.16666   0.00000  Uiso   1.00
O408   O     0.29164   0.89262   0.23026   0.00000  Uiso   1.00
O409   O     0.28884   0.77244   0.10694   0.00000  Uiso   1.00
O410   O     0.04481   0.89633   0.22571   0.00000  Uiso   1.00
O411   O     0.22774   0.79513   0.16667   0.00000  Uiso   1.00
O412   O     0.22774   0.87154   0.16667   0.00000  Uiso   1.00
O413   O     0.10559   0.79513   0.16666   0.00000  Uiso   1.00
O414   O     0.16667   0.87155   0.09511   0.00000  Uiso   1.00
O415   O     0.16666   0.79512   0.23822   0.00000  Uiso   1.00
O416   O     0.16666   0.87155   0.23822   0.00000  Uiso   1.00
O417   O     0.16667   0.79512   0.09511   0.00000  Uiso   1.00
O418   O     0.03932   0.76114   0.12307   0.00000  Uiso   1.00
Zn419  Zn    0.16667   0.88437   0.16667   0.00000  Uiso   1.00
Zn420  Zn    0.16667   0.78229   0.16667   0.00000  Uiso   1.00
C421   C     0.42000   0.83291   0.16766   0.00000  Uiso   1.00
C422   C     0.35549   0.86590   0.19629   0.00000  Uiso   1.00
C423   C     0.62384   0.83412   0.16680   0.00000  Uiso   1.00
C424   C     0.37568   0.83198   0.16955   0.00000  Uiso   1.00
C425   C     0.52139   0.69122   0.20290   0.00000  Uiso   1.00
C426   C     0.47917   0.97546   0.12997   0.00000  Uiso   1.00
C427   C     0.47989   0.69037   0.12936   0.00000  Uiso   1.00
C428   C     0.52154   0.97629   0.20277   0.00000  Uiso   1.00
C429   C     0.36630   0.72366   0.15506   0.00000  Uiso   1.00
C430   C     0.62052   0.87065   0.27683   0.00000  Uiso   1.00
C431   C     0.61863   0.79219   0.05903   0.00000  Uiso   1.00
C432   C     0.57982   0.83366   0.16662   0.00000  Uiso   1.00
C433   C     0.37495   0.93985   0.20471   0.00000  Uiso   1.00
C434   C     0.50005   0.83334   0.07293   0.00000  Uiso   1.00
C435   C     0.50018   0.83333   0.26040   0.00000  Uiso   1.00
C436   C     0.50022   0.83335   0.02182   0.00000  Uiso   1.00
C437   C     0.50027   0.83333   0.31152   0.00000  Uiso   1.00
C438   C     0.35323   0.79773   0.14406   0.00000  Uiso   1.00
C439   C     0.64568   0.86432   0.19826   0.00000  Uiso   1.00
C440   C     0.64410   0.80211   0.13793   0.00000  Uiso   1.00
H441   H     0.38298   0.72867   0.19154   0.00000  Uiso   1.00
H442   H     0.38014   0.93990   0.16354   0.00000  Uiso   1.00
H443   H     0.34435   0.95481   0.21302   0.00000  Uiso   1.00
H444   H     0.39942   0.96190   0.22200   0.00000  Uiso   1.00
H445   H     0.57592   0.70827   0.23755   0.00000  Uiso   1.00
H446   H     0.53385   0.70689   0.27549   0.00000  Uiso   1.00
H447   H     0.42559   0.95924   0.09280   0.00000  Uiso   1.00
H448   H     0.46890   0.95927   0.05709   0.00000  Uiso   1.00
H449   H     0.43080   0.70361   0.08291   0.00000  Uiso   1.00
H450   H     0.47789   0.70658   0.05594   0.00000  Uiso   1.00
H451   H     0.57572   0.96271   0.23872   0.00000  Uiso   1.00
H452   H     0.66602   0.71642   0.16161   0.00000  Uiso   1.00
H453   H     0.53297   0.96025   0.27528   0.00000  Uiso   1.00
H454   H     0.37884   0.69315   0.13733   0.00000  Uiso   1.00
H455   H     0.65136   0.86378   0.29452   0.00000  Uiso   1.00
H456   H     0.60354   0.89306   0.30242   0.00000  Uiso   1.00
H457   H     0.60191   0.83883   0.27300   0.00000  Uiso   1.00
H458   H     0.60120   0.82427   0.06031   0.00000  Uiso   1.00
H459   H     0.60084   0.76869   0.03411   0.00000  Uiso   1.00
H460   H     0.64979   0.79801   0.04221   0.00000  Uiso   1.00
N461   N     0.50000   0.95240   0.16667   0.00000  Uiso   1.00
N462   N     0.50000   0.71427   0.16667   0.00000  Uiso   1.00
N463   N     0.54446   0.71628   0.24008   0.00000  Uiso   1.00
N464   N     0.45694   0.95047   0.09203   0.00000  Uiso   1.00
N465   N     0.46157   0.71441   0.08833   0.00000  Uiso   1.00
N466   N     0.54456   0.95217   0.24006   0.00000  Uiso   1.00
O467   O     0.43892   0.87154   0.16666   0.00000  Uiso   1.00
O468   O     0.62497   0.89262   0.23026   0.00000  Uiso   1.00
O469   O     0.62218   0.77244   0.10694   0.00000  Uiso   1.00
O470   O     0.37814   0.89633   0.22571   0.00000  Uiso   1.00
O471   O     0.56108   0.79513   0.16667   0.00000  Uiso   1.00
O472   O     0.56108   0.87154   0.16667   0.00000  Uiso   1.00
O473   O     0.43892   0.79513   0.16666   0.00000  Uiso   1.00
O474   O     0.50000   0.87155   0.09511   0.00000  Uiso   1.00
O475   O     0.50000   0.79512   0.23822   0.00000  Uiso   1.00
O476   O     0.50000   0.87155   0.23822   0.00000  Uiso   1.00
O477   O     0.50000   0.79512   0.09511   0.00000  Uiso   1.00
O478   O     0.37265   0.76114   0.12307   0.00000  Uiso   1.00
Zn479  Zn    0.50000   0.88437   0.16667   0.00000  Uiso   1.00
Zn480  Zn    0.50000   0.78229   0.16667   0.00000  Uiso   1.00
C481   C     0.75333   0.83291   0.16766   0.00000  Uiso   1.00
C482   C     0.68882   0.86590   0.19629   0.00000  Uiso   1.00
C483   C     0.95717   0.83412   0.16680   0.00000  Uiso   1.00
C484   C     0.70901   0.83198   0.16955   0.00000  Uiso   1.00
C485   C     0.85472   0.69122   0.20290   0.00000  Uiso   1.00
C486   C     0.81251   0.97546   0.12997   0.00000  Uiso   1.00
C487   C     0.81322   0.69037   0.12936   0.00000  Uiso   1.00
C488   C     0.85487   0.97629   0.20277   0.00000  Uiso   1.00
C489   C     0.69963   0.72366   0.15506   0.00000  Uiso   1.00
C490   C     0.95386   0.87065   0.27683   0.00000  Uiso   1.00
C491   C     0.95196   0.79219   0.05903   0.00000  Uiso   1.00
C492   C     0.91315   0.83366   0.16662   0.00000  Uiso   1.00
C493   C     0.70828   0.93985   0.20471   0.00000  Uiso   1.00
C494   C     0.83338   0.83334   0.07293   0.00000  Uiso   1.00
C495   C     0.83351   0.83333   0.26040   0.00000  Uiso   1.00
C496   C     0.83355   0.83335   0.02182   0.00000  Uiso   1.00
C497   C     0.83360   0.83333   0.31152   0.00000  Uiso   1.00
C498   C     0.68656   0.79773   0.14406   0.00000  Uiso   1.00
C499   C     0.97901   0.86432   0.19826   0.00000  Uiso   1.00
C500   C     0.97743   0.80211   0.13793   0.00000  Uiso   1.00
H501   H     0.71631   0.72867   0.19154   0.00000  Uiso   1.00
H502   H     0.71347   0.93990   0.16354   0.00000  Uiso   1.00
H503   H     0.67769   0.95481   0.21302   0.00000  Uiso   1.00
H504   H     0.73275   0.96190   0.22200   0.00000  Uiso   1.00
H505   H     0.90925   0.70827   0.23755   0.00000  Uiso   1.00
H506   H     0.86719   0.70689   0.27549   0.00000  Uiso   1.00
H507   H     0.75893   0.95924   0.09280   0.00000  Uiso   1.00
H508   H     0.80224   0.95927   0.05709   0.00000  Uiso   1.00
H509   H     0.76413   0.70361   0.08291   0.00000  Uiso   1.00
H510   H     0.81122   0.70658   0.05594   0.00000  Uiso   1.00
H511   H     0.90905   0.96271   0.23872   0.00000  Uiso   1.00
H512   H     0.99935   0.71642   0.16161   0.00000  Uiso   1.00
H513   H     0.86631   0.96025   0.27528   0.00000  Uiso   1.00
H514   H     0.71217   0.69315   0.13733   0.00000  Uiso   1.00
H515   H     0.98469   0.86378   0.29452   0.00000  Uiso   1.00
H516   H     0.93687   0.89306   0.30242   0.00000  Uiso   1.00
H517   H     0.93524   0.83883   0.27300   0.00000  Uiso   1.00
H518   H     0.93453   0.82427   0.06031   0.00000  Uiso   1.00
H519   H     0.93417   0.76869   0.03411   0.00000  Uiso   1.00
H520   H     0.98312   0.79801   0.04221   0.00000  Uiso   1.00
N521   N     0.83333   0.95240   0.16667   0.00000  Uiso   1.00
N522   N     0.83333   0.71427   0.16667   0.00000  Uiso   1.00
N523   N     0.87779   0.71628   0.24008   0.00000  Uiso   1.00
N524   N     0.79027   0.95047   0.09203   0.00000  Uiso   1.00
N525   N     0.79490   0.71441   0.08833   0.00000  Uiso   1.00
N526   N     0.87789   0.95217   0.24006   0.00000  Uiso   1.00
O527   O     0.77226   0.87154   0.16666   0.00000  Uiso   1.00
O528   O     0.95830   0.89262   0.23026   0.00000  Uiso   1.00
O529   O     0.95551   0.77244   0.10694   0.00000  Uiso   1.00
O530   O     0.71148   0.89633   0.22571   0.00000  Uiso   1.00
O531   O     0.89441   0.79513   0.16667   0.00000  Uiso   1.00
O532   O     0.89441   0.87154   0.16667   0.00000  Uiso   1.00
O533   O     0.77226   0.79513   0.16666   0.00000  Uiso   1.00
O534   O     0.83334   0.87155   0.09511   0.00000  Uiso   1.00
O535   O     0.83333   0.79512   0.23822   0.00000  Uiso   1.00
O536   O     0.83333   0.87155   0.23822   0.00000  Uiso   1.00
O537   O     0.83334   0.79512   0.09511   0.00000  Uiso   1.00
O538   O     0.70598   0.76114   0.12307   0.00000  Uiso   1.00
Zn539  Zn    0.83333   0.88437   0.16667   0.00000  Uiso   1.00
Zn540  Zn    0.83333   0.78229   0.16667   0.00000  Uiso   1.00
C541   C     0.08666   0.16624   0.50099   0.00000  Uiso   1.00
C542   C     0.02215   0.19923   0.52963   0.00000  Uiso   1.00
C543   C     0.29051   0.16746   0.50014   0.00000  Uiso   1.00
C544   C     0.04235   0.16532   0.50289   0.00000  Uiso   1.00
C545   C     0.18805   0.02455   0.53623   0.00000  Uiso   1.00
C546   C     0.14584   0.30880   0.46330   0.00000  Uiso   1.00
C547   C     0.14656   0.02371   0.46269   0.00000  Uiso   1.00
C548   C     0.18821   0.30962   0.53611   0.00000  Uiso   1.00
C549   C     0.03297   0.05700   0.48840   0.00000  Uiso   1.00
C550   C     0.28719   0.20398   0.61016   0.00000  Uiso   1.00
C551   C     0.28530   0.12552   0.39236   0.00000  Uiso   1.00
C552   C     0.24649   0.16700   0.49996   0.00000  Uiso   1.00
C553   C     0.04161   0.27318   0.53805   0.00000  Uiso   1.00
C554   C     0.16671   0.16667   0.40627   0.00000  Uiso   1.00
C555   C     0.16685   0.16666   0.59374   0.00000  Uiso   1.00
C556   C     0.16688   0.16668   0.35515   0.00000  Uiso   1.00
C557   C     0.16693   0.16666   0.64486   0.00000  Uiso   1.00
C558   C     0.01989   0.13106   0.47739   0.00000  Uiso   1.00
C559   C     0.31235   0.19766   0.53159   0.00000  Uiso   1.00
C560   C     0.31076   0.13544   0.47126   0.00000  Uiso   1.00
H561   H     0.04964   0.06201   0.52487   0.00000  Uiso   1.00
H562   H     0.04680   0.27323   0.49687   0.00000  Uiso   1.00
H563   H     0.01102   0.28815   0.54635   0.00000  Uiso   1.00
H564   H     0.06608   0.29523   0.55533   0.00000  Uiso   1.00
H565   H     0.24258   0.04161   0.57089   0.00000  Uiso   1.00
H566   H     0.20052   0.04023   0.60883   0.00000  Uiso   1.00
H567   H     0.09226   0.29258   0.42614   0.00000  Uiso   1.00
H568   H     0.13557   0.29260   0.39042   0.00000  Uiso   1.00
H569   H     0.09747   0.03695   0.41625   0.00000  Uiso   1.00
H570   H     0.14455   0.03991   0.38928   0.00000  Uiso   1.00
H571   H     0.24238   0.29605   0.57205   0.00000  Uiso   1.00
H572   H     0.33269   0.04976   0.49494   0.00000  Uiso   1.00
H573   H     0.19964   0.29358   0.60861   0.00000  Uiso   1.00
H574   H     0.04551   0.02649   0.47066   0.00000  Uiso   1.00
H575   H     0.31803   0.19712   0.62786   0.00000  Uiso   1.00
H576   H     0.27020   0.22639   0.63576   0.00000  Uiso   1.00
H577   H     0.26857   0.17217   0.60633   0.00000  Uiso   1.00
H578   H     0.26786   0.15760   0.39364   0.00000  Uiso   1.00
H579   H     0.26751   0.10203   0.36745   0.00000  Uiso   1.00
H580   H     0.31645   0.13134   0.37554   0.00000  Uiso   1.00
N581   N     0.16667   0.28573   0.50000   0.00000  Uiso   1.00
N582   N     0.16667   0.04760   0.50000   0.00000  Uiso   1.00
N583   N     0.21112   0.04961   0.57342   0.00000  Uiso   1.00
N584   N     0.12360   0.28380   0.42537   0.00000  Uiso   1.00
N585   N     0.12824   0.04774   0.42166   0.00000  Uiso   1.00
N586   N     0.21122   0.28551   0.57340   0.00000  Uiso   1.00
O587   O     0.10559   0.20487   0.50000   0.00000  Uiso   1.00
O588   O     0.29164   0.22596   0.56360   0.00000  Uiso   1.00
O589   O     0.28884   0.10577   0.44028   0.00000  Uiso   1.00
O590   O     0.04481   0.22967   0.55904   0.00000  Uiso   1.00
O591   O     0.22774   0.12846   0.50000   0.00000  Uiso   1.00
O592   O     0.22774   0.20487   0.50000   0.00000  Uiso   1.00
O593   O     0.10559   0.12846   0.50000   0.00000  Uiso   1.00
O594   O     0.16667   0.20488   0.42845   0.00000  Uiso   1.00
O595   O     0.16666   0.12845   0.57155   0.00000  Uiso   1.00
O596   O     0.16666   0.20488   0.57155   0.00000  Uiso   1.00
O597   O     0.16667   0.12845   0.42845   0.00000  Uiso   1.00
O598   O     0.03932   0.09448   0.45640   0.00000  Uiso   1.00
Zn599  Zn    0.16667   0.21771   0.50000   0.00000  Uiso   1.00
Zn600  Zn    0.16667   0.11563   0.50000   0.00000  Uiso   1.00
C601   C     0.42000   0.16624   0.50099   0.00000  Uiso   1.00
C602   C     0.35549   0.19923   0.52963   0.00000  Uiso   1.00
C603   C     0.62384   0.16746   0.50014   0.00000  Uiso   1.00
C604   C     0.37568   0.16532   0.50289   0.00000  Uiso   1.00
C605   C     0.52139   0.02455   0.53623   0.00000  Uiso   1.00
C606   C     0.47917   0.30880   0.46330   0.00000  Uiso   1.00
C607   C     0.47989   0.02371   0.46269   0.00000  Uiso   1.00
C608   C     0.52154   0.30962   0.53611   0.00000  Uiso   1.00
C609   C     0.36630   0.05700   0.48840   0.00000  Uiso   1.00
C610   C     0.62052   0.20398   0.61016   0.00000  Uiso   1.00
C611   C     0.61863   0.12552   0.39236   0.00000  Uiso   1.00
C612   C     0.57982   0.16700   0.49996   0.00000  Uiso   1.00
C613   C     0.37495   0.27318   0.53805   0.00000  Uiso   1.00
C614   C     0.50005   0.16667   0.40627   0.00000  Uiso   1.00
C615   C     0.50018   0.16666   0.59374   0.00000  Uiso   1.00
C616   C     0.50022   0.16668   0.35515   0.00000  Uiso   1.00
C617   C     0.50027   0.16666   0.64486   0.00000  Uiso   1.00
C618   C     0.35323   0.13106   0.47739   0.00000  Uiso   1.00
C619   C     0.64568   0.19766   0.53159   0.00000  Uiso   1.00
C620   C     0.64410   0.13544   0.47126   0.00000  Uiso   1.00
H621   H     0.38298   0.06201   0.52487   0.00000  Uiso   1.00
H622   H     0.38014   0.27323   0.49687   0.00000  Uiso   1.00
H623   H     0.34435   0.28815   0.54635   0.00000  Uiso   1.00
H624   H     0.39942   0.29523   0.55533   0.00000  Uiso   1.00
H625   H     0.57592   0.04161   0.57089   0.00000  Uiso   1.00
H626   H     0.53385   0.04023   0.60883   0.00000  Uiso   1.00
H627   H     0.42559   0.29258   0.42614   0.00000  Uiso   1.00
H628   H     0.46890   0.29260   0.39042   0.00000  Uiso   1.00
H629   H     0.43080   0.03695   0.41625   0.00000  Uiso   1.00
H630   H     0.47789   0.03991   0.38928   0.00000  Uiso   1.00
H631   H     0.57572   0.29605   0.57205   0.00000  Uiso   1.00
H632   H     0.66602   0.04976   0.49494   0.00000  Uiso   1.00
H633   H     0.53297   0.29358   0.60861   0.00000  Uiso   1.00
H634   H     0.37884   0.02649   0.47066   0.00000  Uiso   1.00
H635   H     0.65136   0.19712   0.62786   0.00000  Uiso   1.00
H636   H     0.60354   0.22639   0.63576   0.00000  Uiso   1.00
H637   H     0.60191   0.17217   0.60633   0.00000  Uiso   1.00
H638   H     0.60120   0.15760   0.39364   0.00000  Uiso   1.00
H639   H     0.60084   0.10203   0.36745   0.00000  Uiso   1.00
H640   H     0.64979   0.13134   0.37554   0.00000  Uiso   1.00
N641   N     0.50000   0.28573   0.50000   0.00000  Uiso   1.00
N642   N     0.50000   0.04760   0.50000   0.00000  Uiso   1.00
N643   N     0.54446   0.04961   0.57342   0.00000  Uiso   1.00
N644   N     0.45694   0.28380   0.42537   0.00000  Uiso   1.00
N645   N     0.46157   0.04774   0.42166   0.00000  Uiso   1.00
N646   N     0.54456   0.28551   0.57340   0.00000  Uiso   1.00
O647   O     0.43892   0.20487   0.50000   0.00000  Uiso   1.00
O648   O     0.62497   0.22596   0.56360   0.00000  Uiso   1.00
O649   O     0.62218   0.10577   0.44028   0.00000  Uiso   1.00
O650   O     0.37814   0.22967   0.55904   0.00000  Uiso   1.00
O651   O     0.56108   0.12846   0.50000   0.00000  Uiso   1.00
O652   O     0.56108   0.20487   0.50000   0.00000  Uiso   1.00
O653   O     0.43892   0.12846   0.50000   0.00000  Uiso   1.00
O654   O     0.50000   0.20488   0.42845   0.00000  Uiso   1.00
O655   O     0.50000   0.12845   0.57155   0.00000  Uiso   1.00
O656   O     0.50000   0.20488   0.57155   0.00000  Uiso   1.00
O657   O     0.50000   0.12845   0.42845   0.00000  Uiso   1.00
O658   O     0.37265   0.09448   0.45640   0.00000  Uiso   1.00
Zn659  Zn    0.50000   0.21771   0.50000   0.00000  Uiso   1.00
Zn660  Zn    0.50000   0.11563   0.50000   0.00000  Uiso   1.00
C661   C     0.75333   0.16624   0.50099   0.00000  Uiso   1.00
C662   C     0.68882   0.19923   0.52963   0.00000  Uiso   1.00
C663   C     0.95717   0.16746   0.50014   0.00000  Uiso   1.00
C664   C     0.70901   0.16532   0.50289   0.00000  Uiso   1.00
C665   C     0.85472   0.02455   0.53623   0.00000  Uiso   1.00
C666   C     0.81251   0.30880   0.46330   0.00000  Uiso   1.00
C667   C     0.81322   0.02371   0.46269   0.00000  Uiso   1.00
C668   C     0.85487   0.30962   0.53611   0.00000  Uiso   1.00
C669   C     0.69963   0.05700   0.48840   0.00000  Uiso   1.00
C670   C     0.95386   0.20398   0.61016   0.00000  Uiso   1.00
C671   C     0.95196   0.12552   0.39236   0.00000  Uiso   1.00
C672   C     0.91315   0.16700   0.49996   0.00000  Uiso   1.00
C673   C     0.70828   0.27318   0.53805   0.00000  Uiso   1.00
C674   C     0.83338   0.16667   0.40627   0.00000  Uiso   1.00
C675   C     0.83351   0.16666   0.59374   0.00000  Uiso   1.00
C676   C     0.83355   0.16668   0.35515   0.00000  Uiso   1.00
C677   C     0.83360   0.16666   0.64486   0.00000  Uiso   1.00
C678   C     0.68656   0.13106   0.47739   0.00000  Uiso   1.00
C679   C     0.97901   0.19766   0.53159   0.00000  Uiso   1.00
C680   C     0.97743   0.13544   0.47126   0.00000  Uiso   1.00
H681   H     0.71631   0.06201   0.52487   0.00000  Uiso   1.00
H682   H     0.71347   0.27323   0.49687   0.00000  Uiso   1.00
H683   H     0.67769   0.28815   0.54635   0.00000  Uiso   1.00
H684   H     0.73275   0.29523   0.55533   0.00000  Uiso   1.00
H685   H     0.90925   0.04161   0.57089   0.00000  Uiso   1.00
H686   H     0.86719   0.04023   0.60883   0.00000  Uiso   1.00
H687   H     0.75893   0.29258   0.42614   0.00000  Uiso   1.00
H688   H     0.80224   0.29260   0.39042   0.00000  Uiso   1.00
H689   H     0.76413   0.03695   0.41625   0.00000  Uiso   1.00
H690   H     0.81122   0.03991   0.38928   0.00000  Uiso   1.00
H691   H     0.90905   0.29605   0.57205   0.00000  Uiso   1.00
H692   H     0.99935   0.04976   0.49494   0.00000  Uiso   1.00
H693   H     0.86631   0.29358   0.60861   0.00000  Uiso   1.00
H694   H     0.71217   0.02649   0.47066   0.00000  Uiso   1.00
H695   H     0.98469   0.19712   0.62786   0.00000  Uiso   1.00
H696   H     0.93687   0.22639   0.63576   0.00000  Uiso   1.00
H697   H     0.93524   0.17217   0.60633   0.00000  Uiso   1.00
H698   H     0.93453   0.15760   0.39364   0.00000  Uiso   1.00
H699   H     0.93417   0.10203   0.36745   0.00000  Uiso   1.00
H700   H     0.98312   0.13134   0.37554   0.00000  Uiso   1.00
N701   N     0.83333   0.28573   0.50000   0.00000  Uiso   1.00
N702   N     0.83333   0.04760   0.50000   0.00000  Uiso   1.00
N703   N     0.87779   0.04961   0.57342   0.00000  Uiso   1.00
N704   N     0.79027   0.28380   0.42537   0.00000  Uiso   1.00
N705   N     0.79490   0.04774   0.42166   0.00000  Uiso   1.00
N706   N     0.87789   0.28551   0.57340   0.00000  Uiso   1.00
O707   O     0.77226   0.20487   0.50000   0.00000  Uiso   1.00
O708   O     0.95830   0.22596   0.56360   0.00000  Uiso   1.00
O709   O     0.95551   0.10577   0.44028   0.00000  Uiso   1.00
O710   O     0.71148   0.22967   0.55904   0.00000  Uiso   1.00
O711   O     0.89441   0.12846   0.50000   0.00000  Uiso   1.00
O712   O     0.89441   0.20487   0.50000   0.00000  Uiso   1.00
O713   O     0.77226   0.12846   0.50000   0.00000  Uiso   1.00
O714   O     0.83334   0.20488   0.42845   0.00000  Uiso   1.00
O715   O     0.83333   0.12845   0.57155   0.00000  Uiso   1.00
O716   O     0.83333   0.20488   0.57155   0.00000  Uiso   1.00
O717   O     0.83334   0.12845   0.42845   0.00000  Uiso   1.00
O718   O     0.70598   0.09448   0.45640   0.00000  Uiso   1.00
Zn719  Zn    0.83333   0.21771   0.50000   0.00000  Uiso   1.00
Zn720  Zn    0.83333   0.11563   0.50000   0.00000  Uiso   1.00
C721   C     0.08666   0.49958   0.50099   0.00000  Uiso   1.00
C722   C     0.02215   0.53257   0.52963   0.00000  Uiso   1.00
C723   C     0.29051   0.50079   0.50014   0.00000  Uiso   1.00
C724   C     0.04235   0.49865   0.50289   0.00000  Uiso   1.00
C725   C     0.18805   0.35788   0.53623   0.00000  Uiso   1.00
C726   C     0.14584   0.64213   0.46330   0.00000  Uiso   1.00
C727   C     0.14656   0.35704   0.46269   0.00000  Uiso   1.00
C728   C     0.18821   0.64295   0.53611   0.00000  Uiso   1.00
C729   C     0.03297   0.39033   0.48840   0.00000  Uiso   1.00
C730   C     0.28719   0.53732   0.61016   0.00000  Uiso   1.00
C731   C     0.28530   0.45885   0.39236   0.00000  Uiso   1.00
C732   C     0.24649   0.50033   0.49996   0.00000  Uiso   1.00
C733   C     0.04161   0.60652   0.53805   0.00000  Uiso   1.00
C734   C     0.16671   0.50001   0.40627   0.00000  Uiso   1.00
C735   C     0.16685   0.50000   0.59374   0.00000  Uiso   1.00
C736   C     0.16688   0.50001   0.35515   0.00000  Uiso   1.00
C737   C     0.16693   0.49999   0.64486   0.00000  Uiso   1.00
C738   C     0.01989   0.46439   0.47739   0.00000  Uiso   1.00
C739   C     0.31235   0.53099   0.53159   0.00000  Uiso   1.00
C740   C     0.31076   0.46878   0.47126   0.00000  Uiso   1.00
H741   H     0.04964   0.39534   0.52487   0.00000  Uiso   1.00
H742   H     0.04680   0.60657   0.49687   0.00000  Uiso   1.00
H743   H     0.01102   0.62148   0.54635   0.00000  Uiso   1.00
H744   H     0.06608   0.62856   0.55533   0.00000  Uiso   1.00
H745   H     0.24258   0.37494   0.57089   0.00000  Uiso   1.00
H746   H     0.20052   0.37356   0.60883   0.00000  Uiso   1.00
H747   H     0.09226   0.62591   0.42614   0.00000  Uiso   1.00
H748   H     0.13557   0.62594   0.39042   0.00000  Uiso   1.00
H749   H     0.09747   0.37028   0.41625   0.00000  Uiso   1.00
H750   H     0.14455   0.37325   0.38928   0.00000  Uiso   1.00
H751   H     0.24238   0.62938   0.57205   0.00000  Uiso   1.00
H752   H     0.33269   0.38309   0.49494   0.00000  Uiso   1.00
H753   H     0.19964   0.62692   0.60861   0.00000  Uiso   1.00
H754   H     0.04551   0.35982   0.47066   0.00000  Uiso   1.00
H755   H     0.31803   0.53045   0.62786   0.00000  Uiso   1.00
H756   H     0.27020   0.55973   0.63576   0.00000  Uiso   1.00
H757   H     0.26857   0.50550   0.60633   0.00000  Uiso   1.00
H758   H     0.26786   0.49094   0.39364   0.00000  Uiso   1.00
H759   H     0.26751   0.43536   0.36745   0.00000  Uiso   1.00
H760   H     0.31645   0.46467   0.37554   0.00000  Uiso   1.00
N761   N     0.16667   0.61907   0.50000   0.00000  Uiso   1.00
N762   N     0.16667   0.38093   0.50000   0.00000  Uiso   1.00
N763   N     0.21112   0.38295   0.57342   0.00000  Uiso   1.00
N764   N     0.12360   0.61713   0.42537   0.00000  Uiso   1.00
N765   N     0.12824   0.38107   0.42166   0.00000  Uiso   1.00
N766   N     0.21122   0.61884   0.57340   0.00000  Uiso   1.00
O767   O     0.10559   0.53821   0.50000   0.00000  Uiso   1.00
O768   O     0.29164   0.55929   0.56360   0.00000  Uiso   1.00
O769   O     0.28884   0.43910   0.44028   0.00000  Uiso   1.00
O770   O     0.04481   0.56300   0.55904   0.00000  Uiso   1.00
O771   O     0.22774   0.46179   0.50000   0.00000  Uiso   1.00
O772   O     0.22774   0.53821   0.50000   0.00000  Uiso   1.00
O773   O     0.10559   0.46179   0.50000   0.00000  Uiso   1.00
O774   O     0.16667   0.53821   0.42845   0.00000  Uiso   1.00
O775   O     0.16666   0.46179   0.57155   0.00000  Uiso   1.00
O776   O     0.16666   0.53821   0.57155   0.00000  Uiso   1.00
O777   O     0.16667   0.46179   0.42845   0.00000  Uiso   1.00
O778   O     0.03932   0.42781   0.45640   0.00000  Uiso   1.00
Zn779  Zn    0.16667   0.55104   0.50000   0.00000  Uiso   1.00
Zn780  Zn    0.16667   0.44896   0.50000   0.00000  Uiso   1.00
C781   C     0.42000   0.49958   0.50099   0.00000  Uiso   1.00
C782   C     0.35549   0.53257   0.52963   0.00000  Uiso   1.00
C783   C     0.62384   0.50079   0.50014   0.00000  Uiso   1.00
C784   C     0.37568   0.49865   0.50289   0.00000  Uiso   1.00
C785   C     0.52139   0.35788   0.53623   0.00000  Uiso   1.00
C786   C     0.47917   0.64213   0.46330   0.00000  Uiso   1.00
C787   C     0.47989   0.35704   0.46269   0.00000  Uiso   1.00
C788   C     0.52154   0.64295   0.53611   0.00000  Uiso   1.00
C789   C     0.36630   0.39033   0.48840   0.00000  Uiso   1.00
C790   C     0.62052   0.53732   0.61016   0.00000  Uiso   1.00
C791   C     0.61863   0.45885   0.39236   0.00000  Uiso   1.00
C792   C     0.57982   0.50033   0.49996   0.00000  Uiso   1.00
C793   C     0.37495   0.60652   0.53805   0.00000  Uiso   1.00
C794   C     0.50005   0.50001   0.40627   0.00000  Uiso   1.00
C795   C     0.50018   0.50000   0.59374   0.00000  Uiso   1.00
C796   C     0.50022   0.50001   0.35515   0.00000  Uiso   1.00
C797   C     0.50027   0.49999   0.64486   0.00000  Uiso   1.00
C798   C     0.35323   0.46439   0.47739   0.00000  Uiso   1.00
C799   C     0.64568   0.53099   0.53159   0.00000  Uiso   1.00
C800   C     0.64410   0.46878   0.47126   0.00000  Uiso   1.00
H801   H     0.38298   0.39534   0.52487   0.00000  Uiso   1.00
H802   H     0.38014   0.60657   0.49687   0.00000  Uiso   1.00
H803   H     0.34435   0.62148   0.54635   0.00000  Uiso   1.00
H804   H     0.39942   0.62856   0.55533   0.00000  Uiso   1.00
H805   H     0.57592   0.37494   0.57089   0.00000  Uiso   1.00
H806   H     0.53385   0.37356   0.60883   0.00000  Uiso   1.00
H807   H     0.42559   0.62591   0.42614   0.00000  Uiso   1.00
H808   H     0.46890   0.62594   0.39042   0.00000  Uiso   1.00
H809   H     0.43080   0.37028   0.41625   0.00000  Uiso   1.00
H810   H     0.47789   0.37325   0.38928   0.00000  Uiso   1.00
H811   H     0.57572   0.62938   0.57205   0.00000  Uiso   1.00
H812   H     0.66602   0.38309   0.49494   0.00000  Uiso   1.00
H813   H     0.53297   0.62692   0.60861   0.00000  Uiso   1.00
H814   H     0.37884   0.35982   0.47066   0.00000  Uiso   1.00
H815   H     0.65136   0.53045   0.62786   0.00000  Uiso   1.00
H816   H     0.60354   0.55973   0.63576   0.00000  Uiso   1.00
H817   H     0.60191   0.50550   0.60633   0.00000  Uiso   1.00
H818   H     0.60120   0.49094   0.39364   0.00000  Uiso   1.00
H819   H     0.60084   0.43536   0.36745   0.00000  Uiso   1.00
H820   H     0.64979   0.46467   0.37554   0.00000  Uiso   1.00
N821   N     0.50000   0.61907   0.50000   0.00000  Uiso   1.00
N822   N     0.50000   0.38093   0.50000   0.00000  Uiso   1.00
N823   N     0.54446   0.38295   0.57342   0.00000  Uiso   1.00
N824   N     0.45694   0.61713   0.42537   0.00000  Uiso   1.00
N825   N     0.46157   0.38107   0.42166   0.00000  Uiso   1.00
N826   N     0.54456   0.61884   0.57340   0.00000  Uiso   1.00
O827   O     0.43892   0.53821   0.50000   0.00000  Uiso   1.00
O828   O     0.62497   0.55929   0.56360   0.00000  Uiso   1.00
O829   O     0.62218   0.43910   0.44028   0.00000  Uiso   1.00
O830   O     0.37814   0.56300   0.55904   0.00000  Uiso   1.00
O831   O     0.56108   0.46179   0.50000   0.00000  Uiso   1.00
O832   O     0.56108   0.53821   0.50000   0.00000  Uiso   1.00
O833   O     0.43892   0.46179   0.50000   0.00000  Uiso   1.00
O834   O     0.50000   0.53821   0.42845   0.00000  Uiso   1.00
O835   O     0.50000   0.46179   0.57155   0.00000  Uiso   1.00
O836   O     0.50000   0.53821   0.57155   0.00000  Uiso   1.00
O837   O     0.50000   0.46179   0.42845   0.00000  Uiso   1.00
O838   O     0.37265   0.42781   0.45640   0.00000  Uiso   1.00
Zn839  Zn    0.50000   0.55104   0.50000   0.00000  Uiso   1.00
Zn840  Zn    0.50000   0.44896   0.50000   0.00000  Uiso   1.00
C841   C     0.75333   0.49958   0.50099   0.00000  Uiso   1.00
C842   C     0.68882   0.53257   0.52963   0.00000  Uiso   1.00
C843   C     0.95717   0.50079   0.50014   0.00000  Uiso   1.00
C844   C     0.70901   0.49865   0.50289   0.00000  Uiso   1.00
C845   C     0.85472   0.35788   0.53623   0.00000  Uiso   1.00
C846   C     0.81251   0.64213   0.46330   0.00000  Uiso   1.00
C847   C     0.81322   0.35704   0.46269   0.00000  Uiso   1.00
C848   C     0.85487   0.64295   0.53611   0.00000  Uiso   1.00
C849   C     0.69963   0.39033   0.48840   0.00000  Uiso   1.00
C850   C     0.95386   0.53732   0.61016   0.00000  Uiso   1.00
C851   C     0.95196   0.45885   0.39236   0.00000  Uiso   1.00
C852   C     0.91315   0.50033   0.49996   0.00000  Uiso   1.00
C853   C     0.70828   0.60652   0.53805   0.00000  Uiso   1.00
C854   C     0.83338   0.50001   0.40627   0.00000  Uiso   1.00
C855   C     0.83351   0.50000   0.59374   0.00000  Uiso   1.00
C856   C     0.83355   0.50001   0.35515   0.00000  Uiso   1.00
C857   C     0.83360   0.49999   0.64486   0.00000  Uiso   1.00
C858   C     0.68656   0.46439   0.47739   0.00000  Uiso   1.00
C859   C     0.97901   0.53099   0.53159   0.00000  Uiso   1.00
C860   C     0.97743   0.46878   0.47126   0.00000  Uiso   1.00
H861   H     0.71631   0.39534   0.52487   0.00000  Uiso   1.00
H862   H     0.71347   0.60657   0.49687   0.00000  Uiso   1.00
H863   H     0.67769   0.62148   0.54635   0.00000  Uiso   1.00
H864   H     0.73275   0.62856   0.55533   0.00000  Uiso   1.00
H865   H     0.90925   0.37494   0.57089   0.00000  Uiso   1.00
H866   H     0.86719   0.37356   0.60883   0.00000  Uiso   1.00
H867   H     0.75893   0.62591   0.42614   0.00000  Uiso   1.00
H868   H     0.80224   0.62594   0.39042   0.00000  Uiso   1.00
H869   H     0.76413   0.37028   0.41625   0.00000  Uiso   1.00
H870   H     0.81122   0.37325   0.38928   0.00000  Uiso   1.00
H871   H     0.90905   0.62938   0.57205   0.00000  Uiso   1.00
H872   H     0.99935   0.38309   0.49494   0.00000  Uiso   1.00
H873   H     0.86631   0.62692   0.60861   0.00000  Uiso   1.00
H874   H     0.71217   0.35982   0.47066   0.00000  Uiso   1.00
H875   H     0.98469   0.53045   0.62786   0.00000  Uiso   1.00
H876   H     0.93687   0.55973   0.63576   0.00000  Uiso   1.00
H877   H     0.93524   0.50550   0.60633   0.00000  Uiso   1.00
H878   H     0.93453   0.49094   0.39364   0.00000  Uiso   1.00
H879   H     0.93417   0.43536   0.36745   0.00000  Uiso   1.00
H880   H     0.98312   0.46467   0.37554   0.00000  Uiso   1.00
N881   N     0.83333   0.61907   0.50000   0.00000  Uiso   1.00
N882   N     0.83333   0.38093   0.50000   0.00000  Uiso   1.00
N883   N     0.87779   0.38295   0.57342   0.00000  Uiso   1.00
N884   N     0.79027   0.61713   0.42537   0.00000  Uiso   1.00
N885   N     0.79490   0.38107   0.42166   0.00000  Uiso   1.00
N886   N     0.87789   0.61884   0.57340   0.00000  Uiso   1.00
O887   O     0.77226   0.53821   0.50000   0.00000  Uiso   1.00
O888   O     0.95830   0.55929   0.56360   0.00000  Uiso   1.00
O889   O     0.95551   0.43910   0.44028   0.00000  Uiso   1.00
O890   O     0.71148   0.56300   0.55904   0.00000  Uiso   1.00
O891   O     0.89441   0.46179   0.50000   0.00000  Uiso   1.00
O892   O     0.89441   0.53821   0.50000   0.00000  Uiso   1.00
O893   O     0.77226   0.46179   0.50000   0.00000  Uiso   1.00
O894   O     0.83334   0.53821   0.42845   0.00000  Uiso   1.00
O895   O     0.83333   0.46179   0.57155   0.00000  Uiso   1.00
O896   O     0.83333   0.53821   0.57155   0.00000  Uiso   1.00
O897   O     0.83334   0.46179   0.42845   0.00000  Uiso   1.00
O898   O     0.70598   0.42781   0.45640   0.00000  Uiso   1.00
Zn899  Zn    0.83333   0.55104   0.50000   0.00000  Uiso   1.00
Zn900  Zn    0.83333   0.44896   0.50000   0.00000  Uiso   1.00
C901   C     0.08666   0.83291   0.50099   0.00000  Uiso   1.00
C902   C     0.02215   0.86590   0.52963   0.00000  Uiso   1.00
C903   C     0.29051   0.83412   0.50014   0.00000  Uiso   1.00
C904   C     0.04235   0.83198   0.50289   0.00000  Uiso   1.00
C905   C     0.18805   0.69122   0.53623   0.00000  Uiso   1.00
C906   C     0.14584   0.97546   0.46330   0.00000  Uiso   1.00
C907   C     0.14656   0.69037   0.46269   0.00000  Uiso   1.00
C908   C     0.18821   0.97629   0.53611   0.00000  Uiso   1.00
C909   C     0.03297   0.72366   0.48840   0.00000  Uiso   1.00
C910   C     0.28719   0.87065   0.61016   0.00000  Uiso   1.00
C911   C     0.28530   0.79219   0.39236   0.00000  Uiso   1.00
C912   C     0.24649   0.83366   0.49996   0.00000  Uiso   1.00
C913   C     0.04161   0.93985   0.53805   0.00000  Uiso   1.00
C914   C     0.16671   0.83334   0.40627   0.00000  Uiso   1.00
C915   C     0.16685   0.83333   0.59374   0.00000  Uiso   1.00
C916   C     0.16688   0.83335   0.35515   0.00000  Uiso   1.00
C917   C     0.16693   0.83333   0.64486   0.00000  Uiso   1.00
C918   C     0.01989   0.79773   0.47739   0.00000  Uiso   1.00
C919   C     0.31235   0.86432   0.53159   0.00000  Uiso   1.00
C920   C     0.31076   0.80211   0.47126   0.00000  Uiso   1.00
H921   H     0.04964   0.72867   0.52487   0.00000  Uiso   1.00
H922   H     0.04680   0.93990   0.49687   0.00000  Uiso   1.00
H923   H     0.01102   0.95481   0.54635   0.00000  Uiso   1.00
H924   H     0.06608   0.96190   0.55533   0.00000  Uiso   1.00
H925   H     0.24258   0.70827   0.57089   0.00000  Uiso   1.00
H926   H     0.20052   0.70689   0.60883   0.00000  Uiso   1.00
H927   H     0.09226   0.95924   0.42614   0.00000  Uiso   1.00
H928   H     0.13557   0.95927   0.39042   0.00000  Uiso   1.00
H929   H     0.09747   0.70361   0.41625   0.00000  Uiso   1.00
H930   H     0.14455   0.70658   0.38928   0.00000  Uiso   1.00
H931   H     0.24238   0.96271   0.57205   0.00000  Uiso   1.00
H932   H     0.33269   0.71642   0.49494   0.00000  Uiso   1.00
H933   H     0.19964   0.96025   0.60861   0.00000  Uiso   1.00
H934   H     0.04551   0.69315   0.47066   0.00000  Uiso   1.00
H935   H     0.31803   0.86378   0.62786   0.00000  Uiso   1.00
H936   H     0.27020   0.89306   0.63576   0.00000  Uiso   1.00
H937   H     0.26857   0.83883   0.60633   0.00000  Uiso   1.00
H938   H     0.26786   0.82427   0.39364   0.00000  Uiso   1.00
H939   H     0.26751   0.76869   0.36745   0.00000  Uiso   1.00
H940   H     0.31645   0.79801   0.37554   0.00000  Uiso   1.00
N941   N     0.16667   0.95240   0.50000   0.00000  Uiso   1.00
N942   N     0.16667   0.71427   0.50000   0.00000  Uiso   1.00
N943   N     0.21112   0.71628   0.57342   0.00000  Uiso   1.00
N944   N     0.12360   0.95047   0.42537   0.00000  Uiso   1.00
N945   N     0.12824   0.71441   0.42166   0.00000  Uiso   1.00
N946   N     0.21122   0.95217   0.57340   0.00000  Uiso   1.00
O947   O     0.10559   0.87154   0.50000   0.00000  Uiso   1.00
O948   O     0.29164   0.89262   0.56360   0.00000  Uiso   1.00
O949   O     0.28884   0.77244   0.44028   0.00000  Uiso   1.00
O950   O     0.04481   0.89633   0.55904   0.00000  Uiso   1.00
O951   O     0.22774   0.79513   0.50000   0.00000  Uiso   1.00
O952   O     0.22774   0.87154   0.50000   0.00000  Uiso   1.00
O953   O     0.10559   0.79513   0.50000   0.00000  Uiso   1.00
O954   O     0.16667   0.87155   0.42845   0.00000  Uiso   1.00
O955   O     0.16666   0.79512   0.57155   0.00000  Uiso   1.00
O956   O     0.16666   0.87155   0.57155   0.00000  Uiso   1.00
O957   O     0.16667   0.79512   0.42845   0.00000  Uiso   1.00
O958   O     0.03932   0.76114   0.45640   0.00000  Uiso   1.00
Zn959  Zn    0.16667   0.88437   0.50000   0.00000  Uiso   1.00
Zn960  Zn    0.16667   0.78229   0.50000   0.00000  Uiso   1.00
C961   C     0.42000   0.83291   0.50099   0.00000  Uiso   1.00
C962   C     0.35549   0.86590   0.52963   0.00000  Uiso   1.00
C963   C     0.62384   0.83412   0.50014   0.00000  Uiso   1.00
C964   C     0.37568   0.83198   0.50289   0.00000  Uiso   1.00
C965   C     0.52139   0.69122   0.53623   0.00000  Uiso   1.00
C966   C     0.47917   0.97546   0.46330   0.00000  Uiso   1.00
C967   C     0.47989   0.69037   0.46269   0.00000  Uiso   1.00
C968   C     0.52154   0.97629   0.53611   0.00000  Uiso   1.00
C969   C     0.36630   0.72366   0.48840   0.00000  Uiso   1.00
C970   C     0.62052   0.87065   0.61016   0.00000  Uiso   1.00
C971   C     0.61863   0.79219   0.39236   0.00000  Uiso   1.00
C972   C     0.57982   0.83366   0.49996   0.00000  Uiso   1.00
C973   C     0.37495   0.93985   0.53805   0.00000  Uiso   1.00
C974   C     0.50005   0.83334   0.40627   0.00000  Uiso   1.00
C975   C     0.50018   0.83333   0.59374   0.00000  Uiso   1.00
C976   C     0.50022   0.83335   0.35515   0.00000  Uiso   1.00
C977   C     0.50027   0.83333   0.64486   0.00000  Uiso   1.00
C978   C     0.35323   0.79773   0.47739   0.00000  Uiso   1.00
C979   C     0.64568   0.86432   0.53159   0.00000  Uiso   1.00
C980   C     0.64410   0.80211   0.47126   0.00000  Uiso   1.00
H981   H     0.38298   0.72867   0.52487   0.00000  Uiso   1.00
H982   H     0.38014   0.93990   0.49687   0.00000  Uiso   1.00
H983   H     0.34435   0.95481   0.54635   0.00000  Uiso   1.00
H984   H     0.39942   0.96190   0.55533   0.00000  Uiso   1.00
H985   H     0.57592   0.70827   0.57089   0.00000  Uiso   1.00
H986   H     0.53385   0.70689   0.60883   0.00000  Uiso   1.00
H987   H     0.42559   0.95924   0.42614   0.00000  Uiso   1.00
H988   H     0.46890   0.95927   0.39042   0.00000  Uiso   1.00
H989   H     0.43080   0.70361   0.41625   0.00000  Uiso   1.00
H990   H     0.47789   0.70658   0.38928   0.00000  Uiso   1.00
H991   H     0.57572   0.96271   0.57205   0.00000  Uiso   1.00
H992   H     0.66602   0.71642   0.49494   0.00000  Uiso   1.00
H993   H     0.53297   0.96025   0.60861   0.00000  Uiso   1.00
H994   H     0.37884   0.69315   0.47066   0.00000  Uiso   1.00
H995   H     0.65136   0.86378   0.62786   0.00000  Uiso   1.00
H996   H     0.60354   0.89306   0.63576   0.00000  Uiso   1.00
H997   H     0.60191   0.83883   0.60633   0.00000  Uiso   1.00
H998   H     0.60120   0.82427   0.39364   0.00000  Uiso   1.00
H999   H     0.60084   0.76869   0.36745   0.00000  Uiso   1.00
H1000  H     0.64979   0.79801   0.37554   0.00000  Uiso   1.00
N1001  N     0.50000   0.95240   0.50000   0.00000  Uiso   1.00
N1002  N     0.50000   0.71427   0.50000   0.00000  Uiso   1.00
N1003  N     0.54446   0.71628   0.57342   0.00000  Uiso   1.00
N1004  N     0.45694   0.95047   0.42537   0.00000  Uiso   1.00
N1005  N     0.46157   0.71441   0.42166   0.00000  Uiso   1.00
N1006  N     0.54456   0.95217   0.57340   0.00000  Uiso   1.00
O1007  O     0.43892   0.87154   0.50000   0.00000  Uiso   1.00
O1008  O     0.62497   0.89262   0.56360   0.00000  Uiso   1.00
O1009  O     0.62218   0.77244   0.44028   0.00000  Uiso   1.00
O1010  O     0.37814   0.89633   0.55904   0.00000  Uiso   1.00
O1011  O     0.56108   0.79513   0.50000   0.00000  Uiso   1.00
O1012  O     0.56108   0.87154   0.50000   0.00000  Uiso   1.00
O1013  O     0.43892   0.79513   0.50000   0.00000  Uiso   1.00
O1014  O     0.50000   0.87155   0.42845   0.00000  Uiso   1.00
O1015  O     0.50000   0.79512   0.57155   0.00000  Uiso   1.00
O1016  O     0.50000   0.87155   0.57155   0.00000  Uiso   1.00
O1017  O     0.50000   0.79512   0.42845   0.00000  Uiso   1.00
O1018  O     0.37265   0.76114   0.45640   0.00000  Uiso   1.00
Zn1019 Zn    0.50000   0.88437   0.50000   0.00000  Uiso   1.00
Zn1020 Zn    0.50000   0.78229   0.50000   0.00000  Uiso   1.00
C1021  C     0.75333   0.83291   0.50099   0.00000  Uiso   1.00
C1022  C     0.68882   0.86590   0.52963   0.00000  Uiso   1.00
C1023  C     0.95717   0.83412   0.50014   0.00000  Uiso   1.00
C1024  C     0.70901   0.83198   0.50289   0.00000  Uiso   1.00
C1025  C     0.85472   0.69122   0.53623   0.00000  Uiso   1.00
C1026  C     0.81251   0.97546   0.46330   0.00000  Uiso   1.00
C1027  C     0.81322   0.69037   0.46269   0.00000  Uiso   1.00
C1028  C     0.85487   0.97629   0.53611   0.00000  Uiso   1.00
C1029  C     0.69963   0.72366   0.48840   0.00000  Uiso   1.00
C1030  C     0.95386   0.87065   0.61016   0.00000  Uiso   1.00
C1031  C     0.95196   0.79219   0.39236   0.00000  Uiso   1.00
C1032  C     0.91315   0.83366   0.49996   0.00000  Uiso   1.00
C1033  C     0.70828   0.93985   0.53805   0.00000  Uiso   1.00
C1034  C     0.83338   0.83334   0.40627   0.00000  Uiso   1.00
C1035  C     0.83351   0.83333   0.59374   0.00000  Uiso   1.00
C1036  C     0.83355   0.83335   0.35515   0.00000  Uiso   1.00
C1037  C     0.83360   0.83333   0.64486   0.00000  Uiso   1.00
C1038  C     0.68656   0.79773   0.47739   0.00000  Uiso   1.00
C1039  C     0.97901   0.86432   0.53159   0.00000  Uiso   1.00
C1040  C     0.97743   0.80211   0.47126   0.00000  Uiso   1.00
H1041  H     0.71631   0.72867   0.52487   0.00000  Uiso   1.00
H1042  H     0.71347   0.93990   0.49687   0.00000  Uiso   1.00
H1043  H     0.67769   0.95481   0.54635   0.00000  Uiso   1.00
H1044  H     0.73275   0.96190   0.55533   0.00000  Uiso   1.00
H1045  H     0.90925   0.70827   0.57089   0.00000  Uiso   1.00
H1046  H     0.86719   0.70689   0.60883   0.00000  Uiso   1.00
H1047  H     0.75893   0.95924   0.42614   0.00000  Uiso   1.00
H1048  H     0.80224   0.95927   0.39042   0.00000  Uiso   1.00
H1049  H     0.76413   0.70361   0.41625   0.00000  Uiso   1.00
H1050  H     0.81122   0.70658   0.38928   0.00000  Uiso   1.00
H1051  H     0.90905   0.96271   0.57205   0.00000  Uiso   1.00
H1052  H     0.99935   0.71642   0.49494   0.00000  Uiso   1.00
H1053  H     0.86631   0.96025   0.60861   0.00000  Uiso   1.00
H1054  H     0.71217   0.69315   0.47066   0.00000  Uiso   1.00
H1055  H     0.98469   0.86378   0.62786   0.00000  Uiso   1.00
H1056  H     0.93687   0.89306   0.63576   0.00000  Uiso   1.00
H1057  H     0.93524   0.83883   0.60633   0.00000  Uiso   1.00
H1058  H     0.93453   0.82427   0.39364   0.00000  Uiso   1.00
H1059  H     0.93417   0.76869   0.36745   0.00000  Uiso   1.00
H1060  H     0.98312   0.79801   0.37554   0.00000  Uiso   1.00
N1061  N     0.83333   0.95240   0.50000   0.00000  Uiso   1.00
N1062  N     0.83333   0.71427   0.50000   0.00000  Uiso   1.00
N1063  N     0.87779   0.71628   0.57342   0.00000  Uiso   1.00
N1064  N     0.79027   0.95047   0.42537   0.00000  Uiso   1.00
N1065  N     0.79490   0.71441   0.42166   0.00000  Uiso   1.00
N1066  N     0.87789   0.95217   0.57340   0.00000  Uiso   1.00
O1067  O     0.77226   0.87154   0.50000   0.00000  Uiso   1.00
O1068  O     0.95830   0.89262   0.56360   0.00000  Uiso   1.00
O1069  O     0.95551   0.77244   0.44028   0.00000  Uiso   1.00
O1070  O     0.71148   0.89633   0.55904   0.00000  Uiso   1.00
O1071  O     0.89441   0.79513   0.50000   0.00000  Uiso   1.00
O1072  O     0.89441   0.87154   0.50000   0.00000  Uiso   1.00
O1073  O     0.77226   0.79513   0.50000   0.00000  Uiso   1.00
O1074  O     0.83334   0.87155   0.42845   0.00000  Uiso   1.00
O1075  O     0.83333   0.79512   0.57155   0.00000  Uiso   1.00
O1076  O     0.83333   0.87155   0.57155   0.00000  Uiso   1.00
O1077  O     0.83334   0.79512   0.42845   0.00000  Uiso   1.00
O1078  O     0.70598   0.76114   0.45640   0.00000  Uiso   1.00
Zn1079 Zn    0.83333   0.88437   0.50000   0.00000  Uiso   1.00
Zn1080 Zn    0.83333   0.78229   0.50000   0.00000  Uiso   1.00
C1081  C     0.08666   0.16624   0.83433   0.00000  Uiso   1.00
C1082  C     0.02215   0.19923   0.86296   0.00000  Uiso   1.00
C1083  C     0.29051   0.16746   0.83347   0.00000  Uiso   1.00
C1084  C     0.04235   0.16532   0.83622   0.00000  Uiso   1.00
C1085  C     0.18805   0.02455   0.86957   0.00000  Uiso   1.00
C1086  C     0.14584   0.30880   0.79663   0.00000  Uiso   1.00
C1087  C     0.14656   0.02371   0.79602   0.00000  Uiso   1.00
C1088  C     0.18821   0.30962   0.86944   0.00000  Uiso   1.00
C1089  C     0.03297   0.05700   0.82173   0.00000  Uiso   1.00
C1090  C     0.28719   0.20398   0.94349   0.00000  Uiso   1.00
C1091  C     0.28530   0.12552   0.72569   0.00000  Uiso   1.00
C1092  C     0.24649   0.16700   0.83329   0.00000  Uiso   1.00
C1093  C     0.04161   0.27318   0.87138   0.00000  Uiso   1.00
C1094  C     0.16671   0.16667   0.73960   0.00000  Uiso   1.00
C1095  C     0.16685   0.16666   0.92707   0.00000  Uiso   1.00
C1096  C     0.16688   0.16668   0.68848   0.00000  Uiso   1.00
C1097  C     0.16693   0.16666   0.97819   0.00000  Uiso   1.00
C1098  C     0.01989   0.13106   0.81072   0.00000  Uiso   1.00
C1099  C     0.31235   0.19766   0.86492   0.00000  Uiso   1.00
C1100  C     0.31076   0.13544   0.80460   0.00000  Uiso   1.00
H1101  H     0.04964   0.06201   0.85820   0.00000  Uiso   1.00
H1102  H     0.04680   0.27323   0.83021   0.00000  Uiso   1.00
H1103  H     0.01102   0.28815   0.87969   0.00000  Uiso   1.00
H1104  H     0.06608   0.29523   0.88866   0.00000  Uiso   1.00
H1105  H     0.24258   0.04161   0.90422   0.00000  Uiso   1.00
H1106  H     0.20052   0.04023   0.94216   0.00000  Uiso   1.00
H1107  H     0.09226   0.29258   0.75947   0.00000  Uiso   1.00
H1108  H     0.13557   0.29260   0.72376   0.00000  Uiso   1.00
H1109  H     0.09747   0.03695   0.74958   0.00000  Uiso   1.00
H1110  H     0.14455   0.03991   0.72261   0.00000  Uiso   1.00
H1111  H     0.24238   0.29605   0.90539   0.00000  Uiso   1.00
H1112  H     0.33269   0.04976   0.82828   0.00000  Uiso   1.00
H1113  H     0.19964   0.29358   0.94195   0.00000  Uiso   1.00
H1114  H     0.04551   0.02649   0.80400   0.00000  Uiso   1.00
H1115  H     0.31803   0.19712   0.96119   0.00000  Uiso   1.00
H1116  H     0.27020   0.22639   0.96909   0.00000  Uiso   1.00
H1117  H     0.26857   0.17217   0.93967   0.00000  Uiso   1.00
H1118  H     0.26786   0.15760   0.72697   0.00000  Uiso   1.00
H1119  H     0.26751   0.10203   0.70078   0.00000  Uiso   1.00
H1120  H     0.31645   0.13134   0.70888   0.00000  Uiso   1.00
N1121  N     0.16667   0.28573   0.83333   0.00000  Uiso   1.00
N1122  N     0.16667   0.04760   0.83333   0.00000  Uiso   1.00
N1123  N     0.21112   0.04961   0.90675   0.00000  Uiso   1.00
N1124  N     0.12360   0.28380   0.75870   0.00000  Uiso   1.00
N1125  N     0.12824   0.04774   0.75499   0.00000  Uiso   1.00
N1126  N     0.21122   0.28551   0.90673   0.00000  Uiso   1.00
O1127  O     0.10559   0.20487   0.83333   0.00000  Uiso   1.00
O1128  O     0.29164   0.22596   0.89693   0.00000  Uiso   1.00
O1129  O     0.28884   0.10577   0.77361   0.00000  Uiso   1.00
O1130  O     0.04481   0.22967   0.89237   0.00000  Uiso   1.00
O1131  O     0.22774   0.12846   0.83334   0.00000  Uiso   1.00
O1132  O     0.22774   0.20487   0.83334   0.00000  Uiso   1.00
O1133  O     0.10559   0.12846   0.83333   0.00000  Uiso   1.00
O1134  O     0.16667   0.20488   0.76178   0.00000  Uiso   1.00
O1135  O     0.16666   0.12845   0.90489   0.00000  Uiso   1.00
O1136  O     0.16666   0.20488   0.90489   0.00000  Uiso   1.00
O1137  O     0.16667   0.12845   0.76178   0.00000  Uiso   1.00
O1138  O     0.03932   0.09448   0.78974   0.00000  Uiso   1.00
Zn1139 Zn    0.16667   0.21771   0.83333   0.00000  Uiso   1.00
Zn1140 Zn    0.16667   0.11563   0.83333   0.00000  Uiso   1.00
C1141  C     0.42000   0.16624   0.83433   0.00000  Uiso   1.00
C1142  C     0.35549   0.19923   0.86296   0.00000  Uiso   1.00
C1143  C     0.62384   0.16746   0.83347   0.00000  Uiso   1.00
C1144  C     0.37568   0.16532   0.83622   0.00000  Uiso   1.00
C1145  C     0.52139   0.02455   0.86957   0.00000  Uiso   1.00
C1146  C     0.47917   0.30880   0.79663   0.00000  Uiso   1.00
C1147  C     0.47989   0.02371   0.79602   0.00000  Uiso   1.00
C1148  C     0.52154   0.30962   0.86944   0.00000  Uiso   1.00
C1149  C     0.36630   0.05700   0.82173   0.00000  Uiso   1.00
C1150  C     0.62052   0.20398   0.94349   0.00000  Uiso   1.00
C1151  C     0.61863   0.12552   0.72569   0.00000  Uiso   1.00
C1152  C     0.57982   0.16700   0.83329   0.00000  Uiso   1.00
C1153  C     0.37495   0.27318   0.87138   0.00000  Uiso   1.00
C1154  C     0.50005   0.16667   0.73960   0.00000  Uiso   1.00
C1155  C     0.50018   0.16666   0.92707   0.00000  Uiso   1.00
C1156  C     0.50022   0.16668   0.68848   0.00000  Uiso   1.00
C1157  C     0.50027   0.16666   0.97819   0.00000  Uiso   1.00
C1158  C     0.35323   0.13106   0.81072   0.00000  Uiso   1.00
C1159  C     0.64568   0.19766   0.86492   0.00000  Uiso   1.00
C1160  C     0.64410   0.13544   0.80460   0.00000  Uiso   1.00
H1161  H     0.38298   0.06201   0.85820   0.00000  Uiso   1.00
H1162  H     0.38014   0.27323   0.83021   0.00000  Uiso   1.00
H1163  H     0.34435   0.28815   0.87969   0.00000  Uiso   1.00
H1164  H     0.39942   0.29523   0.88866   0.00000  Uiso   1.00
H1165  H     0.57592   0.04161   0.90422   0.00000  Uiso   1.00
H1166  H     0.53385   0.04023   0.94216   0.00000  Uiso   1.00
H1167  H     0.42559   0.29258   0.75947   0.00000  Uiso   1.00
H1168  H     0.46890   0.29260   0.72376   0.00000  Uiso   1.00
H1169  H     0.43080   0.03695   0.74958   0.00000  Uiso   1.00
H1170  H     0.47789   0.03991   0.72261   0.00000  Uiso   1.00
H1171  H     0.57572   0.29605   0.90539   0.00000  Uiso   1.00
H1172  H     0.66602   0.04976   0.82828   0.00000  Uiso   1.00
H1173  H     0.53297   0.29358   0.94195   0.00000  Uiso   1.00
H1174  H     0.37884   0.02649   0.80400   0.00000  Uiso   1.00
H1175  H     0.65136   0.19712   0.96119   0.00000  Uiso   1.00
H1176  H     0.60354   0.22639   0.96909   0.00000  Uiso   1.00
H1177  H     0.60191   0.17217   0.93967   0.00000  Uiso   1.00
H1178  H     0.60120   0.15760   0.72697   0.00000  Uiso   1.00
H1179  H     0.60084   0.10203   0.70078   0.00000  Uiso   1.00
H1180  H     0.64979   0.13134   0.70888   0.00000  Uiso   1.00
N1181  N     0.50000   0.28573   0.83333   0.00000  Uiso   1.00
N1182  N     0.50000   0.04760   0.83333   0.00000  Uiso   1.00
N1183  N     0.54446   0.04961   0.90675   0.00000  Uiso   1.00
N1184  N     0.45694   0.28380   0.75870   0.00000  Uiso   1.00
N1185  N     0.46157   0.04774   0.75499   0.00000  Uiso   1.00
N1186  N     0.54456   0.28551   0.90673   0.00000  Uiso   1.00
O1187  O     0.43892   0.20487   0.83333   0.00000  Uiso   1.00
O1188  O     0.62497   0.22596   0.89693   0.00000  Uiso   1.00
O1189  O     0.62218   0.10577   0.77361   0.00000  Uiso   1.00
O1190  O     0.37814   0.22967   0.89237   0.00000  Uiso   1.00
O1191  O     0.56108   0.12846   0.83334   0.00000  Uiso   1.00
O1192  O     0.56108   0.20487   0.83334   0.00000  Uiso   1.00
O1193  O     0.43892   0.12846   0.83333   0.00000  Uiso   1.00
O1194  O     0.50000   0.20488   0.76178   0.00000  Uiso   1.00
O1195  O     0.50000   0.12845   0.90489   0.00000  Uiso   1.00
O1196  O     0.50000   0.20488   0.90489   0.00000  Uiso   1.00
O1197  O     0.50000   0.12845   0.76178   0.00000  Uiso   1.00
O1198  O     0.37265   0.09448   0.78974   0.00000  Uiso   1.00
Zn1199 Zn    0.50000   0.21771   0.83333   0.00000  Uiso   1.00
Zn1200 Zn    0.50000   0.11563   0.83333   0.00000  Uiso   1.00
C1201  C     0.75333   0.16624   0.83433   0.00000  Uiso   1.00
C1202  C     0.68882   0.19923   0.86296   0.00000  Uiso   1.00
C1203  C     0.95717   0.16746   0.83347   0.00000  Uiso   1.00
C1204  C     0.70901   0.16532   0.83622   0.00000  Uiso   1.00
C1205  C     0.85472   0.02455   0.86957   0.00000  Uiso   1.00
C1206  C     0.81251   0.30880   0.79663   0.00000  Uiso   1.00
C1207  C     0.81322   0.02371   0.79602   0.00000  Uiso   1.00
C1208  C     0.85487   0.30962   0.86944   0.00000  Uiso   1.00
C1209  C     0.69963   0.05700   0.82173   0.00000  Uiso   1.00
C1210  C     0.95386   0.20398   0.94349   0.00000  Uiso   1.00
C1211  C     0.95196   0.12552   0.72569   0.00000  Uiso   1.00
C1212  C     0.91315   0.16700   0.83329   0.00000  Uiso   1.00
C1213  C     0.70828   0.27318   0.87138   0.00000  Uiso   1.00
C1214  C     0.83338   0.16667   0.73960   0.00000  Uiso   1.00
C1215  C     0.83351   0.16666   0.92707   0.00000  Uiso   1.00
C1216  C     0.83355   0.16668   0.68848   0.00000  Uiso   1.00
C1217  C     0.83360   0.16666   0.97819   0.00000  Uiso   1.00
C1218  C     0.68656   0.13106   0.81072   0.00000  Uiso   1.00
C1219  C     0.97901   0.19766   0.86492   0.00000  Uiso   1.00
C1220  C     0.97743   0.13544   0.80460   0.00000  Uiso   1.00
H1221  H     0.71631   0.06201   0.85820   0.00000  Uiso   1.00
H1222  H     0.71347   0.27323   0.83021   0.00000  Uiso   1.00
H1223  H     0.67769   0.28815   0.87969   0.00000  Uiso   1.00
H1224  H     0.73275   0.29523   0.88866   0.00000  Uiso   1.00
H1225  H     0.90925   0.04161   0.90422   0.00000  Uiso   1.00
H1226  H     0.86719   0.04023   0.94216   0.00000  Uiso   1.00
H1227  H     0.75893   0.29258   0.75947   0.00000  Uiso   1.00
H1228  H     0.80224   0.29260   0.72376   0.00000  Uiso   1.00
H1229  H     0.76413   0.03695   0.74958   0.00000  Uiso   1.00
H1230  H     0.81122   0.03991   0.72261   0.00000  Uiso   1.00
H1231  H     0.90905   0.29605   0.90539   0.00000  Uiso   1.00
H1232  H     0.99935   0.04976   0.82828   0.00000  Uiso   1.00
H1233  H     0.86631   0.29358   0.94195   0.00000  Uiso   1.00
H1234  H     0.71217   0.02649   0.80400   0.00000  Uiso   1.00
H1235  H     0.98469   0.19712   0.96119   0.00000  Uiso   1.00
H1236  H     0.93687   0.22639   0.96909   0.00000  Uiso   1.00
H1237  H     0.93524   0.17217   0.93967   0.00000  Uiso   1.00
H1238  H     0.93453   0.15760   0.72697   0.00000  Uiso   1.00
H1239  H     0.93417   0.10203   0.70078   0.00000  Uiso   1.00
H1240  H     0.98312   0.13134   0.70888   0.00000  Uiso   1.00
N1241  N     0.83333   0.28573   0.83333   0.00000  Uiso   1.00
N1242  N     0.83333   0.04760   0.83333   0.00000  Uiso   1.00
N1243  N     0.87779   0.04961   0.90675   0.00000  Uiso   1.00
N1244  N     0.79027   0.28380   0.75870   0.00000  Uiso   1.00
N1245  N     0.79490   0.04774   0.75499   0.00000  Uiso   1.00
N1246  N     0.87789   0.28551   0.90673   0.00000  Uiso   1.00
O1247  O     0.77226   0.20487   0.83333   0.00000  Uiso   1.00
O1248  O     0.95830   0.22596   0.89693   0.00000  Uiso   1.00
O1249  O     0.95551   0.10577   0.77361   0.00000  Uiso   1.00
O1250  O     0.71148   0.22967   0.89237   0.00000  Uiso   1.00
O1251  O     0.89441   0.12846   0.83334   0.00000  Uiso   1.00
O1252  O     0.89441   0.20487   0.83334   0.00000  Uiso   1.00
O1253  O     0.77226   0.12846   0.83333   0.00000  Uiso   1.00
O1254  O     0.83334   0.20488   0.76178   0.00000  Uiso   1.00
O1255  O     0.83333   0.12845   0.90489   0.00000  Uiso   1.00
O1256  O     0.83333   0.20488   0.90489   0.00000  Uiso   1.00
O1257  O     0.83334   0.12845   0.76178   0.00000  Uiso   1.00
O1258  O     0.70598   0.09448   0.78974   0.00000  Uiso   1.00
Zn1259 Zn    0.83333   0.21771   0.83333   0.00000  Uiso   1.00
Zn1260 Zn    0.83333   0.11563   0.83333   0.00000  Uiso   1.00
C1261  C     0.08666   0.49958   0.83433   0.00000  Uiso   1.00
C1262  C     0.02215   0.53257   0.86296   0.00000  Uiso   1.00
C1263  C     0.29051   0.50079   0.83347   0.00000  Uiso   1.00
C1264  C     0.04235   0.49865   0.83622   0.00000  Uiso   1.00
C1265  C     0.18805   0.35788   0.86957   0.00000  Uiso   1.00
C1266  C     0.14584   0.64213   0.79663   0.00000  Uiso   1.00
C1267  C     0.14656   0.35704   0.79602   0.00000  Uiso   1.00
C1268  C     0.18821   0.64295   0.86944   0.00000  Uiso   1.00
C1269  C     0.03297   0.39033   0.82173   0.00000  Uiso   1.00
C1270  C     0.28719   0.53732   0.94349   0.00000  Uiso   1.00
C1271  C     0.28530   0.45885   0.72569   0.00000  Uiso   1.00
C1272  C     0.24649   0.50033   0.83329   0.00000  Uiso   1.00
C1273  C     0.04161   0.60652   0.87138   0.00000  Uiso   1.00
C1274  C     0.16671   0.50001   0.73960   0.00000  Uiso   1.00
C1275  C     0.16685   0.50000   0.92707   0.00000  Uiso   1.00
C1276  C     0.16688   0.50001   0.68848   0.00000  Uiso   1.00
C1277  C     0.16693   0.49999   0.97819   0.00000  Uiso   1.00
C1278  C     0.01989   0.46439   0.81072   0.00000  Uiso   1.00
C1279  C     0.31235   0.53099   0.86492   0.00000  Uiso   1.00
C1280  C     0.31076   0.46878   0.80460   0.00000  Uiso   1.00
H1281  H     0.04964   0.39534   0.85820   0.00000  Uiso   1.00
H1282  H     0.04680   0.60657   0.83021   0.00000  Uiso   1.00
H1283  H     0.01102   0.62148   0.87969   0.00000  Uiso   1.00
H1284  H     0.06608   0.62856   0.88866   0.00000  Uiso   1.00
H1285  H     0.24258   0.37494   0.90422   0.00000  Uiso   1.00
H1286  H     0.20052   0.37356   0.94216   0.00000  Uiso   1.00
H1287  H     0.09226   0.62591   0.75947   0.00000  Uiso   1.00
H1288  H     0.13557   0.62594   0.72376   0.00000  Uiso   1.00
H1289  H     0.09747   0.37028   0.74958   0.00000  Uiso   1.00
H1290  H     0.14455   0.37325   0.72261   0.00000  Uiso   1.00
H1291  H     0.24238   0.62938   0.90539   0.00000  Uiso   1.00
H1292  H     0.33269   0.38309   0.82828   0.00000  Uiso   1.00
H1293  H     0.19964   0.62692   0.94195   0.00000  Uiso   1.00
H1294  H     0.04551   0.35982   0.80400   0.00000  Uiso   1.00
H1295  H     0.31803   0.53045   0.96119   0.00000  Uiso   1.00
H1296  H     0.27020   0.55973   0.96909   0.00000  Uiso   1.00
H1297  H     0.26857   0.50550   0.93967   0.00000  Uiso   1.00
H1298  H     0.26786   0.49094   0.72697   0.00000  Uiso   1.00
H1299  H     0.26751   0.43536   0.70078   0.00000  Uiso   1.00
H1300  H     0.31645   0.46467   0.70888   0.00000  Uiso   1.00
N1301  N     0.16667   0.61907   0.83333   0.00000  Uiso   1.00
N1302  N     0.16667   0.38093   0.83333   0.00000  Uiso   1.00
N1303  N     0.21112   0.38295   0.90675   0.00000  Uiso   1.00
N1304  N     0.12360   0.61713   0.75870   0.00000  Uiso   1.00
N1305  N     0.12824   0.38107   0.75499   0.00000  Uiso   1.00
N1306  N     0.21122   0.61884   0.90673   0.00000  Uiso   1.00
O1307  O     0.10559   0.53821   0.83333   0.00000  Uiso   1.00
O1308  O     0.29164   0.55929   0.89693   0.00000  Uiso   1.00
O1309  O     0.28884   0.43910   0.77361   0.00000  Uiso   1.00
O1310  O     0.04481   0.56300   0.89237   0.00000  Uiso   1.00
O1311  O     0.22774   0.46179   0.83334   0.00000  Uiso   1.00
O1312  O     0.22774   0.53821   0.83334   0.00000  Uiso   1.00
O1313  O     0.10559   0.46179   0.83333   0.00000  Uiso   1.00
O1314  O     0.16667   0.53821   0.76178   0.00000  Uiso   1.00
O1315  O     0.16666   0.46179   0.90489   0.00000  Uiso   1.00
O1316  O     0.16666   0.53821   0.90489   0.00000  Uiso   1.00
O1317  O     0.16667   0.46179   0.76178   0.00000  Uiso   1.00
O1318  O     0.03932   0.42781   0.78974   0.00000  Uiso   1.00
Zn1319 Zn    0.16667   0.55104   0.83333   0.00000  Uiso   1.00
Zn1320 Zn    0.16667   0.44896   0.83333   0.00000  Uiso   1.00
C1321  C     0.42000   0.49958   0.83433   0.00000  Uiso   1.00
C1322  C     0.35549   0.53257   0.86296   0.00000  Uiso   1.00
C1323  C     0.62384   0.50079   0.83347   0.00000  Uiso   1.00
C1324  C     0.37568   0.49865   0.83622   0.00000  Uiso   1.00
C1325  C     0.52139   0.35788   0.86957   0.00000  Uiso   1.00
C1326  C     0.47917   0.64213   0.79663   0.00000  Uiso   1.00
C1327  C     0.47989   0.35704   0.79602   0.00000  Uiso   1.00
C1328  C     0.52154   0.64295   0.86944   0.00000  Uiso   1.00
C1329  C     0.36630   0.39033   0.82173   0.00000  Uiso   1.00
C1330  C     0.62052   0.53732   0.94349   0.00000  Uiso   1.00
C1331  C     0.61863   0.45885   0.72569   0.00000  Uiso   1.00
C1332  C     0.57982   0.50033   0.83329   0.00000  Uiso   1.00
C1333  C     0.37495   0.60652   0.87138   0.00000  Uiso   1.00
C1334  C     0.50005   0.50001   0.73960   0.00000  Uiso   1.00
C1335  C     0.50018   0.50000   0.92707   0.00000  Uiso   1.00
C1336  C     0.50022   0.50001   0.68848   0.00000  Uiso   1.00
C1337  C     0.50027   0.49999   0.97819   0.00000  Uiso   1.00
C1338  C     0.35323   0.46439   0.81072   0.00000  Uiso   1.00
C1339  C     0.64568   0.53099   0.86492   0.00000  Uiso   1.00
C1340  C     0.64410   0.46878   0.80460   0.00000  Uiso   1.00
H1341  H     0.38298   0.39534   0.85820   0.00000  Uiso   1.00
H1342  H     0.38014   0.60657   0.83021   0.00000  Uiso   1.00
H1343  H     0.34435   0.62148   0.87969   0.00000  Uiso   1.00
H1344  H     0.39942   0.62856   0.88866   0.00000  Uiso   1.00
H1345  H     0.57592   0.37494   0.90422   0.00000  Uiso   1.00
H1346  H     0.53385   0.37356   0.94216   0.00000  Uiso   1.00
H1347  H     0.42559   0.62591   0.75947   0.00000  Uiso   1.00
H1348  H     0.46890   0.62594   0.72376   0.00000  Uiso   1.00
H1349  H     0.43080   0.37028   0.74958   0.00000  Uiso   1.00
H1350  H     0.47789   0.37325   0.72261   0.00000  Uiso   1.00
H1351  H     0.57572   0.62938   0.90539   0.00000  Uiso   1.00
H1352  H     0.66602   0.38309   0.82828   0.00000  Uiso   1.00
H1353  H     0.53297   0.62692   0.94195   0.00000  Uiso   1.00
H1354  H     0.37884   0.35982   0.80400   0.00000  Uiso   1.00
H1355  H     0.65136   0.53045   0.96119   0.00000  Uiso   1.00
H1356  H     0.60354   0.55973   0.96909   0.00000  Uiso   1.00
H1357  H     0.60191   0.50550   0.93967   0.00000  Uiso   1.00
H1358  H     0.60120   0.49094   0.72697   0.00000  Uiso   1.00
H1359  H     0.60084   0.43536   0.70078   0.00000  Uiso   1.00
H1360  H     0.64979   0.46467   0.70888   0.00000  Uiso   1.00
N1361  N     0.50000   0.61907   0.83333   0.00000  Uiso   1.00
N1362  N     0.50000   0.38093   0.83333   0.00000  Uiso   1.00
N1363  N     0.54446   0.38295   0.90675   0.00000  Uiso   1.00
N1364  N     0.45694   0.61713   0.75870   0.00000  Uiso   1.00
N1365  N     0.46157   0.38107   0.75499   0.00000  Uiso   1.00
N1366  N     0.54456   0.61884   0.90673   0.00000  Uiso   1.00
O1367  O     0.43892   0.53821   0.83333   0.00000  Uiso   1.00
O1368  O     0.62497   0.55929   0.89693   0.00000  Uiso   1.00
O1369  O     0.62218   0.43910   0.77361   0.00000  Uiso   1.00
O1370  O     0.37814   0.56300   0.89237   0.00000  Uiso   1.00
O1371  O     0.56108   0.46179   0.83334   0.00000  Uiso   1.00
O1372  O     0.56108   0.53821   0.83334   0.00000  Uiso   1.00
O1373  O     0.43892   0.46179   0.83333   0.00000  Uiso   1.00
O1374  O     0.50000   0.53821   0.76178   0.00000  Uiso   1.00
O1375  O     0.50000   0.46179   0.90489   0.00000  Uiso   1.00
O1376  O     0.50000   0.53821   0.90489   0.00000  Uiso   1.00
O1377  O     0.50000   0.46179   0.76178   0.00000  Uiso   1.00
O1378  O     0.37265   0.42781   0.78974   0.00000  Uiso   1.00
Zn1379 Zn    0.50000   0.55104   0.83333   0.00000  Uiso   1.00
Zn1380 Zn    0.50000   0.44896   0.83333   0.00000  Uiso   1.00
C1381  C     0.75333   0.49958   0.83433   0.00000  Uiso   1.00
C1382  C     0.68882   0.53257   0.86296   0.00000  Uiso   1.00
C1383  C     0.95717   0.50079   0.83347   0.00000  Uiso   1.00
C1384  C     0.70901   0.49865   0.83622   0.00000  Uiso   1.00
C1385  C     0.85472   0.35788   0.86957   0.00000  Uiso   1.00
C1386  C     0.81251   0.64213   0.79663   0.00000  Uiso   1.00
C1387  C     0.81322   0.35704   0.79602   0.00000  Uiso   1.00
C1388  C     0.85487   0.64295   0.86944   0.00000  Uiso   1.00
C1389  C     0.69963   0.39033   0.82173   0.00000  Uiso   1.00
C1390  C     0.95386   0.53732   0.94349   0.00000  Uiso   1.00
C1391  C     0.95196   0.45885   0.72569   0.00000  Uiso   1.00
C1392  C     0.91315   0.50033   0.83329   0.00000  Uiso   1.00
C1393  C     0.70828   0.60652   0.87138   0.00000  Uiso   1.00
C1394  C     0.83338   0.50001   0.73960   0.00000  Uiso   1.00
C1395  C     0.83351   0.50000   0.92707   0.00000  Uiso   1.00
C1396  C     0.83355   0.50001   0.68848   0.00000  Uiso   1.00
C1397  C     0.83360   0.49999   0.97819   0.00000  Uiso   1.00
C1398  C     0.68656   0.46439   0.81072   0.00000  Uiso   1.00
C1399  C     0.97901   0.53099   0.86492   0.00000  Uiso   1.00
C1400  C     0.97743   0.46878   0.80460   0.00000  Uiso   1.00
H1401  H     0.71631   0.39534   0.85820   0.00000  Uiso   1.00
H1402  H     0.71347   0.60657   0.83021   0.00000  Uiso   1.00
H1403  H     0.67769   0.62148   0.87969   0.00000  Uiso   1.00
H1404  H     0.73275   0.62856   0.88866   0.00000  Uiso   1.00
H1405  H     0.90925   0.37494   0.90422   0.00000  Uiso   1.00
H1406  H     0.86719   0.37356   0.94216   0.00000  Uiso   1.00
H1407  H     0.75893   0.62591   0.75947   0.00000  Uiso   1.00
H1408  H     0.80224   0.62594   0.72376   0.00000  Uiso   1.00
H1409  H     0.76413   0.37028   0.74958   0.00000  Uiso   1.00
H1410  H     0.81122   0.37325   0.72261   0.00000  Uiso   1.00
H1411  H     0.90905   0.62938   0.90539   0.00000  Uiso   1.00
H1412  H     0.99935   0.38309   0.82828   0.00000  Uiso   1.00
H1413  H     0.86631   0.62692   0.94195   0.00000  Uiso   1.00
H1414  H     0.71217   0.35982   0.80400   0.00000  Uiso   1.00
H1415  H     0.98469   0.53045   0.96119   0.00000  Uiso   1.00
H1416  H     0.93687   0.55973   0.96909   0.00000  Uiso   1.00
H1417  H     0.93524   0.50550   0.93967   0.00000  Uiso   1.00
H1418  H     0.93453   0.49094   0.72697   0.00000  Uiso   1.00
H1419  H     0.93417   0.43536   0.70078   0.00000  Uiso   1.00
H1420  H     0.98312   0.46467   0.70888   0.00000  Uiso   1.00
N1421  N     0.83333   0.61907   0.83333   0.00000  Uiso   1.00
N1422  N     0.83333   0.38093   0.83333   0.00000  Uiso   1.00
N1423  N     0.87779   0.38295   0.90675   0.00000  Uiso   1.00
N1424  N     0.79027   0.61713   0.75870   0.00000  Uiso   1.00
N1425  N     0.79490   0.38107   0.75499   0.00000  Uiso   1.00
N1426  N     0.87789   0.61884   0.90673   0.00000  Uiso   1.00
O1427  O     0.77226   0.53821   0.83333   0.00000  Uiso   1.00
O1428  O     0.95830   0.55929   0.89693   0.00000  Uiso   1.00
O1429  O     0.95551   0.43910   0.77361   0.00000  Uiso   1.00
O1430  O     0.71148   0.56300   0.89237   0.00000  Uiso   1.00
O1431  O     0.89441   0.46179   0.83334   0.00000  Uiso   1.00
O1432  O     0.89441   0.53821   0.83334   0.00000  Uiso   1.00
O1433  O     0.77226   0.46179   0.83333   0.00000  Uiso   1.00
O1434  O     0.83334   0.53821   0.76178   0.00000  Uiso   1.00
O1435  O     0.83333   0.46179   0.90489   0.00000  Uiso   1.00
O1436  O     0.83333   0.53821   0.90489   0.00000  Uiso   1.00
O1437  O     0.83334   0.46179   0.76178   0.00000  Uiso   1.00
O1438  O     0.70598   0.42781   0.78974   0.00000  Uiso   1.00
Zn1439 Zn    0.83333   0.55104   0.83333   0.00000  Uiso   1.00
Zn1440 Zn    0.83333   0.44896   0.83333   0.00000  Uiso   1.00
C1441  C     0.08666   0.83291   0.83433   0.00000  Uiso   1.00
C1442  C     0.02215   0.86590   0.86296   0.00000  Uiso   1.00
C1443  C     0.29051   0.83412   0.83347   0.00000  Uiso   1.00
C1444  C     0.04235   0.83198   0.83622   0.00000  Uiso   1.00
C1445  C     0.18805   0.69122   0.86957   0.00000  Uiso   1.00
C1446  C     0.14584   0.97546   0.79663   0.00000  Uiso   1.00
C1447  C     0.14656   0.69037   0.79602   0.00000  Uiso   1.00
C1448  C     0.18821   0.97629   0.86944   0.00000  Uiso   1.00
C1449  C     0.03297   0.72366   0.82173   0.00000  Uiso   1.00
C1450  C     0.28719   0.87065   0.94349   0.00000  Uiso   1.00
C1451  C     0.28530   0.79219   0.72569   0.00000  Uiso   1.00
C1452  C     0.24649   0.83366   0.83329   0.00000  Uiso   1.00
C1453  C     0.04161   0.93985   0.87138   0.00000  Uiso   1.00
C1454  C     0.16671   0.83334   0.73960   0.00000  Uiso   1.00
C1455  C     0.16685   0.83333   0.92707   0.00000  Uiso   1.00
C1456  C     0.16688   0.83335   0.68848   0.00000  Uiso   1.00
C1457  C     0.16693   0.83333   0.97819   0.00000  Uiso   1.00
C1458  C     0.01989   0.79773   0.81072   0.00000  Uiso   1.00
C1459  C     0.31235   0.86432   0.86492   0.00000  Uiso   1.00
C1460  C     0.31076   0.80211   0.80460   0.00000  Uiso   1.00
H1461  H     0.04964   0.72867   0.85820   0.00000  Uiso   1.00
H1462  H     0.04680   0.93990   0.83021   0.00000  Uiso   1.00
H1463  H     0.01102   0.95481   0.87969   0.00000  Uiso   1.00
H1464  H     0.06608   0.96190   0.88866   0.00000  Uiso   1.00
H1465  H     0.24258   0.70827   0.90422   0.00000  Uiso   1.00
H1466  H     0.20052   0.70689   0.94216   0.00000  Uiso   1.00
H1467  H     0.09226   0.95924   0.75947   0.00000  Uiso   1.00
H1468  H     0.13557   0.95927   0.72376   0.00000  Uiso   1.00
H1469  H     0.09747   0.70361   0.74958   0.00000  Uiso   1.00
H1470  H     0.14455   0.70658   0.72261   0.00000  Uiso   1.00
H1471  H     0.24238   0.96271   0.90539   0.00000  Uiso   1.00
H1472  H     0.33269   0.71642   0.82828   0.00000  Uiso   1.00
H1473  H     0.19964   0.96025   0.94195   0.00000  Uiso   1.00
H1474  H     0.04551   0.69315   0.80400   0.00000  Uiso   1.00
H1475  H     0.31803   0.86378   0.96119   0.00000  Uiso   1.00
H1476  H     0.27020   0.89306   0.96909   0.00000  Uiso   1.00
H1477  H     0.26857   0.83883   0.93967   0.00000  Uiso   1.00
H1478  H     0.26786   0.82427   0.72697   0.00000  Uiso   1.00
H1479  H     0.26751   0.76869   0.70078   0.00000  Uiso   1.00
H1480  H     0.31645   0.79801   0.70888   0.00000  Uiso   1.00
N1481  N     0.16667   0.95240   0.83333   0.00000  Uiso   1.00
N1482  N     0.16667   0.71427   0.83333   0.00000  Uiso   1.00
N1483  N     0.21112   0.71628   0.90675   0.00000  Uiso   1.00
N1484  N     0.12360   0.95047   0.75870   0.00000  Uiso   1.00
N1485  N     0.12824   0.71441   0.75499   0.00000  Uiso   1.00
N1486  N     0.21122   0.95217   0.90673   0.00000  Uiso   1.00
O1487  O     0.10559   0.87154   0.83333   0.00000  Uiso   1.00
O1488  O     0.29164   0.89262   0.89693   0.00000  Uiso   1.00
O1489  O     0.28884   0.77244   0.77361   0.00000  Uiso   1.00
O1490  O     0.04481   0.89633   0.89237   0.00000  Uiso   1.00
O1491  O     0.22774   0.79513   0.83334   0.00000  Uiso   1.00
O1492  O     0.22774   0.87154   0.83334   0.00000  Uiso   1.00
O1493  O     0.10559   0.79513   0.83333   0.00000  Uiso   1.00
O1494  O     0.16667   0.87155   0.76178   0.00000  Uiso   1.00
O1495  O     0.16666   0.79512   0.90489   0.00000  Uiso   1.00
O1496  O     0.16666   0.87155   0.90489   0.00000  Uiso   1.00
O1497  O     0.16667   0.79512   0.76178   0.00000  Uiso   1.00
O1498  O     0.03932   0.76114   0.78974   0.00000  Uiso   1.00
Zn1499 Zn    0.16667   0.88437   0.83333   0.00000  Uiso   1.00
Zn1500 Zn    0.16667   0.78229   0.83333   0.00000  Uiso   1.00
C1501  C     0.42000   0.83291   0.83433   0.00000  Uiso   1.00
C1502  C     0.35549   0.86590   0.86296   0.00000  Uiso   1.00
C1503  C     0.62384   0.83412   0.83347   0.00000  Uiso   1.00
C1504  C     0.37568   0.83198   0.83622   0.00000  Uiso   1.00
C1505  C     0.52139   0.69122   0.86957   0.00000  Uiso   1.00
C1506  C     0.47917   0.97546   0.79663   0.00000  Uiso   1.00
C1507  C     0.47989   0.69037   0.79602   0.00000  Uiso   1.00
C1508  C     0.52154   0.97629   0.86944   0.00000  Uiso   1.00
C1509  C     0.36630   0.72366   0.82173   0.00000  Uiso   1.00
C1510  C     0.62052   0.87065   0.94349   0.00000  Uiso   1.00
C1511  C     0.61863   0.79219   0.72569   0.00000  Uiso   1.00
C1512  C     0.57982   0.83366   0.83329   0.00000  Uiso   1.00
C1513  C     0.37495   0.93985   0.87138   0.00000  Uiso   1.00
C1514  C     0.50005   0.83334   0.73960   0.00000  Uiso   1.00
C1515  C     0.50018   0.83333   0.92707   0.00000  Uiso   1.00
C1516  C     0.50022   0.83335   0.68848   0.00000  Uiso   1.00
C1517  C     0.50027   0.83333   0.97819   0.00000  Uiso   1.00
C1518  C     0.35323   0.79773   0.81072   0.00000  Uiso   1.00
C1519  C     0.64568   0.86432   0.86492   0.00000  Uiso   1.00
C1520  C     0.64410   0.80211   0.80460   0.00000  Uiso   1.00
H1521  H     0.38298   0.72867   0.85820   0.00000  Uiso   1.00
H1522  H     0.38014   0.93990   0.83021   0.00000  Uiso   1.00
H1523  H     0.34435   0.95481   0.87969   0.00000  Uiso   1.00
H1524  H     0.39942   0.96190   0.88866   0.00000  Uiso   1.00
H1525  H     0.57592   0.70827   0.90422   0.00000  Uiso   1.00
H1526  H     0.53385   0.70689   0.94216   0.00000  Uiso   1.00
H1527  H     0.42559   0.95924   0.75947   0.00000  Uiso   1.00
H1528  H     0.46890   0.95927   0.72376   0.00000  Uiso   1.00
H1529  H     0.43080   0.70361   0.74958   0.00000  Uiso   1.00
H1530  H     0.47789   0.70658   0.72261   0.00000  Uiso   1.00
H1531  H     0.57572   0.96271   0.90539   0.00000  Uiso   1.00
H1532  H     0.66602   0.71642   0.82828   0.00000  Uiso   1.00
H1533  H     0.53297   0.96025   0.94195   0.00000  Uiso   1.00
H1534  H     0.37884   0.69315   0.80400   0.00000  Uiso   1.00
H1535  H     0.65136   0.86378   0.96119   0.00000  Uiso   1.00
H1536  H     0.60354   0.89306   0.96909   0.00000  Uiso   1.00
H1537  H     0.60191   0.83883   0.93967   0.00000  Uiso   1.00
H1538  H     0.60120   0.82427   0.72697   0.00000  Uiso   1.00
H1539  H     0.60084   0.76869   0.70078   0.00000  Uiso   1.00
H1540  H     0.64979   0.79801   0.70888   0.00000  Uiso   1.00
N1541  N     0.50000   0.95240   0.83333   0.00000  Uiso   1.00
N1542  N     0.50000   0.71427   0.83333   0.00000  Uiso   1.00
N1543  N     0.54446   0.71628   0.90675   0.00000  Uiso   1.00
N1544  N     0.45694   0.95047   0.75870   0.00000  Uiso   1.00
N1545  N     0.46157   0.71441   0.75499   0.00000  Uiso   1.00
N1546  N     0.54456   0.95217   0.90673   0.00000  Uiso   1.00
O1547  O     0.43892   0.87154   0.83333   0.00000  Uiso   1.00
O1548  O     0.62497   0.89262   0.89693   0.00000  Uiso   1.00
O1549  O     0.62218   0.77244   0.77361   0.00000  Uiso   1.00
O1550  O     0.37814   0.89633   0.89237   0.00000  Uiso   1.00
O1551  O     0.56108   0.79513   0.83334   0.00000  Uiso   1.00
O1552  O     0.56108   0.87154   0.83334   0.00000  Uiso   1.00
O1553  O     0.43892   0.79513   0.83333   0.00000  Uiso   1.00
O1554  O     0.50000   0.87155   0.76178   0.00000  Uiso   1.00
O1555  O     0.50000   0.79512   0.90489   0.00000  Uiso   1.00
O1556  O     0.50000   0.87155   0.90489   0.00000  Uiso   1.00
O1557  O     0.50000   0.79512   0.76178   0.00000  Uiso   1.00
O1558  O     0.37265   0.76114   0.78974   0.00000  Uiso   1.00
Zn1559 Zn    0.50000   0.88437   0.83333   0.00000  Uiso   1.00
Zn1560 Zn    0.50000   0.78229   0.83333   0.00000  Uiso   1.00
C1561  C     0.75333   0.83291   0.83433   0.00000  Uiso   1.00
C1562  C     0.68882   0.86590   0.86296   0.00000  Uiso   1.00
C1563  C     0.95717   0.83412   0.83347   0.00000  Uiso   1.00
C1564  C     0.70901   0.83198   0.83622   0.00000  Uiso   1.00
C1565  C     0.85472   0.69122   0.86957   0.00000  Uiso   1.00
C1566  C     0.81251   0.97546   0.79663   0.00000  Uiso   1.00
C1567  C     0.81322   0.69037   0.79602   0.00000  Uiso   1.00
C1568  C     0.85487   0.97629   0.86944   0.00000  Uiso   1.00
C1569  C     0.69963   0.72366   0.82173   0.00000  Uiso   1.00
C1570  C     0.95386   0.87065   0.94349   0.00000  Uiso   1.00
C1571  C     0.95196   0.79219   0.72569   0.00000  Uiso   1.00
C1572  C     0.91315   0.83366   0.83329   0.00000  Uiso   1.00
C1573  C     0.70828   0.93985   0.87138   0.00000  Uiso   1.00
C1574  C     0.83338   0.83334   0.73960   0.00000  Uiso   1.00
C1575  C     0.83351   0.83333   0.92707   0.00000  Uiso   1.00
C1576  C     0.83355   0.83335   0.68848   0.00000  Uiso   1.00
C1577  C     0.83360   0.83333   0.97819   0.00000  Uiso   1.00
C1578  C     0.68656   0.79773   0.81072   0.00000  Uiso   1.00
C1579  C     0.97901   0.86432   0.86492   0.00000  Uiso   1.00
C1580  C     0.97743   0.80211   0.80460   0.00000  Uiso   1.00
H1581  H     0.71631   0.72867   0.85820   0.00000  Uiso   1.00
H1582  H     0.71347   0.93990   0.83021   0.00000  Uiso   1.00
H1583  H     0.67769   0.95481   0.87969   0.00000  Uiso   1.00
H1584  H     0.73275   0.96190   0.88866   0.00000  Uiso   1.00
H1585  H     0.90925   0.70827   0.90422   0.00000  Uiso   1.00
H1586  H     0.86719   0.70689   0.94216   0.00000  Uiso   1.00
H1587  H     0.75893   0.95924   0.75947   0.00000  Uiso   1.00
H1588  H     0.80224   0.95927   0.72376   0.00000  Uiso   1.00
H1589  H     0.76413   0.70361   0.74958   0.00000  Uiso   1.00
H1590  H     0.81122   0.70658   0.72261   0.00000  Uiso   1.00
H1591  H     0.90905   0.96271   0.90539   0.00000  Uiso   1.00
H1592  H     0.99935   0.71642   0.82828   0.00000  Uiso   1.00
H1593  H     0.86631   0.96025   0.94195   0.00000  Uiso   1.00
H1594  H     0.71217   0.69315   0.80400   0.00000  Uiso   1.00
H1595  H     0.98469   0.86378   0.96119   0.00000  Uiso   1.00
H1596  H     0.93687   0.89306   0.96909   0.00000  Uiso   1.00
H1597  H     0.93524   0.83883   0.93967   0.00000  Uiso   1.00
H1598  H     0.93453   0.82427   0.72697   0.00000  Uiso   1.00
H1599  H     0.93417   0.76869   0.70078   0.00000  Uiso   1.00
H1600  H     0.98312   0.79801   0.70888   0.00000  Uiso   1.00
N1601  N     0.83333   0.95240   0.83333   0.00000  Uiso   1.00
N1602  N     0.83333   0.71427   0.83333   0.00000  Uiso   1.00
N1603  N     0.87779   0.71628   0.90675   0.00000  Uiso   1.00
N1604  N     0.79027   0.95047   0.75870   0.00000  Uiso   1.00
N1605  N     0.79490   0.71441   0.75499   0.00000  Uiso   1.00
N1606  N     0.87789   0.95217   0.90673   0.00000  Uiso   1.00
O1607  O     0.77226   0.87154   0.83333   0.00000  Uiso   1.00
O1608  O     0.95830   0.89262   0.89693   0.00000  Uiso   1.00
O1609  O     0.95551   0.77244   0.77361   0.00000  Uiso   1.00
O1610  O     0.71148   0.89633   0.89237   0.00000  Uiso   1.00
O1611  O     0.89441   0.79513   0.83334   0.00000  Uiso   1.00
O1612  O     0.89441   0.87154   0.83334   0.00000  Uiso   1.00
O1613  O     0.77226   0.79513   0.83333   0.00000  Uiso   1.00
O1614  O     0.83334   0.87155   0.76178   0.00000  Uiso   1.00
O1615  O     0.83333   0.79512   0.90489   0.00000  Uiso   1.00
O1616  O     0.83333   0.87155   0.90489   0.00000  Uiso   1.00
O1617  O     0.83334   0.79512   0.76178   0.00000  Uiso   1.00
O1618  O     0.70598   0.76114   0.78974   0.00000  Uiso   1.00
Zn1619 Zn    0.83333   0.88437   0.83333   0.00000  Uiso   1.00
Zn1620 Zn    0.83333   0.78229   0.83333   0.00000  Uiso   1.00
loop_
_geom_bond_atom_site_label_1
_geom_bond_atom_site_label_2
_geom_bond_distance
_geom_bond_site_symmetry_2
_ccdc_geom_bond_type
C1     C4      1.425   .     S
C1     O53     1.285   .     A
C1     O47     1.289   .     A
C2     C4      1.407   .     A
C2     O50     1.387   .     S
C2     C139    1.387   1_455 S
C3     C19     1.401   .     A
C3     C20     1.398   .     A
C3     C12     1.413   .     S
C4     C18     1.407   .     A
C5     N42     1.368   .     A
C5     N43     1.431   .     S
C5     C368    1.433   1_545 S
C6     N44     1.431   .     S
C6     N41     1.368   .     A
C6     C187    1.432   .     S
C7     N45     1.431   .     S
C7     N42     1.370   .     A
C7     C366    1.432   1_545 S
C8     N41     1.369   .     A
C8     N46     1.430   .     S
C8     C185    1.433   .     S
C9     H21     1.113   .     S
C9     H34     1.106   .     S
C9     O58     1.416   .     S
C9     H152    1.113   1_455 S
C10    H37     1.113   .     S
C10    O48     1.411   .     S
C10    H35     1.113   .     S
C10    H36     1.109   .     S
C11    H38     1.113   .     S
C11    O49     1.410   .     S
C11    H39     1.109   .     S
C11    H40     1.113   .     S
C12    O51     1.284   .     A
C12    O52     1.284   .     A
C13    H22     1.114   .     S
C13    H24     1.109   .     S
C13    H23     1.110   .     S
C13    O50     1.412   .     S
C14    O54     1.279   .     A
C14    C16     1.364   .     S
C14    O57     1.279   .     A
C15    O56     1.279   .     A
C15    C17     1.364   .     S
C15    O55     1.279   .     A
C16    C1097   1.164   1_554 S
C17    C556    1.164   .     S
C18    O58     1.384   .     S
C18    C140    1.379   1_455 S
C19    O48     1.383   .     S
C19    C62     1.387   .     S
C20    O49     1.385   .     S
C20    C78     1.379   .     S
H25    N43     1.045   .     S
H26    N43     1.045   .     S
H27    N44     1.044   .     S
H28    N44     1.045   .     S
H29    N45     1.042   .     S
H30    N45     1.045   .     S
H31    N46     1.045   .     S
H32    C69     1.113   .     S
H33    N46     1.045   .     S
N41    Zn59    2.019   .     S
N42    Zn60    2.019   .     S
O47    Zn59    1.992   .     S
O51    Zn60    1.992   .     S
O52    Zn59    2.004   .     S
O53    Zn60    2.004   .     S
O54    Zn59    1.947   .     S
O55    Zn60    1.947   .     S
O56    Zn59    1.947   .     S
O57    Zn60    1.947   .     S
C61    C64     1.425   .     S
C61    O113    1.285   .     A
C61    O107    1.289   .     A
C62    C64     1.407   .     A
C62    O110    1.387   .     S
C63    C79     1.401   .     A
C63    C80     1.398   .     A
C63    C72     1.413   .     S
C64    C78     1.407   .     A
C65    N102    1.368   .     A
C65    N103    1.431   .     S
C65    C428    1.433   1_545 S
C66    N104    1.431   .     S
C66    N101    1.368   .     A
C66    C247    1.432   .     S
C67    N105    1.431   .     S
C67    N102    1.370   .     A
C67    C426    1.432   1_545 S
C68    N101    1.369   .     A
C68    N106    1.430   .     S
C68    C245    1.433   .     S
C69    H81     1.113   .     S
C69    H94     1.106   .     S
C69    O118    1.416   .     S
C70    H97     1.113   .     S
C70    O108    1.411   .     S
C70    H95     1.113   .     S
C70    H96     1.109   .     S
C71    H98     1.113   .     S
C71    O109    1.410   .     S
C71    H99     1.109   .     S
C71    H100    1.113   .     S
C72    O111    1.284   .     A
C72    O112    1.284   .     A
C73    H82     1.114   .     S
C73    H84     1.109   .     S
C73    H83     1.110   .     S
C73    O110    1.412   .     S
C74    O114    1.279   .     A
C74    C76     1.364   .     S
C74    O117    1.279   .     A
C75    O116    1.279   .     A
C75    C77     1.364   .     S
C75    O115    1.279   .     A
C76    C1157   1.164   1_554 S
C77    C616    1.164   .     S
C78    O118    1.384   .     S
C79    O108    1.383   .     S
C79    C122    1.387   .     S
C80    O109    1.385   .     S
C80    C138    1.379   .     S
H85    N103    1.045   .     S
H86    N103    1.045   .     S
H87    N104    1.044   .     S
H88    N104    1.045   .     S
H89    N105    1.042   .     S
H90    N105    1.045   .     S
H91    N106    1.045   .     S
H92    C129    1.113   .     S
H93    N106    1.045   .     S
N101   Zn119   2.019   .     S
N102   Zn120   2.019   .     S
O107   Zn119   1.992   .     S
O111   Zn120   1.992   .     S
O112   Zn119   2.004   .     S
O113   Zn120   2.004   .     S
O114   Zn119   1.947   .     S
O115   Zn120   1.947   .     S
O116   Zn119   1.947   .     S
O117   Zn120   1.947   .     S
C121   C124    1.425   .     S
C121   O173    1.285   .     A
C121   O167    1.289   .     A
C122   C124    1.407   .     A
C122   O170    1.387   .     S
C123   C139    1.401   .     A
C123   C140    1.398   .     A
C123   C132    1.413   .     S
C124   C138    1.407   .     A
C125   N162    1.368   .     A
C125   N163    1.431   .     S
C125   C488    1.433   1_545 S
C126   N164    1.431   .     S
C126   N161    1.368   .     A
C126   C307    1.432   .     S
C127   N165    1.431   .     S
C127   N162    1.370   .     A
C127   C486    1.432   1_545 S
C128   N161    1.369   .     A
C128   N166    1.430   .     S
C128   C305    1.433   .     S
C129   H141    1.113   .     S
C129   H154    1.106   .     S
C129   O178    1.416   .     S
C130   H157    1.113   .     S
C130   O168    1.411   .     S
C130   H155    1.113   .     S
C130   H156    1.109   .     S
C131   H158    1.113   .     S
C131   O169    1.410   .     S
C131   H159    1.109   .     S
C131   H160    1.113   .     S
C132   O171    1.284   .     A
C132   O172    1.284   .     A
C133   H142    1.114   .     S
C133   H144    1.109   .     S
C133   H143    1.110   .     S
C133   O170    1.412   .     S
C134   O174    1.279   .     A
C134   C136    1.364   .     S
C134   O177    1.279   .     A
C135   O176    1.279   .     A
C135   C137    1.364   .     S
C135   O175    1.279   .     A
C136   C1217   1.164   1_554 S
C137   C676    1.164   .     S
C138   O178    1.384   .     S
C139   O168    1.383   .     S
C139   C2      1.387   1_655 S
C140   O169    1.385   .     S
C140   C18     1.379   1_655 S
H145   N163    1.045   .     S
H146   N163    1.045   .     S
H147   N164    1.044   .     S
H148   N164    1.045   .     S
H149   N165    1.042   .     S
H150   N165    1.045   .     S
H151   N166    1.045   .     S
H152   C9      1.113   1_655 S
H153   N166    1.045   .     S
N161   Zn179   2.019   .     S
N162   Zn180   2.019   .     S
O167   Zn179   1.992   .     S
O171   Zn180   1.992   .     S
O172   Zn179   2.004   .     S
O173   Zn180   2.004   .     S
O174   Zn179   1.947   .     S
O175   Zn180   1.947   .     S
O176   Zn179   1.947   .     S
O177   Zn180   1.947   .     S
C181   C184    1.425   .     S
C181   O233    1.285   .     A
C181   O227    1.289   .     A
C182   C184    1.407   .     A
C182   O230    1.387   .     S
C182   C319    1.387   1_455 S
C183   C199    1.401   .     A
C183   C200    1.398   .     A
C183   C192    1.413   .     S
C184   C198    1.407   .     A
C185   N222    1.368   .     A
C185   N223    1.431   .     S
C186   N224    1.431   .     S
C186   N221    1.368   .     A
C186   C367    1.432   .     S
C187   N225    1.431   .     S
C187   N222    1.370   .     A
C188   N221    1.369   .     A
C188   N226    1.430   .     S
C188   C365    1.433   .     S
C189   H201    1.113   .     S
C189   H214    1.106   .     S
C189   O238    1.416   .     S
C189   H332    1.113   1_455 S
C190   H217    1.113   .     S
C190   O228    1.411   .     S
C190   H215    1.113   .     S
C190   H216    1.109   .     S
C191   H218    1.113   .     S
C191   O229    1.410   .     S
C191   H219    1.109   .     S
C191   H220    1.113   .     S
C192   O231    1.284   .     A
C192   O232    1.284   .     A
C193   H202    1.114   .     S
C193   H204    1.109   .     S
C193   H203    1.110   .     S
C193   O230    1.412   .     S
C194   O234    1.279   .     A
C194   C196    1.364   .     S
C194   O237    1.279   .     A
C195   O236    1.279   .     A
C195   C197    1.364   .     S
C195   O235    1.279   .     A
C196   C1277   1.164   1_554 S
C197   C736    1.164   .     S
C198   O238    1.384   .     S
C198   C320    1.379   1_455 S
C199   O228    1.383   .     S
C199   C242    1.387   .     S
C200   O229    1.385   .     S
C200   C258    1.379   .     S
H205   N223    1.045   .     S
H206   N223    1.045   .     S
H207   N224    1.044   .     S
H208   N224    1.045   .     S
H209   N225    1.042   .     S
H210   N225    1.045   .     S
H211   N226    1.045   .     S
H212   C249    1.113   .     S
H213   N226    1.045   .     S
N221   Zn239   2.019   .     S
N222   Zn240   2.019   .     S
O227   Zn239   1.992   .     S
O231   Zn240   1.992   .     S
O232   Zn239   2.004   .     S
O233   Zn240   2.004   .     S
O234   Zn239   1.947   .     S
O235   Zn240   1.947   .     S
O236   Zn239   1.947   .     S
O237   Zn240   1.947   .     S
C241   C244    1.425   .     S
C241   O293    1.285   .     A
C241   O287    1.289   .     A
C242   C244    1.407   .     A
C242   O290    1.387   .     S
C243   C259    1.401   .     A
C243   C260    1.398   .     A
C243   C252    1.413   .     S
C244   C258    1.407   .     A
C245   N282    1.368   .     A
C245   N283    1.431   .     S
C246   N284    1.431   .     S
C246   N281    1.368   .     A
C246   C427    1.432   .     S
C247   N285    1.431   .     S
C247   N282    1.370   .     A
C248   N281    1.369   .     A
C248   N286    1.430   .     S
C248   C425    1.433   .     S
C249   H261    1.113   .     S
C249   H274    1.106   .     S
C249   O298    1.416   .     S
C250   H277    1.113   .     S
C250   O288    1.411   .     S
C250   H275    1.113   .     S
C250   H276    1.109   .     S
C251   H278    1.113   .     S
C251   O289    1.410   .     S
C251   H279    1.109   .     S
C251   H280    1.113   .     S
C252   O291    1.284   .     A
C252   O292    1.284   .     A
C253   H262    1.114   .     S
C253   H264    1.109   .     S
C253   H263    1.110   .     S
C253   O290    1.412   .     S
C254   O294    1.279   .     A
C254   C256    1.364   .     S
C254   O297    1.279   .     A
C255   O296    1.279   .     A
C255   C257    1.364   .     S
C255   O295    1.279   .     A
C256   C1337   1.164   1_554 S
C257   C796    1.164   .     S
C258   O298    1.384   .     S
C259   O288    1.383   .     S
C259   C302    1.387   .     S
C260   O289    1.385   .     S
C260   C318    1.379   .     S
H265   N283    1.045   .     S
H266   N283    1.045   .     S
H267   N284    1.044   .     S
H268   N284    1.045   .     S
H269   N285    1.042   .     S
H270   N285    1.045   .     S
H271   N286    1.045   .     S
H272   C309    1.113   .     S
H273   N286    1.045   .     S
N281   Zn299   2.019   .     S
N282   Zn300   2.019   .     S
O287   Zn299   1.992   .     S
O291   Zn300   1.992   .     S
O292   Zn299   2.004   .     S
O293   Zn300   2.004   .     S
O294   Zn299   1.947   .     S
O295   Zn300   1.947   .     S
O296   Zn299   1.947   .     S
O297   Zn300   1.947   .     S
C301   C304    1.425   .     S
C301   O353    1.285   .     A
C301   O347    1.289   .     A
C302   C304    1.407   .     A
C302   O350    1.387   .     S
C303   C319    1.401   .     A
C303   C320    1.398   .     A
C303   C312    1.413   .     S
C304   C318    1.407   .     A
C305   N342    1.368   .     A
C305   N343    1.431   .     S
C306   N344    1.431   .     S
C306   N341    1.368   .     A
C306   C487    1.432   .     S
C307   N345    1.431   .     S
C307   N342    1.370   .     A
C308   N341    1.369   .     A
C308   N346    1.430   .     S
C308   C485    1.433   .     S
C309   H321    1.113   .     S
C309   H334    1.106   .     S
C309   O358    1.416   .     S
C310   H337    1.113   .     S
C310   O348    1.411   .     S
C310   H335    1.113   .     S
C310   H336    1.109   .     S
C311   H338    1.113   .     S
C311   O349    1.410   .     S
C311   H339    1.109   .     S
C311   H340    1.113   .     S
C312   O351    1.284   .     A
C312   O352    1.284   .     A
C313   H322    1.114   .     S
C313   H324    1.109   .     S
C313   H323    1.110   .     S
C313   O350    1.412   .     S
C314   O354    1.279   .     A
C314   C316    1.364   .     S
C314   O357    1.279   .     A
C315   O356    1.279   .     A
C315   C317    1.364   .     S
C315   O355    1.279   .     A
C316   C1397   1.164   1_554 S
C317   C856    1.164   .     S
C318   O358    1.384   .     S
C319   O348    1.383   .     S
C319   C182    1.387   1_655 S
C320   O349    1.385   .     S
C320   C198    1.379   1_655 S
H325   N343    1.045   .     S
H326   N343    1.045   .     S
H327   N344    1.044   .     S
H328   N344    1.045   .     S
H329   N345    1.042   .     S
H330   N345    1.045   .     S
H331   N346    1.045   .     S
H332   C189    1.113   1_655 S
H333   N346    1.045   .     S
N341   Zn359   2.019   .     S
N342   Zn360   2.019   .     S
O347   Zn359   1.992   .     S
O351   Zn360   1.992   .     S
O352   Zn359   2.004   .     S
O353   Zn360   2.004   .     S
O354   Zn359   1.947   .     S
O355   Zn360   1.947   .     S
O356   Zn359   1.947   .     S
O357   Zn360   1.947   .     S
C361   C364    1.425   .     S
C361   O413    1.285   .     A
C361   O407    1.289   .     A
C362   C364    1.407   .     A
C362   O410    1.387   .     S
C362   C499    1.387   1_455 S
C363   C379    1.401   .     A
C363   C380    1.398   .     A
C363   C372    1.413   .     S
C364   C378    1.407   .     A
C365   N402    1.368   .     A
C365   N403    1.431   .     S
C366   N404    1.431   .     S
C366   N401    1.368   .     A
C366   C7      1.432   1_565 S
C367   N405    1.431   .     S
C367   N402    1.370   .     A
C368   N401    1.369   .     A
C368   N406    1.430   .     S
C368   C5      1.433   1_565 S
C369   H381    1.113   .     S
C369   H394    1.106   .     S
C369   O418    1.416   .     S
C369   H512    1.113   1_455 S
C370   H397    1.113   .     S
C370   O408    1.411   .     S
C370   H395    1.113   .     S
C370   H396    1.109   .     S
C371   H398    1.113   .     S
C371   O409    1.410   .     S
C371   H399    1.109   .     S
C371   H400    1.113   .     S
C372   O411    1.284   .     A
C372   O412    1.284   .     A
C373   H382    1.114   .     S
C373   H384    1.109   .     S
C373   H383    1.110   .     S
C373   O410    1.412   .     S
C374   O414    1.279   .     A
C374   C376    1.364   .     S
C374   O417    1.279   .     A
C375   O416    1.279   .     A
C375   C377    1.364   .     S
C375   O415    1.279   .     A
C376   C1457   1.164   1_554 S
C377   C916    1.164   .     S
C378   O418    1.384   .     S
C378   C500    1.379   1_455 S
C379   O408    1.383   .     S
C379   C422    1.387   .     S
C380   O409    1.385   .     S
C380   C438    1.379   .     S
H385   N403    1.045   .     S
H386   N403    1.045   .     S
H387   N404    1.044   .     S
H388   N404    1.045   .     S
H389   N405    1.042   .     S
H390   N405    1.045   .     S
H391   N406    1.045   .     S
H392   C429    1.113   .     S
H393   N406    1.045   .     S
N401   Zn419   2.019   .     S
N402   Zn420   2.019   .     S
O407   Zn419   1.992   .     S
O411   Zn420   1.992   .     S
O412   Zn419   2.004   .     S
O413   Zn420   2.004   .     S
O414   Zn419   1.947   .     S
O415   Zn420   1.947   .     S
O416   Zn419   1.947   .     S
O417   Zn420   1.947   .     S
C421   C424    1.425   .     S
C421   O473    1.285   .     A
C421   O467    1.289   .     A
C422   C424    1.407   .     A
C422   O470    1.387   .     S
C423   C439    1.401   .     A
C423   C440    1.398   .     A
C423   C432    1.413   .     S
C424   C438    1.407   .     A
C425   N462    1.368   .     A
C425   N463    1.431   .     S
C426   N464    1.431   .     S
C426   N461    1.368   .     A
C426   C67     1.432   1_565 S
C427   N465    1.431   .     S
C427   N462    1.370   .     A
C428   N461    1.369   .     A
C428   N466    1.430   .     S
C428   C65     1.433   1_565 S
C429   H441    1.113   .     S
C429   H454    1.106   .     S
C429   O478    1.416   .     S
C430   H457    1.113   .     S
C430   O468    1.411   .     S
C430   H455    1.113   .     S
C430   H456    1.109   .     S
C431   H458    1.113   .     S
C431   O469    1.410   .     S
C431   H459    1.109   .     S
C431   H460    1.113   .     S
C432   O471    1.284   .     A
C432   O472    1.284   .     A
C433   H442    1.114   .     S
C433   H444    1.109   .     S
C433   H443    1.110   .     S
C433   O470    1.412   .     S
C434   O474    1.279   .     A
C434   C436    1.364   .     S
C434   O477    1.279   .     A
C435   O476    1.279   .     A
C435   C437    1.364   .     S
C435   O475    1.279   .     A
C436   C1517   1.164   1_554 S
C437   C976    1.164   .     S
C438   O478    1.384   .     S
C439   O468    1.383   .     S
C439   C482    1.387   .     S
C440   O469    1.385   .     S
C440   C498    1.379   .     S
H445   N463    1.045   .     S
H446   N463    1.045   .     S
H447   N464    1.044   .     S
H448   N464    1.045   .     S
H449   N465    1.042   .     S
H450   N465    1.045   .     S
H451   N466    1.045   .     S
H452   C489    1.113   .     S
H453   N466    1.045   .     S
N461   Zn479   2.019   .     S
N462   Zn480   2.019   .     S
O467   Zn479   1.992   .     S
O471   Zn480   1.992   .     S
O472   Zn479   2.004   .     S
O473   Zn480   2.004   .     S
O474   Zn479   1.947   .     S
O475   Zn480   1.947   .     S
O476   Zn479   1.947   .     S
O477   Zn480   1.947   .     S
C481   C484    1.425   .     S
C481   O533    1.285   .     A
C481   O527    1.289   .     A
C482   C484    1.407   .     A
C482   O530    1.387   .     S
C483   C499    1.401   .     A
C483   C500    1.398   .     A
C483   C492    1.413   .     S
C484   C498    1.407   .     A
C485   N522    1.368   .     A
C485   N523    1.431   .     S
C486   N524    1.431   .     S
C486   N521    1.368   .     A
C486   C127    1.432   1_565 S
C487   N525    1.431   .     S
C487   N522    1.370   .     A
C488   N521    1.369   .     A
C488   N526    1.430   .     S
C488   C125    1.433   1_565 S
C489   H501    1.113   .     S
C489   H514    1.106   .     S
C489   O538    1.416   .     S
C490   H517    1.113   .     S
C490   O528    1.411   .     S
C490   H515    1.113   .     S
C490   H516    1.109   .     S
C491   H518    1.113   .     S
C491   O529    1.410   .     S
C491   H519    1.109   .     S
C491   H520    1.113   .     S
C492   O531    1.284   .     A
C492   O532    1.284   .     A
C493   H502    1.114   .     S
C493   H504    1.109   .     S
C493   H503    1.110   .     S
C493   O530    1.412   .     S
C494   O534    1.279   .     A
C494   C496    1.364   .     S
C494   O537    1.279   .     A
C495   O536    1.279   .     A
C495   C497    1.364   .     S
C495   O535    1.279   .     A
C496   C1577   1.164   1_554 S
C497   C1036   1.164   .     S
C498   O538    1.384   .     S
C499   O528    1.383   .     S
C499   C362    1.387   1_655 S
C500   O529    1.385   .     S
C500   C378    1.379   1_655 S
H505   N523    1.045   .     S
H506   N523    1.045   .     S
H507   N524    1.044   .     S
H508   N524    1.045   .     S
H509   N525    1.042   .     S
H510   N525    1.045   .     S
H511   N526    1.045   .     S
H512   C369    1.113   1_655 S
H513   N526    1.045   .     S
N521   Zn539   2.019   .     S
N522   Zn540   2.019   .     S
O527   Zn539   1.992   .     S
O531   Zn540   1.992   .     S
O532   Zn539   2.004   .     S
O533   Zn540   2.004   .     S
O534   Zn539   1.947   .     S
O535   Zn540   1.947   .     S
O536   Zn539   1.947   .     S
O537   Zn540   1.947   .     S
C541   C544    1.425   .     S
C541   O593    1.285   .     A
C541   O587    1.289   .     A
C542   C544    1.407   .     A
C542   O590    1.387   .     S
C542   C679    1.387   1_455 S
C543   C559    1.401   .     A
C543   C560    1.398   .     A
C543   C552    1.413   .     S
C544   C558    1.407   .     A
C545   N582    1.368   .     A
C545   N583    1.431   .     S
C545   C908    1.433   1_545 S
C546   N584    1.431   .     S
C546   N581    1.368   .     A
C546   C727    1.432   .     S
C547   N585    1.431   .     S
C547   N582    1.370   .     A
C547   C906    1.432   1_545 S
C548   N581    1.369   .     A
C548   N586    1.430   .     S
C548   C725    1.433   .     S
C549   H561    1.113   .     S
C549   H574    1.106   .     S
C549   O598    1.416   .     S
C549   H692    1.113   1_455 S
C550   H577    1.113   .     S
C550   O588    1.411   .     S
C550   H575    1.113   .     S
C550   H576    1.109   .     S
C551   H578    1.113   .     S
C551   O589    1.410   .     S
C551   H579    1.109   .     S
C551   H580    1.113   .     S
C552   O591    1.284   .     A
C552   O592    1.284   .     A
C553   H562    1.114   .     S
C553   H564    1.109   .     S
C553   H563    1.110   .     S
C553   O590    1.412   .     S
C554   O594    1.279   .     A
C554   C556    1.364   .     S
C554   O597    1.279   .     A
C555   O596    1.279   .     A
C555   C557    1.364   .     S
C555   O595    1.279   .     A
C557   C1096   1.164   .     S
C558   O598    1.384   .     S
C558   C680    1.379   1_455 S
C559   O588    1.383   .     S
C559   C602    1.387   .     S
C560   O589    1.385   .     S
C560   C618    1.379   .     S
H565   N583    1.045   .     S
H566   N583    1.045   .     S
H567   N584    1.044   .     S
H568   N584    1.045   .     S
H569   N585    1.042   .     S
H570   N585    1.045   .     S
H571   N586    1.045   .     S
H572   C609    1.113   .     S
H573   N586    1.045   .     S
N581   Zn599   2.019   .     S
N582   Zn600   2.019   .     S
O587   Zn599   1.992   .     S
O591   Zn600   1.992   .     S
O592   Zn599   2.004   .     S
O593   Zn600   2.004   .     S
O594   Zn599   1.947   .     S
O595   Zn600   1.947   .     S
O596   Zn599   1.947   .     S
O597   Zn600   1.947   .     S
C601   C604    1.425   .     S
C601   O653    1.285   .     A
C601   O647    1.289   .     A
C602   C604    1.407   .     A
C602   O650    1.387   .     S
C603   C619    1.401   .     A
C603   C620    1.398   .     A
C603   C612    1.413   .     S
C604   C618    1.407   .     A
C605   N642    1.368   .     A
C605   N643    1.431   .     S
C605   C968    1.433   1_545 S
C606   N644    1.431   .     S
C606   N641    1.368   .     A
C606   C787    1.432   .     S
C607   N645    1.431   .     S
C607   N642    1.370   .     A
C607   C966    1.432   1_545 S
C608   N641    1.369   .     A
C608   N646    1.430   .     S
C608   C785    1.433   .     S
C609   H621    1.113   .     S
C609   H634    1.106   .     S
C609   O658    1.416   .     S
C610   H637    1.113   .     S
C610   O648    1.411   .     S
C610   H635    1.113   .     S
C610   H636    1.109   .     S
C611   H638    1.113   .     S
C611   O649    1.410   .     S
C611   H639    1.109   .     S
C611   H640    1.113   .     S
C612   O651    1.284   .     A
C612   O652    1.284   .     A
C613   H622    1.114   .     S
C613   H624    1.109   .     S
C613   H623    1.110   .     S
C613   O650    1.412   .     S
C614   O654    1.279   .     A
C614   C616    1.364   .     S
C614   O657    1.279   .     A
C615   O656    1.279   .     A
C615   C617    1.364   .     S
C615   O655    1.279   .     A
C617   C1156   1.164   .     S
C618   O658    1.384   .     S
C619   O648    1.383   .     S
C619   C662    1.387   .     S
C620   O649    1.385   .     S
C620   C678    1.379   .     S
H625   N643    1.045   .     S
H626   N643    1.045   .     S
H627   N644    1.044   .     S
H628   N644    1.045   .     S
H629   N645    1.042   .     S
H630   N645    1.045   .     S
H631   N646    1.045   .     S
H632   C669    1.113   .     S
H633   N646    1.045   .     S
N641   Zn659   2.019   .     S
N642   Zn660   2.019   .     S
O647   Zn659   1.992   .     S
O651   Zn660   1.992   .     S
O652   Zn659   2.004   .     S
O653   Zn660   2.004   .     S
O654   Zn659   1.947   .     S
O655   Zn660   1.947   .     S
O656   Zn659   1.947   .     S
O657   Zn660   1.947   .     S
C661   C664    1.425   .     S
C661   O713    1.285   .     A
C661   O707    1.289   .     A
C662   C664    1.407   .     A
C662   O710    1.387   .     S
C663   C679    1.401   .     A
C663   C680    1.398   .     A
C663   C672    1.413   .     S
C664   C678    1.407   .     A
C665   N702    1.368   .     A
C665   N703    1.431   .     S
C665   C1028   1.433   1_545 S
C666   N704    1.431   .     S
C666   N701    1.368   .     A
C666   C847    1.432   .     S
C667   N705    1.431   .     S
C667   N702    1.370   .     A
C667   C1026   1.432   1_545 S
C668   N701    1.369   .     A
C668   N706    1.430   .     S
C668   C845    1.433   .     S
C669   H681    1.113   .     S
C669   H694    1.106   .     S
C669   O718    1.416   .     S
C670   H697    1.113   .     S
C670   O708    1.411   .     S
C670   H695    1.113   .     S
C670   H696    1.109   .     S
C671   H698    1.113   .     S
C671   O709    1.410   .     S
C671   H699    1.109   .     S
C671   H700    1.113   .     S
C672   O711    1.284   .     A
C672   O712    1.284   .     A
C673   H682    1.114   .     S
C673   H684    1.109   .     S
C673   H683    1.110   .     S
C673   O710    1.412   .     S
C674   O714    1.279   .     A
C674   C676    1.364   .     S
C674   O717    1.279   .     A
C675   O716    1.279   .     A
C675   C677    1.364   .     S
C675   O715    1.279   .     A
C677   C1216   1.164   .     S
C678   O718    1.384   .     S
C679   O708    1.383   .     S
C679   C542    1.387   1_655 S
C680   O709    1.385   .     S
C680   C558    1.379   1_655 S
H685   N703    1.045   .     S
H686   N703    1.045   .     S
H687   N704    1.044   .     S
H688   N704    1.045   .     S
H689   N705    1.042   .     S
H690   N705    1.045   .     S
H691   N706    1.045   .     S
H692   C549    1.113   1_655 S
H693   N706    1.045   .     S
N701   Zn719   2.019   .     S
N702   Zn720   2.019   .     S
O707   Zn719   1.992   .     S
O711   Zn720   1.992   .     S
O712   Zn719   2.004   .     S
O713   Zn720   2.004   .     S
O714   Zn719   1.947   .     S
O715   Zn720   1.947   .     S
O716   Zn719   1.947   .     S
O717   Zn720   1.947   .     S
C721   C724    1.425   .     S
C721   O773    1.285   .     A
C721   O767    1.289   .     A
C722   C724    1.407   .     A
C722   O770    1.387   .     S
C722   C859    1.387   1_455 S
C723   C739    1.401   .     A
C723   C740    1.398   .     A
C723   C732    1.413   .     S
C724   C738    1.407   .     A
C725   N762    1.368   .     A
C725   N763    1.431   .     S
C726   N764    1.431   .     S
C726   N761    1.368   .     A
C726   C907    1.432   .     S
C727   N765    1.431   .     S
C727   N762    1.370   .     A
C728   N761    1.369   .     A
C728   N766    1.430   .     S
C728   C905    1.433   .     S
C729   H741    1.113   .     S
C729   H754    1.106   .     S
C729   O778    1.416   .     S
C729   H872    1.113   1_455 S
C730   H757    1.113   .     S
C730   O768    1.411   .     S
C730   H755    1.113   .     S
C730   H756    1.109   .     S
C731   H758    1.113   .     S
C731   O769    1.410   .     S
C731   H759    1.109   .     S
C731   H760    1.113   .     S
C732   O771    1.284   .     A
C732   O772    1.284   .     A
C733   H742    1.114   .     S
C733   H744    1.109   .     S
C733   H743    1.110   .     S
C733   O770    1.412   .     S
C734   O774    1.279   .     A
C734   C736    1.364   .     S
C734   O777    1.279   .     A
C735   O776    1.279   .     A
C735   C737    1.364   .     S
C735   O775    1.279   .     A
C737   C1276   1.164   .     S
C738   O778    1.384   .     S
C738   C860    1.379   1_455 S
C739   O768    1.383   .     S
C739   C782    1.387   .     S
C740   O769    1.385   .     S
C740   C798    1.379   .     S
H745   N763    1.045   .     S
H746   N763    1.045   .     S
H747   N764    1.044   .     S
H748   N764    1.045   .     S
H749   N765    1.042   .     S
H750   N765    1.045   .     S
H751   N766    1.045   .     S
H752   C789    1.113   .     S
H753   N766    1.045   .     S
N761   Zn779   2.019   .     S
N762   Zn780   2.019   .     S
O767   Zn779   1.992   .     S
O771   Zn780   1.992   .     S
O772   Zn779   2.004   .     S
O773   Zn780   2.004   .     S
O774   Zn779   1.947   .     S
O775   Zn780   1.947   .     S
O776   Zn779   1.947   .     S
O777   Zn780   1.947   .     S
C781   C784    1.425   .     S
C781   O833    1.285   .     A
C781   O827    1.289   .     A
C782   C784    1.407   .     A
C782   O830    1.387   .     S
C783   C799    1.401   .     A
C783   C800    1.398   .     A
C783   C792    1.413   .     S
C784   C798    1.407   .     A
C785   N822    1.368   .     A
C785   N823    1.431   .     S
C786   N824    1.431   .     S
C786   N821    1.368   .     A
C786   C967    1.432   .     S
C787   N825    1.431   .     S
C787   N822    1.370   .     A
C788   N821    1.369   .     A
C788   N826    1.430   .     S
C788   C965    1.433   .     S
C789   H801    1.113   .     S
C789   H814    1.106   .     S
C789   O838    1.416   .     S
C790   H817    1.113   .     S
C790   O828    1.411   .     S
C790   H815    1.113   .     S
C790   H816    1.109   .     S
C791   H818    1.113   .     S
C791   O829    1.410   .     S
C791   H819    1.109   .     S
C791   H820    1.113   .     S
C792   O831    1.284   .     A
C792   O832    1.284   .     A
C793   H802    1.114   .     S
C793   H804    1.109   .     S
C793   H803    1.110   .     S
C793   O830    1.412   .     S
C794   O834    1.279   .     A
C794   C796    1.364   .     S
C794   O837    1.279   .     A
C795   O836    1.279   .     A
C795   C797    1.364   .     S
C795   O835    1.279   .     A
C797   C1336   1.164   .     S
C798   O838    1.384   .     S
C799   O828    1.383   .     S
C799   C842    1.387   .     S
C800   O829    1.385   .     S
C800   C858    1.379   .     S
H805   N823    1.045   .     S
H806   N823    1.045   .     S
H807   N824    1.044   .     S
H808   N824    1.045   .     S
H809   N825    1.042   .     S
H810   N825    1.045   .     S
H811   N826    1.045   .     S
H812   C849    1.113   .     S
H813   N826    1.045   .     S
N821   Zn839   2.019   .     S
N822   Zn840   2.019   .     S
O827   Zn839   1.992   .     S
O831   Zn840   1.992   .     S
O832   Zn839   2.004   .     S
O833   Zn840   2.004   .     S
O834   Zn839   1.947   .     S
O835   Zn840   1.947   .     S
O836   Zn839   1.947   .     S
O837   Zn840   1.947   .     S
C841   C844    1.425   .     S
C841   O893    1.285   .     A
C841   O887    1.289   .     A
C842   C844    1.407   .     A
C842   O890    1.387   .     S
C843   C859    1.401   .     A
C843   C860    1.398   .     A
C843   C852    1.413   .     S
C844   C858    1.407   .     A
C845   N882    1.368   .     A
C845   N883    1.431   .     S
C846   N884    1.431   .     S
C846   N881    1.368   .     A
C846   C1027   1.432   .     S
C847   N885    1.431   .     S
C847   N882    1.370   .     A
C848   N881    1.369   .     A
C848   N886    1.430   .     S
C848   C1025   1.433   .     S
C849   H861    1.113   .     S
C849   H874    1.106   .     S
C849   O898    1.416   .     S
C850   H877    1.113   .     S
C850   O888    1.411   .     S
C850   H875    1.113   .     S
C850   H876    1.109   .     S
C851   H878    1.113   .     S
C851   O889    1.410   .     S
C851   H879    1.109   .     S
C851   H880    1.113   .     S
C852   O891    1.284   .     A
C852   O892    1.284   .     A
C853   H862    1.114   .     S
C853   H864    1.109   .     S
C853   H863    1.110   .     S
C853   O890    1.412   .     S
C854   O894    1.279   .     A
C854   C856    1.364   .     S
C854   O897    1.279   .     A
C855   O896    1.279   .     A
C855   C857    1.364   .     S
C855   O895    1.279   .     A
C857   C1396   1.164   .     S
C858   O898    1.384   .     S
C859   O888    1.383   .     S
C859   C722    1.387   1_655 S
C860   O889    1.385   .     S
C860   C738    1.379   1_655 S
H865   N883    1.045   .     S
H866   N883    1.045   .     S
H867   N884    1.044   .     S
H868   N884    1.045   .     S
H869   N885    1.042   .     S
H870   N885    1.045   .     S
H871   N886    1.045   .     S
H872   C729    1.113   1_655 S
H873   N886    1.045   .     S
N881   Zn899   2.019   .     S
N882   Zn900   2.019   .     S
O887   Zn899   1.992   .     S
O891   Zn900   1.992   .     S
O892   Zn899   2.004   .     S
O893   Zn900   2.004   .     S
O894   Zn899   1.947   .     S
O895   Zn900   1.947   .     S
O896   Zn899   1.947   .     S
O897   Zn900   1.947   .     S
C901   C904    1.425   .     S
C901   O953    1.285   .     A
C901   O947    1.289   .     A
C902   C904    1.407   .     A
C902   O950    1.387   .     S
C902   C1039   1.387   1_455 S
C903   C919    1.401   .     A
C903   C920    1.398   .     A
C903   C912    1.413   .     S
C904   C918    1.407   .     A
C905   N942    1.368   .     A
C905   N943    1.431   .     S
C906   N944    1.431   .     S
C906   N941    1.368   .     A
C906   C547    1.432   1_565 S
C907   N945    1.431   .     S
C907   N942    1.370   .     A
C908   N941    1.369   .     A
C908   N946    1.430   .     S
C908   C545    1.433   1_565 S
C909   H921    1.113   .     S
C909   H934    1.106   .     S
C909   O958    1.416   .     S
C909   H1052   1.113   1_455 S
C910   H937    1.113   .     S
C910   O948    1.411   .     S
C910   H935    1.113   .     S
C910   H936    1.109   .     S
C911   H938    1.113   .     S
C911   O949    1.410   .     S
C911   H939    1.109   .     S
C911   H940    1.113   .     S
C912   O951    1.284   .     A
C912   O952    1.284   .     A
C913   H922    1.114   .     S
C913   H924    1.109   .     S
C913   H923    1.110   .     S
C913   O950    1.412   .     S
C914   O954    1.279   .     A
C914   C916    1.364   .     S
C914   O957    1.279   .     A
C915   O956    1.279   .     A
C915   C917    1.364   .     S
C915   O955    1.279   .     A
C917   C1456   1.164   .     S
C918   O958    1.384   .     S
C918   C1040   1.379   1_455 S
C919   O948    1.383   .     S
C919   C962    1.387   .     S
C920   O949    1.385   .     S
C920   C978    1.379   .     S
H925   N943    1.045   .     S
H926   N943    1.045   .     S
H927   N944    1.044   .     S
H928   N944    1.045   .     S
H929   N945    1.042   .     S
H930   N945    1.045   .     S
H931   N946    1.045   .     S
H932   C969    1.113   .     S
H933   N946    1.045   .     S
N941   Zn959   2.019   .     S
N942   Zn960   2.019   .     S
O947   Zn959   1.992   .     S
O951   Zn960   1.992   .     S
O952   Zn959   2.004   .     S
O953   Zn960   2.004   .     S
O954   Zn959   1.947   .     S
O955   Zn960   1.947   .     S
O956   Zn959   1.947   .     S
O957   Zn960   1.947   .     S
C961   C964    1.425   .     S
C961   O1013   1.285   .     A
C961   O1007   1.289   .     A
C962   C964    1.407   .     A
C962   O1010   1.387   .     S
C963   C979    1.401   .     A
C963   C980    1.398   .     A
C963   C972    1.413   .     S
C964   C978    1.407   .     A
C965   N1002   1.368   .     A
C965   N1003   1.431   .     S
C966   N1004   1.431   .     S
C966   N1001   1.368   .     A
C966   C607    1.432   1_565 S
C967   N1005   1.431   .     S
C967   N1002   1.370   .     A
C968   N1001   1.369   .     A
C968   N1006   1.430   .     S
C968   C605    1.433   1_565 S
C969   H981    1.113   .     S
C969   H994    1.106   .     S
C969   O1018   1.416   .     S
C970   H997    1.113   .     S
C970   O1008   1.411   .     S
C970   H995    1.113   .     S
C970   H996    1.109   .     S
C971   H998    1.113   .     S
C971   O1009   1.410   .     S
C971   H999    1.109   .     S
C971   H1000   1.113   .     S
C972   O1011   1.284   .     A
C972   O1012   1.284   .     A
C973   H982    1.114   .     S
C973   H984    1.109   .     S
C973   H983    1.110   .     S
C973   O1010   1.412   .     S
C974   O1014   1.279   .     A
C974   C976    1.364   .     S
C974   O1017   1.279   .     A
C975   O1016   1.279   .     A
C975   C977    1.364   .     S
C975   O1015   1.279   .     A
C977   C1516   1.164   .     S
C978   O1018   1.384   .     S
C979   O1008   1.383   .     S
C979   C1022   1.387   .     S
C980   O1009   1.385   .     S
C980   C1038   1.379   .     S
H985   N1003   1.045   .     S
H986   N1003   1.045   .     S
H987   N1004   1.044   .     S
H988   N1004   1.045   .     S
H989   N1005   1.042   .     S
H990   N1005   1.045   .     S
H991   N1006   1.045   .     S
H992   C1029   1.113   .     S
H993   N1006   1.045   .     S
N1001  Zn1019  2.019   .     S
N1002  Zn1020  2.019   .     S
O1007  Zn1019  1.992   .     S
O1011  Zn1020  1.992   .     S
O1012  Zn1019  2.004   .     S
O1013  Zn1020  2.004   .     S
O1014  Zn1019  1.947   .     S
O1015  Zn1020  1.947   .     S
O1016  Zn1019  1.947   .     S
O1017  Zn1020  1.947   .     S
C1021  C1024   1.425   .     S
C1021  O1073   1.285   .     A
C1021  O1067   1.289   .     A
C1022  C1024   1.407   .     A
C1022  O1070   1.387   .     S
C1023  C1039   1.401   .     A
C1023  C1040   1.398   .     A
C1023  C1032   1.413   .     S
C1024  C1038   1.407   .     A
C1025  N1062   1.368   .     A
C1025  N1063   1.431   .     S
C1026  N1064   1.431   .     S
C1026  N1061   1.368   .     A
C1026  C667    1.432   1_565 S
C1027  N1065   1.431   .     S
C1027  N1062   1.370   .     A
C1028  N1061   1.369   .     A
C1028  N1066   1.430   .     S
C1028  C665    1.433   1_565 S
C1029  H1041   1.113   .     S
C1029  H1054   1.106   .     S
C1029  O1078   1.416   .     S
C1030  H1057   1.113   .     S
C1030  O1068   1.411   .     S
C1030  H1055   1.113   .     S
C1030  H1056   1.109   .     S
C1031  H1058   1.113   .     S
C1031  O1069   1.410   .     S
C1031  H1059   1.109   .     S
C1031  H1060   1.113   .     S
C1032  O1071   1.284   .     A
C1032  O1072   1.284   .     A
C1033  H1042   1.114   .     S
C1033  H1044   1.109   .     S
C1033  H1043   1.110   .     S
C1033  O1070   1.412   .     S
C1034  O1074   1.279   .     A
C1034  C1036   1.364   .     S
C1034  O1077   1.279   .     A
C1035  O1076   1.279   .     A
C1035  C1037   1.364   .     S
C1035  O1075   1.279   .     A
C1037  C1576   1.164   .     S
C1038  O1078   1.384   .     S
C1039  O1068   1.383   .     S
C1039  C902    1.387   1_655 S
C1040  O1069   1.385   .     S
C1040  C918    1.379   1_655 S
H1045  N1063   1.045   .     S
H1046  N1063   1.045   .     S
H1047  N1064   1.044   .     S
H1048  N1064   1.045   .     S
H1049  N1065   1.042   .     S
H1050  N1065   1.045   .     S
H1051  N1066   1.045   .     S
H1052  C909    1.113   1_655 S
H1053  N1066   1.045   .     S
N1061  Zn1079  2.019   .     S
N1062  Zn1080  2.019   .     S
O1067  Zn1079  1.992   .     S
O1071  Zn1080  1.992   .     S
O1072  Zn1079  2.004   .     S
O1073  Zn1080  2.004   .     S
O1074  Zn1079  1.947   .     S
O1075  Zn1080  1.947   .     S
O1076  Zn1079  1.947   .     S
O1077  Zn1080  1.947   .     S
C1081  C1084   1.425   .     S
C1081  O1133   1.285   .     A
C1081  O1127   1.289   .     A
C1082  C1084   1.407   .     A
C1082  O1130   1.387   .     S
C1082  C1219   1.387   1_455 S
C1083  C1099   1.401   .     A
C1083  C1100   1.398   .     A
C1083  C1092   1.413   .     S
C1084  C1098   1.407   .     A
C1085  N1122   1.368   .     A
C1085  N1123   1.431   .     S
C1085  C1448   1.433   1_545 S
C1086  N1124   1.431   .     S
C1086  N1121   1.368   .     A
C1086  C1267   1.432   .     S
C1087  N1125   1.431   .     S
C1087  N1122   1.370   .     A
C1087  C1446   1.432   1_545 S
C1088  N1121   1.369   .     A
C1088  N1126   1.430   .     S
C1088  C1265   1.433   .     S
C1089  H1101   1.113   .     S
C1089  H1114   1.106   .     S
C1089  O1138   1.416   .     S
C1089  H1232   1.113   1_455 S
C1090  H1117   1.113   .     S
C1090  O1128   1.411   .     S
C1090  H1115   1.113   .     S
C1090  H1116   1.109   .     S
C1091  H1118   1.113   .     S
C1091  O1129   1.410   .     S
C1091  H1119   1.109   .     S
C1091  H1120   1.113   .     S
C1092  O1131   1.284   .     A
C1092  O1132   1.284   .     A
C1093  H1102   1.114   .     S
C1093  H1104   1.109   .     S
C1093  H1103   1.110   .     S
C1093  O1130   1.412   .     S
C1094  O1134   1.279   .     A
C1094  C1096   1.364   .     S
C1094  O1137   1.279   .     A
C1095  O1136   1.279   .     A
C1095  C1097   1.364   .     S
C1095  O1135   1.279   .     A
C1097  C16     1.164   1_556 S
C1098  O1138   1.384   .     S
C1098  C1220   1.379   1_455 S
C1099  O1128   1.383   .     S
C1099  C1142   1.387   .     S
C1100  O1129   1.385   .     S
C1100  C1158   1.379   .     S
H1105  N1123   1.045   .     S
H1106  N1123   1.045   .     S
H1107  N1124   1.044   .     S
H1108  N1124   1.045   .     S
H1109  N1125   1.042   .     S
H1110  N1125   1.045   .     S
H1111  N1126   1.045   .     S
H1112  C1149   1.113   .     S
H1113  N1126   1.045   .     S
N1121  Zn1139  2.019   .     S
N1122  Zn1140  2.019   .     S
O1127  Zn1139  1.992   .     S
O1131  Zn1140  1.992   .     S
O1132  Zn1139  2.004   .     S
O1133  Zn1140  2.004   .     S
O1134  Zn1139  1.947   .     S
O1135  Zn1140  1.947   .     S
O1136  Zn1139  1.947   .     S
O1137  Zn1140  1.947   .     S
C1141  C1144   1.425   .     S
C1141  O1193   1.285   .     A
C1141  O1187   1.289   .     A
C1142  C1144   1.407   .     A
C1142  O1190   1.387   .     S
C1143  C1159   1.401   .     A
C1143  C1160   1.398   .     A
C1143  C1152   1.413   .     S
C1144  C1158   1.407   .     A
C1145  N1182   1.368   .     A
C1145  N1183   1.431   .     S
C1145  C1508   1.433   1_545 S
C1146  N1184   1.431   .     S
C1146  N1181   1.368   .     A
C1146  C1327   1.432   .     S
C1147  N1185   1.431   .     S
C1147  N1182   1.370   .     A
C1147  C1506   1.432   1_545 S
C1148  N1181   1.369   .     A
C1148  N1186   1.430   .     S
C1148  C1325   1.433   .     S
C1149  H1161   1.113   .     S
C1149  H1174   1.106   .     S
C1149  O1198   1.416   .     S
C1150  H1177   1.113   .     S
C1150  O1188   1.411   .     S
C1150  H1175   1.113   .     S
C1150  H1176   1.109   .     S
C1151  H1178   1.113   .     S
C1151  O1189   1.410   .     S
C1151  H1179   1.109   .     S
C1151  H1180   1.113   .     S
C1152  O1191   1.284   .     A
C1152  O1192   1.284   .     A
C1153  H1162   1.114   .     S
C1153  H1164   1.109   .     S
C1153  H1163   1.110   .     S
C1153  O1190   1.412   .     S
C1154  O1194   1.279   .     A
C1154  C1156   1.364   .     S
C1154  O1197   1.279   .     A
C1155  O1196   1.279   .     A
C1155  C1157   1.364   .     S
C1155  O1195   1.279   .     A
C1157  C76     1.164   1_556 S
C1158  O1198   1.384   .     S
C1159  O1188   1.383   .     S
C1159  C1202   1.387   .     S
C1160  O1189   1.385   .     S
C1160  C1218   1.379   .     S
H1165  N1183   1.045   .     S
H1166  N1183   1.045   .     S
H1167  N1184   1.044   .     S
H1168  N1184   1.045   .     S
H1169  N1185   1.042   .     S
H1170  N1185   1.045   .     S
H1171  N1186   1.045   .     S
H1172  C1209   1.113   .     S
H1173  N1186   1.045   .     S
N1181  Zn1199  2.019   .     S
N1182  Zn1200  2.019   .     S
O1187  Zn1199  1.992   .     S
O1191  Zn1200  1.992   .     S
O1192  Zn1199  2.004   .     S
O1193  Zn1200  2.004   .     S
O1194  Zn1199  1.947   .     S
O1195  Zn1200  1.947   .     S
O1196  Zn1199  1.947   .     S
O1197  Zn1200  1.947   .     S
C1201  C1204   1.425   .     S
C1201  O1253   1.285   .     A
C1201  O1247   1.289   .     A
C1202  C1204   1.407   .     A
C1202  O1250   1.387   .     S
C1203  C1219   1.401   .     A
C1203  C1220   1.398   .     A
C1203  C1212   1.413   .     S
C1204  C1218   1.407   .     A
C1205  N1242   1.368   .     A
C1205  N1243   1.431   .     S
C1205  C1568   1.433   1_545 S
C1206  N1244   1.431   .     S
C1206  N1241   1.368   .     A
C1206  C1387   1.432   .     S
C1207  N1245   1.431   .     S
C1207  N1242   1.370   .     A
C1207  C1566   1.432   1_545 S
C1208  N1241   1.369   .     A
C1208  N1246   1.430   .     S
C1208  C1385   1.433   .     S
C1209  H1221   1.113   .     S
C1209  H1234   1.106   .     S
C1209  O1258   1.416   .     S
C1210  H1237   1.113   .     S
C1210  O1248   1.411   .     S
C1210  H1235   1.113   .     S
C1210  H1236   1.109   .     S
C1211  H1238   1.113   .     S
C1211  O1249   1.410   .     S
C1211  H1239   1.109   .     S
C1211  H1240   1.113   .     S
C1212  O1251   1.284   .     A
C1212  O1252   1.284   .     A
C1213  H1222   1.114   .     S
C1213  H1224   1.109   .     S
C1213  H1223   1.110   .     S
C1213  O1250   1.412   .     S
C1214  O1254   1.279   .     A
C1214  C1216   1.364   .     S
C1214  O1257   1.279   .     A
C1215  O1256   1.279   .     A
C1215  C1217   1.364   .     S
C1215  O1255   1.279   .     A
C1217  C136    1.164   1_556 S
C1218  O1258   1.384   .     S
C1219  O1248   1.383   .     S
C1219  C1082   1.387   1_655 S
C1220  O1249   1.385   .     S
C1220  C1098   1.379   1_655 S
H1225  N1243   1.045   .     S
H1226  N1243   1.045   .     S
H1227  N1244   1.044   .     S
H1228  N1244   1.045   .     S
H1229  N1245   1.042   .     S
H1230  N1245   1.045   .     S
H1231  N1246   1.045   .     S
H1232  C1089   1.113   1_655 S
H1233  N1246   1.045   .     S
N1241  Zn1259  2.019   .     S
N1242  Zn1260  2.019   .     S
O1247  Zn1259  1.992   .     S
O1251  Zn1260  1.992   .     S
O1252  Zn1259  2.004   .     S
O1253  Zn1260  2.004   .     S
O1254  Zn1259  1.947   .     S
O1255  Zn1260  1.947   .     S
O1256  Zn1259  1.947   .     S
O1257  Zn1260  1.947   .     S
C1261  C1264   1.425   .     S
C1261  O1313   1.285   .     A
C1261  O1307   1.289   .     A
C1262  C1264   1.407   .     A
C1262  O1310   1.387   .     S
C1262  C1399   1.387   1_455 S
C1263  C1279   1.401   .     A
C1263  C1280   1.398   .     A
C1263  C1272   1.413   .     S
C1264  C1278   1.407   .     A
C1265  N1302   1.368   .     A
C1265  N1303   1.431   .     S
C1266  N1304   1.431   .     S
C1266  N1301   1.368   .     A
C1266  C1447   1.432   .     S
C1267  N1305   1.431   .     S
C1267  N1302   1.370   .     A
C1268  N1301   1.369   .     A
C1268  N1306   1.430   .     S
C1268  C1445   1.433   .     S
C1269  H1281   1.113   .     S
C1269  H1294   1.106   .     S
C1269  O1318   1.416   .     S
C1269  H1412   1.113   1_455 S
C1270  H1297   1.113   .     S
C1270  O1308   1.411   .     S
C1270  H1295   1.113   .     S
C1270  H1296   1.109   .     S
C1271  H1298   1.113   .     S
C1271  O1309   1.410   .     S
C1271  H1299   1.109   .     S
C1271  H1300   1.113   .     S
C1272  O1311   1.284   .     A
C1272  O1312   1.284   .     A
C1273  H1282   1.114   .     S
C1273  H1284   1.109   .     S
C1273  H1283   1.110   .     S
C1273  O1310   1.412   .     S
C1274  O1314   1.279   .     A
C1274  C1276   1.364   .     S
C1274  O1317   1.279   .     A
C1275  O1316   1.279   .     A
C1275  C1277   1.364   .     S
C1275  O1315   1.279   .     A
C1277  C196    1.164   1_556 S
C1278  O1318   1.384   .     S
C1278  C1400   1.379   1_455 S
C1279  O1308   1.383   .     S
C1279  C1322   1.387   .     S
C1280  O1309   1.385   .     S
C1280  C1338   1.379   .     S
H1285  N1303   1.045   .     S
H1286  N1303   1.045   .     S
H1287  N1304   1.044   .     S
H1288  N1304   1.045   .     S
H1289  N1305   1.042   .     S
H1290  N1305   1.045   .     S
H1291  N1306   1.045   .     S
H1292  C1329   1.113   .     S
H1293  N1306   1.045   .     S
N1301  Zn1319  2.019   .     S
N1302  Zn1320  2.019   .     S
O1307  Zn1319  1.992   .     S
O1311  Zn1320  1.992   .     S
O1312  Zn1319  2.004   .     S
O1313  Zn1320  2.004   .     S
O1314  Zn1319  1.947   .     S
O1315  Zn1320  1.947   .     S
O1316  Zn1319  1.947   .     S
O1317  Zn1320  1.947   .     S
C1321  C1324   1.425   .     S
C1321  O1373   1.285   .     A
C1321  O1367   1.289   .     A
C1322  C1324   1.407   .     A
C1322  O1370   1.387   .     S
C1323  C1339   1.401   .     A
C1323  C1340   1.398   .     A
C1323  C1332   1.413   .     S
C1324  C1338   1.407   .     A
C1325  N1362   1.368   .     A
C1325  N1363   1.431   .     S
C1326  N1364   1.431   .     S
C1326  N1361   1.368   .     A
C1326  C1507   1.432   .     S
C1327  N1365   1.431   .     S
C1327  N1362   1.370   .     A
C1328  N1361   1.369   .     A
C1328  N1366   1.430   .     S
C1328  C1505   1.433   .     S
C1329  H1341   1.113   .     S
C1329  H1354   1.106   .     S
C1329  O1378   1.416   .     S
C1330  H1357   1.113   .     S
C1330  O1368   1.411   .     S
C1330  H1355   1.113   .     S
C1330  H1356   1.109   .     S
C1331  H1358   1.113   .     S
C1331  O1369   1.410   .     S
C1331  H1359   1.109   .     S
C1331  H1360   1.113   .     S
C1332  O1371   1.284   .     A
C1332  O1372   1.284   .     A
C1333  H1342   1.114   .     S
C1333  H1344   1.109   .     S
C1333  H1343   1.110   .     S
C1333  O1370   1.412   .     S
C1334  O1374   1.279   .     A
C1334  C1336   1.364   .     S
C1334  O1377   1.279   .     A
C1335  O1376   1.279   .     A
C1335  C1337   1.364   .     S
C1335  O1375   1.279   .     A
C1337  C256    1.164   1_556 S
C1338  O1378   1.384   .     S
C1339  O1368   1.383   .     S
C1339  C1382   1.387   .     S
C1340  O1369   1.385   .     S
C1340  C1398   1.379   .     S
H1345  N1363   1.045   .     S
H1346  N1363   1.045   .     S
H1347  N1364   1.044   .     S
H1348  N1364   1.045   .     S
H1349  N1365   1.042   .     S
H1350  N1365   1.045   .     S
H1351  N1366   1.045   .     S
H1352  C1389   1.113   .     S
H1353  N1366   1.045   .     S
N1361  Zn1379  2.019   .     S
N1362  Zn1380  2.019   .     S
O1367  Zn1379  1.992   .     S
O1371  Zn1380  1.992   .     S
O1372  Zn1379  2.004   .     S
O1373  Zn1380  2.004   .     S
O1374  Zn1379  1.947   .     S
O1375  Zn1380  1.947   .     S
O1376  Zn1379  1.947   .     S
O1377  Zn1380  1.947   .     S
C1381  C1384   1.425   .     S
C1381  O1433   1.285   .     A
C1381  O1427   1.289   .     A
C1382  C1384   1.407   .     A
C1382  O1430   1.387   .     S
C1383  C1399   1.401   .     A
C1383  C1400   1.398   .     A
C1383  C1392   1.413   .     S
C1384  C1398   1.407   .     A
C1385  N1422   1.368   .     A
C1385  N1423   1.431   .     S
C1386  N1424   1.431   .     S
C1386  N1421   1.368   .     A
C1386  C1567   1.432   .     S
C1387  N1425   1.431   .     S
C1387  N1422   1.370   .     A
C1388  N1421   1.369   .     A
C1388  N1426   1.430   .     S
C1388  C1565   1.433   .     S
C1389  H1401   1.113   .     S
C1389  H1414   1.106   .     S
C1389  O1438   1.416   .     S
C1390  H1417   1.113   .     S
C1390  O1428   1.411   .     S
C1390  H1415   1.113   .     S
C1390  H1416   1.109   .     S
C1391  H1418   1.113   .     S
C1391  O1429   1.410   .     S
C1391  H1419   1.109   .     S
C1391  H1420   1.113   .     S
C1392  O1431   1.284   .     A
C1392  O1432   1.284   .     A
C1393  H1402   1.114   .     S
C1393  H1404   1.109   .     S
C1393  H1403   1.110   .     S
C1393  O1430   1.412   .     S
C1394  O1434   1.279   .     A
C1394  C1396   1.364   .     S
C1394  O1437   1.279   .     A
C1395  O1436   1.279   .     A
C1395  C1397   1.364   .     S
C1395  O1435   1.279   .     A
C1397  C316    1.164   1_556 S
C1398  O1438   1.384   .     S
C1399  O1428   1.383   .     S
C1399  C1262   1.387   1_655 S
C1400  O1429   1.385   .     S
C1400  C1278   1.379   1_655 S
H1405  N1423   1.045   .     S
H1406  N1423   1.045   .     S
H1407  N1424   1.044   .     S
H1408  N1424   1.045   .     S
H1409  N1425   1.042   .     S
H1410  N1425   1.045   .     S
H1411  N1426   1.045   .     S
H1412  C1269   1.113   1_655 S
H1413  N1426   1.045   .     S
N1421  Zn1439  2.019   .     S
N1422  Zn1440  2.019   .     S
O1427  Zn1439  1.992   .     S
O1431  Zn1440  1.992   .     S
O1432  Zn1439  2.004   .     S
O1433  Zn1440  2.004   .     S
O1434  Zn1439  1.947   .     S
O1435  Zn1440  1.947   .     S
O1436  Zn1439  1.947   .     S
O1437  Zn1440  1.947   .     S
C1441  C1444   1.425   .     S
C1441  O1493   1.285   .     A
C1441  O1487   1.289   .     A
C1442  C1444   1.407   .     A
C1442  O1490   1.387   .     S
C1442  C1579   1.387   1_455 S
C1443  C1459   1.401   .     A
C1443  C1460   1.398   .     A
C1443  C1452   1.413   .     S
C1444  C1458   1.407   .     A
C1445  N1482   1.368   .     A
C1445  N1483   1.431   .     S
C1446  N1484   1.431   .     S
C1446  N1481   1.368   .     A
C1446  C1087   1.432   1_565 S
C1447  N1485   1.431   .     S
C1447  N1482   1.370   .     A
C1448  N1481   1.369   .     A
C1448  N1486   1.430   .     S
C1448  C1085   1.433   1_565 S
C1449  H1461   1.113   .     S
C1449  H1474   1.106   .     S
C1449  O1498   1.416   .     S
C1449  H1592   1.113   1_455 S
C1450  H1477   1.113   .     S
C1450  O1488   1.411   .     S
C1450  H1475   1.113   .     S
C1450  H1476   1.109   .     S
C1451  H1478   1.113   .     S
C1451  O1489   1.410   .     S
C1451  H1479   1.109   .     S
C1451  H1480   1.113   .     S
C1452  O1491   1.284   .     A
C1452  O1492   1.284   .     A
C1453  H1462   1.114   .     S
C1453  H1464   1.109   .     S
C1453  H1463   1.110   .     S
C1453  O1490   1.412   .     S
C1454  O1494   1.279   .     A
C1454  C1456   1.364   .     S
C1454  O1497   1.279   .     A
C1455  O1496   1.279   .     A
C1455  C1457   1.364   .     S
C1455  O1495   1.279   .     A
C1457  C376    1.164   1_556 S
C1458  O1498   1.384   .     S
C1458  C1580   1.379   1_455 S
C1459  O1488   1.383   .     S
C1459  C1502   1.387   .     S
C1460  O1489   1.385   .     S
C1460  C1518   1.379   .     S
H1465  N1483   1.045   .     S
H1466  N1483   1.045   .     S
H1467  N1484   1.044   .     S
H1468  N1484   1.045   .     S
H1469  N1485   1.042   .     S
H1470  N1485   1.045   .     S
H1471  N1486   1.045   .     S
H1472  C1509   1.113   .     S
H1473  N1486   1.045   .     S
N1481  Zn1499  2.019   .     S
N1482  Zn1500  2.019   .     S
O1487  Zn1499  1.992   .     S
O1491  Zn1500  1.992   .     S
O1492  Zn1499  2.004   .     S
O1493  Zn1500  2.004   .     S
O1494  Zn1499  1.947   .     S
O1495  Zn1500  1.947   .     S
O1496  Zn1499  1.947   .     S
O1497  Zn1500  1.947   .     S
C1501  C1504   1.425   .     S
C1501  O1553   1.285   .     A
C1501  O1547   1.289   .     A
C1502  C1504   1.407   .     A
C1502  O1550   1.387   .     S
C1503  C1519   1.401   .     A
C1503  C1520   1.398   .     A
C1503  C1512   1.413   .     S
C1504  C1518   1.407   .     A
C1505  N1542   1.368   .     A
C1505  N1543   1.431   .     S
C1506  N1544   1.431   .     S
C1506  N1541   1.368   .     A
C1506  C1147   1.432   1_565 S
C1507  N1545   1.431   .     S
C1507  N1542   1.370   .     A
C1508  N1541   1.369   .     A
C1508  N1546   1.430   .     S
C1508  C1145   1.433   1_565 S
C1509  H1521   1.113   .     S
C1509  H1534   1.106   .     S
C1509  O1558   1.416   .     S
C1510  H1537   1.113   .     S
C1510  O1548   1.411   .     S
C1510  H1535   1.113   .     S
C1510  H1536   1.109   .     S
C1511  H1538   1.113   .     S
C1511  O1549   1.410   .     S
C1511  H1539   1.109   .     S
C1511  H1540   1.113   .     S
C1512  O1551   1.284   .     A
C1512  O1552   1.284   .     A
C1513  H1522   1.114   .     S
C1513  H1524   1.109   .     S
C1513  H1523   1.110   .     S
C1513  O1550   1.412   .     S
C1514  O1554   1.279   .     A
C1514  C1516   1.364   .     S
C1514  O1557   1.279   .     A
C1515  O1556   1.279   .     A
C1515  C1517   1.364   .     S
C1515  O1555   1.279   .     A
C1517  C436    1.164   1_556 S
C1518  O1558   1.384   .     S
C1519  O1548   1.383   .     S
C1519  C1562   1.387   .     S
C1520  O1549   1.385   .     S
C1520  C1578   1.379   .     S
H1525  N1543   1.045   .     S
H1526  N1543   1.045   .     S
H1527  N1544   1.044   .     S
H1528  N1544   1.045   .     S
H1529  N1545   1.042   .     S
H1530  N1545   1.045   .     S
H1531  N1546   1.045   .     S
H1532  C1569   1.113   .     S
H1533  N1546   1.045   .     S
N1541  Zn1559  2.019   .     S
N1542  Zn1560  2.019   .     S
O1547  Zn1559  1.992   .     S
O1551  Zn1560  1.992   .     S
O1552  Zn1559  2.004   .     S
O1553  Zn1560  2.004   .     S
O1554  Zn1559  1.947   .     S
O1555  Zn1560  1.947   .     S
O1556  Zn1559  1.947   .     S
O1557  Zn1560  1.947   .     S
C1561  C1564   1.425   .     S
C1561  O1613   1.285   .     A
C1561  O1607   1.289   .     A
C1562  C1564   1.407   .     A
C1562  O1610   1.387   .     S
C1563  C1579   1.401   .     A
C1563  C1580   1.398   .     A
C1563  C1572   1.413   .     S
C1564  C1578   1.407   .     A
C1565  N1602   1.368   .     A
C1565  N1603   1.431   .     S
C1566  N1604   1.431   .     S
C1566  N1601   1.368   .     A
C1566  C1207   1.432   1_565 S
C1567  N1605   1.431   .     S
C1567  N1602   1.370   .     A
C1568  N1601   1.369   .     A
C1568  N1606   1.430   .     S
C1568  C1205   1.433   1_565 S
C1569  H1581   1.113   .     S
C1569  H1594   1.106   .     S
C1569  O1618   1.416   .     S
C1570  H1597   1.113   .     S
C1570  O1608   1.411   .     S
C1570  H1595   1.113   .     S
C1570  H1596   1.109   .     S
C1571  H1598   1.113   .     S
C1571  O1609   1.410   .     S
C1571  H1599   1.109   .     S
C1571  H1600   1.113   .     S
C1572  O1611   1.284   .     A
C1572  O1612   1.284   .     A
C1573  H1582   1.114   .     S
C1573  H1584   1.109   .     S
C1573  H1583   1.110   .     S
C1573  O1610   1.412   .     S
C1574  O1614   1.279   .     A
C1574  C1576   1.364   .     S
C1574  O1617   1.279   .     A
C1575  O1616   1.279   .     A
C1575  C1577   1.364   .     S
C1575  O1615   1.279   .     A
C1577  C496    1.164   1_556 S
C1578  O1618   1.384   .     S
C1579  O1608   1.383   .     S
C1579  C1442   1.387   1_655 S
C1580  O1609   1.385   .     S
C1580  C1458   1.379   1_655 S
H1585  N1603   1.045   .     S
H1586  N1603   1.045   .     S
H1587  N1604   1.044   .     S
H1588  N1604   1.045   .     S
H1589  N1605   1.042   .     S
H1590  N1605   1.045   .     S
H1591  N1606   1.045   .     S
H1592  C1449   1.113   1_655 S
H1593  N1606   1.045   .     S
N1601  Zn1619  2.019   .     S
N1602  Zn1620  2.019   .     S
O1607  Zn1619  1.992   .     S
O1611  Zn1620  1.992   .     S
O1612  Zn1619  2.004   .     S
O1613  Zn1620  2.004   .     S
O1614  Zn1619  1.947   .     S
O1615  Zn1620  1.947   .     S
O1616  Zn1619  1.947   .     S
O1617  Zn1620  1.947   .     S
