data_str_m2_o10_o17_pcu_sym.76
_audit_creation_date              2020-01-03
_audit_creation_method            'Materials Studio'
_symmetry_space_group_name_H-M    'P1'
_symmetry_Int_Tables_number       1
_symmetry_cell_setting            triclinic
loop_
_symmetry_equiv_pos_as_xyz
  x,y,z
_cell_length_a                    30.0502
_cell_length_b                    26.2059
_cell_length_c                    22.5672
_cell_angle_alpha                 103.4213
_cell_angle_beta                  94.1752
_cell_angle_gamma                 93.7146
loop_
_atom_site_label
_atom_site_type_symbol
_atom_site_fract_x
_atom_site_fract_y
_atom_site_fract_z
_atom_site_U_iso_or_equiv
_atom_site_adp_type
_atom_site_occupancy
C1     C     0.24821   0.06672   0.15135   0.00000  Uiso   1.00
C2     C     0.08891   0.14757   0.11260   0.00000  Uiso   1.00
C3     C     0.38397   0.16739   0.16555   0.00000  Uiso   1.00
C4     C     0.11603   0.16594   0.16778   0.00000  Uiso   1.00
C5     C     0.40320   0.14885   0.11076   0.00000  Uiso   1.00
C6     C     0.09680   0.18447   0.22258   0.00000  Uiso   1.00
C7     C     0.44952   0.14846   0.11079   0.00000  Uiso   1.00
C8     C     0.05048   0.18486   0.22255   0.00000  Uiso   1.00
C9     C     0.47671   0.16688   0.16642   0.00000  Uiso   1.00
C10    C     0.02329   0.16643   0.16692   0.00000  Uiso   1.00
C11    C     0.45737   0.18568   0.22156   0.00000  Uiso   1.00
C12    C     0.25179   0.26662   0.18198   0.00000  Uiso   1.00
C13    C     0.04263   0.14765   0.11177   0.00000  Uiso   1.00
C14    C     0.46907   0.12973   0.05626   0.00000  Uiso   1.00
C15    C     0.03093   0.20360   0.27708   0.00000  Uiso   1.00
C16    C     0.01543   0.12932   0.05675   0.00000  Uiso   1.00
C17    C     0.48457   0.20402   0.27658   0.00000  Uiso   1.00
C18    C     0.24084   0.01113   0.14493   0.00000  Uiso   1.00
C19    C     0.25916   0.32220   0.18841   0.00000  Uiso   1.00
C20    C     0.16447   0.16640   0.16724   0.00000  Uiso   1.00
C21    C     0.33553   0.16693   0.16609   0.00000  Uiso   1.00
C22    C     0.41109   0.18577   0.22073   0.00000  Uiso   1.00
Cu23   Cu    0.25500   0.17246   0.22813   0.00000  Uiso   1.00
Cu24   Cu    0.24499   0.16087   0.10521   0.00000  Uiso   1.00
H25    H     0.39624   0.20034   0.26316   0.00000  Uiso   1.00
H26    H     0.19458   0.11047   0.27762   0.00000  Uiso   1.00
H27    H     0.32288   0.16309   0.01374   0.00000  Uiso   1.00
H28    H     0.30542   0.22287   0.05571   0.00000  Uiso   1.00
H29    H     0.10375   0.13302   0.07016   0.00000  Uiso   1.00
H30    H     0.38222   0.13388   0.06836   0.00000  Uiso   1.00
H31    H     0.11778   0.19944   0.26498   0.00000  Uiso   1.00
H32    H     0.44853   0.11554   0.01329   0.00000  Uiso   1.00
H33    H     0.05146   0.21780   0.32004   0.00000  Uiso   1.00
H34    H     0.03002   0.11479   0.01415   0.00000  Uiso   1.00
H35    H     0.46998   0.21857   0.31917   0.00000  Uiso   1.00
H36    H     0.17712   0.17024   0.31959   0.00000  Uiso   1.00
I37    I     0.19109   0.30658   0.07183   0.00000  Uiso   1.00
I38    I     0.30891   0.02675   0.26151   0.00000  Uiso   1.00
N39    N     0.23744   0.15214   0.01284   0.00000  Uiso   1.00
N40    N     0.26255   0.18119   0.32049   0.00000  Uiso   1.00
N41    N     0.19407   0.13676   0.31993   0.00000  Uiso   1.00
N42    N     0.30593   0.19657   0.01340   0.00000  Uiso   1.00
O43    O     0.25325   0.09538   0.20659   0.00000  Uiso   1.00
O44    O     0.24674   0.23796   0.12674   0.00000  Uiso   1.00
O45    O     0.24480   0.08559   0.10279   0.00000  Uiso   1.00
O46    O     0.25520   0.24774   0.23055   0.00000  Uiso   1.00
O47    O     0.18935   0.17155   0.21857   0.00000  Uiso   1.00
O48    O     0.31064   0.16179   0.11476   0.00000  Uiso   1.00
O49    O     0.18090   0.16176   0.11477   0.00000  Uiso   1.00
O50    O     0.31910   0.17157   0.21857   0.00000  Uiso   1.00
C51    C     0.74821   0.06672   0.15135   0.00000  Uiso   1.00
C52    C     0.58891   0.14757   0.11260   0.00000  Uiso   1.00
C53    C     0.88397   0.16739   0.16555   0.00000  Uiso   1.00
C54    C     0.61603   0.16594   0.16778   0.00000  Uiso   1.00
C55    C     0.90320   0.14885   0.11076   0.00000  Uiso   1.00
C56    C     0.59680   0.18447   0.22258   0.00000  Uiso   1.00
C57    C     0.94952   0.14846   0.11079   0.00000  Uiso   1.00
C58    C     0.55048   0.18486   0.22255   0.00000  Uiso   1.00
C59    C     0.97671   0.16688   0.16642   0.00000  Uiso   1.00
C60    C     0.52329   0.16643   0.16692   0.00000  Uiso   1.00
C61    C     0.95737   0.18568   0.22156   0.00000  Uiso   1.00
C62    C     0.75179   0.26662   0.18198   0.00000  Uiso   1.00
C63    C     0.54263   0.14765   0.11177   0.00000  Uiso   1.00
C64    C     0.96907   0.12973   0.05626   0.00000  Uiso   1.00
C65    C     0.53093   0.20360   0.27708   0.00000  Uiso   1.00
C66    C     0.51543   0.12932   0.05675   0.00000  Uiso   1.00
C67    C     0.98457   0.20402   0.27658   0.00000  Uiso   1.00
C68    C     0.74084   0.01113   0.14493   0.00000  Uiso   1.00
C69    C     0.75916   0.32220   0.18841   0.00000  Uiso   1.00
C70    C     0.66447   0.16640   0.16724   0.00000  Uiso   1.00
C71    C     0.83553   0.16693   0.16609   0.00000  Uiso   1.00
C72    C     0.91109   0.18577   0.22073   0.00000  Uiso   1.00
Cu73   Cu    0.75500   0.17246   0.22813   0.00000  Uiso   1.00
Cu74   Cu    0.74499   0.16087   0.10521   0.00000  Uiso   1.00
H75    H     0.89624   0.20034   0.26316   0.00000  Uiso   1.00
H76    H     0.69458   0.11047   0.27762   0.00000  Uiso   1.00
H77    H     0.82288   0.16309   0.01374   0.00000  Uiso   1.00
H78    H     0.80542   0.22287   0.05571   0.00000  Uiso   1.00
H79    H     0.60375   0.13302   0.07016   0.00000  Uiso   1.00
H80    H     0.88222   0.13388   0.06836   0.00000  Uiso   1.00
H81    H     0.61778   0.19944   0.26498   0.00000  Uiso   1.00
H82    H     0.94853   0.11554   0.01329   0.00000  Uiso   1.00
H83    H     0.55146   0.21780   0.32004   0.00000  Uiso   1.00
H84    H     0.53002   0.11479   0.01415   0.00000  Uiso   1.00
H85    H     0.96998   0.21857   0.31917   0.00000  Uiso   1.00
H86    H     0.67712   0.17024   0.31959   0.00000  Uiso   1.00
I87    I     0.69109   0.30658   0.07183   0.00000  Uiso   1.00
I88    I     0.80891   0.02675   0.26151   0.00000  Uiso   1.00
N89    N     0.73744   0.15214   0.01284   0.00000  Uiso   1.00
N90    N     0.76255   0.18119   0.32049   0.00000  Uiso   1.00
N91    N     0.69407   0.13676   0.31993   0.00000  Uiso   1.00
N92    N     0.80593   0.19657   0.01340   0.00000  Uiso   1.00
O93    O     0.75325   0.09538   0.20659   0.00000  Uiso   1.00
O94    O     0.74674   0.23796   0.12674   0.00000  Uiso   1.00
O95    O     0.74480   0.08559   0.10279   0.00000  Uiso   1.00
O96    O     0.75520   0.24774   0.23055   0.00000  Uiso   1.00
O97    O     0.68935   0.17155   0.21857   0.00000  Uiso   1.00
O98    O     0.81064   0.16179   0.11476   0.00000  Uiso   1.00
O99    O     0.68090   0.16176   0.11477   0.00000  Uiso   1.00
O100   O     0.81910   0.17157   0.21857   0.00000  Uiso   1.00
C101   C     0.24821   0.40005   0.15135   0.00000  Uiso   1.00
C102   C     0.08891   0.48090   0.11260   0.00000  Uiso   1.00
C103   C     0.38397   0.50072   0.16555   0.00000  Uiso   1.00
C104   C     0.11603   0.49927   0.16778   0.00000  Uiso   1.00
C105   C     0.40320   0.48218   0.11076   0.00000  Uiso   1.00
C106   C     0.09680   0.51781   0.22258   0.00000  Uiso   1.00
C107   C     0.44952   0.48180   0.11079   0.00000  Uiso   1.00
C108   C     0.05048   0.51819   0.22255   0.00000  Uiso   1.00
C109   C     0.47671   0.50022   0.16642   0.00000  Uiso   1.00
C110   C     0.02329   0.49977   0.16692   0.00000  Uiso   1.00
C111   C     0.45737   0.51902   0.22156   0.00000  Uiso   1.00
C112   C     0.25179   0.59995   0.18198   0.00000  Uiso   1.00
C113   C     0.04263   0.48098   0.11177   0.00000  Uiso   1.00
C114   C     0.46907   0.46307   0.05626   0.00000  Uiso   1.00
C115   C     0.03093   0.53693   0.27708   0.00000  Uiso   1.00
C116   C     0.01543   0.46266   0.05675   0.00000  Uiso   1.00
C117   C     0.48457   0.53735   0.27658   0.00000  Uiso   1.00
C118   C     0.24084   0.34447   0.14493   0.00000  Uiso   1.00
C119   C     0.25916   0.65553   0.18841   0.00000  Uiso   1.00
C120   C     0.16447   0.49973   0.16724   0.00000  Uiso   1.00
C121   C     0.33553   0.50027   0.16609   0.00000  Uiso   1.00
C122   C     0.41109   0.51910   0.22073   0.00000  Uiso   1.00
Cu123  Cu    0.25500   0.50579   0.22813   0.00000  Uiso   1.00
Cu124  Cu    0.24499   0.49421   0.10521   0.00000  Uiso   1.00
H125   H     0.39624   0.53367   0.26316   0.00000  Uiso   1.00
H126   H     0.19458   0.44380   0.27762   0.00000  Uiso   1.00
H127   H     0.32288   0.49642   0.01374   0.00000  Uiso   1.00
H128   H     0.30542   0.55620   0.05571   0.00000  Uiso   1.00
H129   H     0.10375   0.46635   0.07016   0.00000  Uiso   1.00
H130   H     0.38222   0.46721   0.06836   0.00000  Uiso   1.00
H131   H     0.11778   0.53277   0.26498   0.00000  Uiso   1.00
H132   H     0.44853   0.44887   0.01329   0.00000  Uiso   1.00
H133   H     0.05146   0.55113   0.32004   0.00000  Uiso   1.00
H134   H     0.03002   0.44813   0.01415   0.00000  Uiso   1.00
H135   H     0.46998   0.55190   0.31917   0.00000  Uiso   1.00
H136   H     0.17712   0.50358   0.31959   0.00000  Uiso   1.00
I137   I     0.19109   0.63991   0.07183   0.00000  Uiso   1.00
I138   I     0.30891   0.36009   0.26151   0.00000  Uiso   1.00
N139   N     0.23744   0.48547   0.01284   0.00000  Uiso   1.00
N140   N     0.26255   0.51453   0.32049   0.00000  Uiso   1.00
N141   N     0.19407   0.47010   0.31993   0.00000  Uiso   1.00
N142   N     0.30593   0.52990   0.01340   0.00000  Uiso   1.00
O143   O     0.25325   0.42871   0.20659   0.00000  Uiso   1.00
O144   O     0.24674   0.57129   0.12674   0.00000  Uiso   1.00
O145   O     0.24480   0.41892   0.10279   0.00000  Uiso   1.00
O146   O     0.25520   0.58108   0.23055   0.00000  Uiso   1.00
O147   O     0.18935   0.50488   0.21857   0.00000  Uiso   1.00
O148   O     0.31064   0.49512   0.11476   0.00000  Uiso   1.00
O149   O     0.18090   0.49510   0.11477   0.00000  Uiso   1.00
O150   O     0.31910   0.50490   0.21857   0.00000  Uiso   1.00
C151   C     0.74821   0.40005   0.15135   0.00000  Uiso   1.00
C152   C     0.58891   0.48090   0.11260   0.00000  Uiso   1.00
C153   C     0.88397   0.50072   0.16555   0.00000  Uiso   1.00
C154   C     0.61603   0.49927   0.16778   0.00000  Uiso   1.00
C155   C     0.90320   0.48218   0.11076   0.00000  Uiso   1.00
C156   C     0.59680   0.51781   0.22258   0.00000  Uiso   1.00
C157   C     0.94952   0.48180   0.11079   0.00000  Uiso   1.00
C158   C     0.55048   0.51819   0.22255   0.00000  Uiso   1.00
C159   C     0.97671   0.50022   0.16642   0.00000  Uiso   1.00
C160   C     0.52329   0.49977   0.16692   0.00000  Uiso   1.00
C161   C     0.95737   0.51902   0.22156   0.00000  Uiso   1.00
C162   C     0.75179   0.59995   0.18198   0.00000  Uiso   1.00
C163   C     0.54263   0.48098   0.11177   0.00000  Uiso   1.00
C164   C     0.96907   0.46307   0.05626   0.00000  Uiso   1.00
C165   C     0.53093   0.53693   0.27708   0.00000  Uiso   1.00
C166   C     0.51543   0.46266   0.05675   0.00000  Uiso   1.00
C167   C     0.98457   0.53735   0.27658   0.00000  Uiso   1.00
C168   C     0.74084   0.34447   0.14493   0.00000  Uiso   1.00
C169   C     0.75916   0.65553   0.18841   0.00000  Uiso   1.00
C170   C     0.66447   0.49973   0.16724   0.00000  Uiso   1.00
C171   C     0.83553   0.50027   0.16609   0.00000  Uiso   1.00
C172   C     0.91109   0.51910   0.22073   0.00000  Uiso   1.00
Cu173  Cu    0.75500   0.50579   0.22813   0.00000  Uiso   1.00
Cu174  Cu    0.74499   0.49421   0.10521   0.00000  Uiso   1.00
H175   H     0.89624   0.53367   0.26316   0.00000  Uiso   1.00
H176   H     0.69458   0.44380   0.27762   0.00000  Uiso   1.00
H177   H     0.82288   0.49642   0.01374   0.00000  Uiso   1.00
H178   H     0.80542   0.55620   0.05571   0.00000  Uiso   1.00
H179   H     0.60375   0.46635   0.07016   0.00000  Uiso   1.00
H180   H     0.88222   0.46721   0.06836   0.00000  Uiso   1.00
H181   H     0.61778   0.53277   0.26498   0.00000  Uiso   1.00
H182   H     0.94853   0.44887   0.01329   0.00000  Uiso   1.00
H183   H     0.55146   0.55113   0.32004   0.00000  Uiso   1.00
H184   H     0.53002   0.44813   0.01415   0.00000  Uiso   1.00
H185   H     0.96998   0.55190   0.31917   0.00000  Uiso   1.00
H186   H     0.67712   0.50358   0.31959   0.00000  Uiso   1.00
I187   I     0.69109   0.63991   0.07183   0.00000  Uiso   1.00
I188   I     0.80891   0.36009   0.26151   0.00000  Uiso   1.00
N189   N     0.73744   0.48547   0.01284   0.00000  Uiso   1.00
N190   N     0.76255   0.51453   0.32049   0.00000  Uiso   1.00
N191   N     0.69407   0.47010   0.31993   0.00000  Uiso   1.00
N192   N     0.80593   0.52990   0.01340   0.00000  Uiso   1.00
O193   O     0.75325   0.42871   0.20659   0.00000  Uiso   1.00
O194   O     0.74674   0.57129   0.12674   0.00000  Uiso   1.00
O195   O     0.74480   0.41892   0.10279   0.00000  Uiso   1.00
O196   O     0.75520   0.58108   0.23055   0.00000  Uiso   1.00
O197   O     0.68935   0.50488   0.21857   0.00000  Uiso   1.00
O198   O     0.81064   0.49512   0.11476   0.00000  Uiso   1.00
O199   O     0.68090   0.49510   0.11477   0.00000  Uiso   1.00
O200   O     0.81910   0.50490   0.21857   0.00000  Uiso   1.00
C201   C     0.24821   0.73338   0.15135   0.00000  Uiso   1.00
C202   C     0.08891   0.81424   0.11260   0.00000  Uiso   1.00
C203   C     0.38397   0.83406   0.16555   0.00000  Uiso   1.00
C204   C     0.11603   0.83261   0.16778   0.00000  Uiso   1.00
C205   C     0.40320   0.81551   0.11076   0.00000  Uiso   1.00
C206   C     0.09680   0.85114   0.22258   0.00000  Uiso   1.00
C207   C     0.44952   0.81513   0.11079   0.00000  Uiso   1.00
C208   C     0.05048   0.85152   0.22255   0.00000  Uiso   1.00
C209   C     0.47671   0.83355   0.16642   0.00000  Uiso   1.00
C210   C     0.02329   0.83310   0.16692   0.00000  Uiso   1.00
C211   C     0.45737   0.85235   0.22156   0.00000  Uiso   1.00
C212   C     0.25179   0.93328   0.18198   0.00000  Uiso   1.00
C213   C     0.04263   0.81431   0.11177   0.00000  Uiso   1.00
C214   C     0.46907   0.79640   0.05626   0.00000  Uiso   1.00
C215   C     0.03093   0.87026   0.27708   0.00000  Uiso   1.00
C216   C     0.01543   0.79599   0.05675   0.00000  Uiso   1.00
C217   C     0.48457   0.87068   0.27658   0.00000  Uiso   1.00
C218   C     0.24084   0.67780   0.14493   0.00000  Uiso   1.00
C219   C     0.25916   0.98886   0.18841   0.00000  Uiso   1.00
C220   C     0.16447   0.83307   0.16724   0.00000  Uiso   1.00
C221   C     0.33553   0.83360   0.16609   0.00000  Uiso   1.00
C222   C     0.41109   0.85244   0.22073   0.00000  Uiso   1.00
Cu223  Cu    0.25500   0.83913   0.22813   0.00000  Uiso   1.00
Cu224  Cu    0.24499   0.82754   0.10521   0.00000  Uiso   1.00
H225   H     0.39624   0.86701   0.26316   0.00000  Uiso   1.00
H226   H     0.19458   0.77713   0.27762   0.00000  Uiso   1.00
H227   H     0.32288   0.82976   0.01374   0.00000  Uiso   1.00
H228   H     0.30542   0.88953   0.05571   0.00000  Uiso   1.00
H229   H     0.10375   0.79969   0.07016   0.00000  Uiso   1.00
H230   H     0.38222   0.80055   0.06836   0.00000  Uiso   1.00
H231   H     0.11778   0.86611   0.26498   0.00000  Uiso   1.00
H232   H     0.44853   0.78221   0.01329   0.00000  Uiso   1.00
H233   H     0.05146   0.88447   0.32004   0.00000  Uiso   1.00
H234   H     0.03002   0.78146   0.01415   0.00000  Uiso   1.00
H235   H     0.46998   0.88523   0.31917   0.00000  Uiso   1.00
H236   H     0.17712   0.83691   0.31959   0.00000  Uiso   1.00
I237   I     0.19109   0.97325   0.07183   0.00000  Uiso   1.00
I238   I     0.30891   0.69342   0.26151   0.00000  Uiso   1.00
N239   N     0.23744   0.81881   0.01284   0.00000  Uiso   1.00
N240   N     0.26255   0.84786   0.32049   0.00000  Uiso   1.00
N241   N     0.19407   0.80343   0.31993   0.00000  Uiso   1.00
N242   N     0.30593   0.86323   0.01340   0.00000  Uiso   1.00
O243   O     0.25325   0.76204   0.20659   0.00000  Uiso   1.00
O244   O     0.24674   0.90462   0.12674   0.00000  Uiso   1.00
O245   O     0.24480   0.75226   0.10279   0.00000  Uiso   1.00
O246   O     0.25520   0.91441   0.23055   0.00000  Uiso   1.00
O247   O     0.18935   0.83821   0.21857   0.00000  Uiso   1.00
O248   O     0.31064   0.82845   0.11476   0.00000  Uiso   1.00
O249   O     0.18090   0.82843   0.11477   0.00000  Uiso   1.00
O250   O     0.31910   0.83824   0.21857   0.00000  Uiso   1.00
C251   C     0.74821   0.73338   0.15135   0.00000  Uiso   1.00
C252   C     0.58891   0.81424   0.11260   0.00000  Uiso   1.00
C253   C     0.88397   0.83406   0.16555   0.00000  Uiso   1.00
C254   C     0.61603   0.83261   0.16778   0.00000  Uiso   1.00
C255   C     0.90320   0.81551   0.11076   0.00000  Uiso   1.00
C256   C     0.59680   0.85114   0.22258   0.00000  Uiso   1.00
C257   C     0.94952   0.81513   0.11079   0.00000  Uiso   1.00
C258   C     0.55048   0.85152   0.22255   0.00000  Uiso   1.00
C259   C     0.97671   0.83355   0.16642   0.00000  Uiso   1.00
C260   C     0.52329   0.83310   0.16692   0.00000  Uiso   1.00
C261   C     0.95737   0.85235   0.22156   0.00000  Uiso   1.00
C262   C     0.75179   0.93328   0.18198   0.00000  Uiso   1.00
C263   C     0.54263   0.81431   0.11177   0.00000  Uiso   1.00
C264   C     0.96907   0.79640   0.05626   0.00000  Uiso   1.00
C265   C     0.53093   0.87026   0.27708   0.00000  Uiso   1.00
C266   C     0.51543   0.79599   0.05675   0.00000  Uiso   1.00
C267   C     0.98457   0.87068   0.27658   0.00000  Uiso   1.00
C268   C     0.74084   0.67780   0.14493   0.00000  Uiso   1.00
C269   C     0.75916   0.98886   0.18841   0.00000  Uiso   1.00
C270   C     0.66447   0.83307   0.16724   0.00000  Uiso   1.00
C271   C     0.83553   0.83360   0.16609   0.00000  Uiso   1.00
C272   C     0.91109   0.85244   0.22073   0.00000  Uiso   1.00
Cu273  Cu    0.75500   0.83913   0.22813   0.00000  Uiso   1.00
Cu274  Cu    0.74499   0.82754   0.10521   0.00000  Uiso   1.00
H275   H     0.89624   0.86701   0.26316   0.00000  Uiso   1.00
H276   H     0.69458   0.77713   0.27762   0.00000  Uiso   1.00
H277   H     0.82288   0.82976   0.01374   0.00000  Uiso   1.00
H278   H     0.80542   0.88953   0.05571   0.00000  Uiso   1.00
H279   H     0.60375   0.79969   0.07016   0.00000  Uiso   1.00
H280   H     0.88222   0.80055   0.06836   0.00000  Uiso   1.00
H281   H     0.61778   0.86611   0.26498   0.00000  Uiso   1.00
H282   H     0.94853   0.78221   0.01329   0.00000  Uiso   1.00
H283   H     0.55146   0.88447   0.32004   0.00000  Uiso   1.00
H284   H     0.53002   0.78146   0.01415   0.00000  Uiso   1.00
H285   H     0.96998   0.88523   0.31917   0.00000  Uiso   1.00
H286   H     0.67712   0.83691   0.31959   0.00000  Uiso   1.00
I287   I     0.69109   0.97325   0.07183   0.00000  Uiso   1.00
I288   I     0.80891   0.69342   0.26151   0.00000  Uiso   1.00
N289   N     0.73744   0.81881   0.01284   0.00000  Uiso   1.00
N290   N     0.76255   0.84786   0.32049   0.00000  Uiso   1.00
N291   N     0.69407   0.80343   0.31993   0.00000  Uiso   1.00
N292   N     0.80593   0.86323   0.01340   0.00000  Uiso   1.00
O293   O     0.75325   0.76204   0.20659   0.00000  Uiso   1.00
O294   O     0.74674   0.90462   0.12674   0.00000  Uiso   1.00
O295   O     0.74480   0.75226   0.10279   0.00000  Uiso   1.00
O296   O     0.75520   0.91441   0.23055   0.00000  Uiso   1.00
O297   O     0.68935   0.83821   0.21857   0.00000  Uiso   1.00
O298   O     0.81064   0.82845   0.11476   0.00000  Uiso   1.00
O299   O     0.68090   0.82843   0.11477   0.00000  Uiso   1.00
O300   O     0.81910   0.83824   0.21857   0.00000  Uiso   1.00
C301   C     0.24821   0.06672   0.48469   0.00000  Uiso   1.00
C302   C     0.08891   0.14757   0.44593   0.00000  Uiso   1.00
C303   C     0.38397   0.16739   0.49889   0.00000  Uiso   1.00
C304   C     0.11603   0.16594   0.50112   0.00000  Uiso   1.00
C305   C     0.40320   0.14885   0.44409   0.00000  Uiso   1.00
C306   C     0.09680   0.18447   0.55591   0.00000  Uiso   1.00
C307   C     0.44952   0.14846   0.44412   0.00000  Uiso   1.00
C308   C     0.05048   0.18486   0.55589   0.00000  Uiso   1.00
C309   C     0.47671   0.16688   0.49975   0.00000  Uiso   1.00
C310   C     0.02329   0.16643   0.50026   0.00000  Uiso   1.00
C311   C     0.45737   0.18568   0.55490   0.00000  Uiso   1.00
C312   C     0.25179   0.26662   0.51531   0.00000  Uiso   1.00
C313   C     0.04263   0.14765   0.44511   0.00000  Uiso   1.00
C314   C     0.46907   0.12973   0.38959   0.00000  Uiso   1.00
C315   C     0.03093   0.20360   0.61041   0.00000  Uiso   1.00
C316   C     0.01543   0.12932   0.39008   0.00000  Uiso   1.00
C317   C     0.48457   0.20402   0.60991   0.00000  Uiso   1.00
C318   C     0.24084   0.01113   0.47826   0.00000  Uiso   1.00
C319   C     0.25916   0.32220   0.52174   0.00000  Uiso   1.00
C320   C     0.16447   0.16640   0.50058   0.00000  Uiso   1.00
C321   C     0.33553   0.16693   0.49942   0.00000  Uiso   1.00
C322   C     0.41109   0.18577   0.55407   0.00000  Uiso   1.00
Cu323  Cu    0.25500   0.17246   0.56146   0.00000  Uiso   1.00
Cu324  Cu    0.24499   0.16087   0.43854   0.00000  Uiso   1.00
H325   H     0.39624   0.20034   0.59649   0.00000  Uiso   1.00
H326   H     0.19458   0.11047   0.61095   0.00000  Uiso   1.00
H327   H     0.32288   0.16309   0.34708   0.00000  Uiso   1.00
H328   H     0.30542   0.22287   0.38905   0.00000  Uiso   1.00
H329   H     0.10375   0.13302   0.40349   0.00000  Uiso   1.00
H330   H     0.38222   0.13388   0.40169   0.00000  Uiso   1.00
H331   H     0.11778   0.19944   0.59832   0.00000  Uiso   1.00
H332   H     0.44853   0.11554   0.34663   0.00000  Uiso   1.00
H333   H     0.05146   0.21780   0.65337   0.00000  Uiso   1.00
H334   H     0.03002   0.11479   0.34748   0.00000  Uiso   1.00
H335   H     0.46998   0.21857   0.65251   0.00000  Uiso   1.00
H336   H     0.17712   0.17024   0.65292   0.00000  Uiso   1.00
I337   I     0.19109   0.30658   0.40516   0.00000  Uiso   1.00
I338   I     0.30891   0.02675   0.59484   0.00000  Uiso   1.00
N339   N     0.23744   0.15214   0.34617   0.00000  Uiso   1.00
N340   N     0.26255   0.18119   0.65383   0.00000  Uiso   1.00
N341   N     0.19407   0.13676   0.65327   0.00000  Uiso   1.00
N342   N     0.30593   0.19657   0.34673   0.00000  Uiso   1.00
O343   O     0.25325   0.09538   0.53992   0.00000  Uiso   1.00
O344   O     0.24674   0.23796   0.46008   0.00000  Uiso   1.00
O345   O     0.24480   0.08559   0.43612   0.00000  Uiso   1.00
O346   O     0.25520   0.24774   0.56388   0.00000  Uiso   1.00
O347   O     0.18935   0.17155   0.55191   0.00000  Uiso   1.00
O348   O     0.31064   0.16179   0.44809   0.00000  Uiso   1.00
O349   O     0.18090   0.16176   0.44810   0.00000  Uiso   1.00
O350   O     0.31910   0.17157   0.55190   0.00000  Uiso   1.00
C351   C     0.74821   0.06672   0.48469   0.00000  Uiso   1.00
C352   C     0.58891   0.14757   0.44593   0.00000  Uiso   1.00
C353   C     0.88397   0.16739   0.49889   0.00000  Uiso   1.00
C354   C     0.61603   0.16594   0.50112   0.00000  Uiso   1.00
C355   C     0.90320   0.14885   0.44409   0.00000  Uiso   1.00
C356   C     0.59680   0.18447   0.55591   0.00000  Uiso   1.00
C357   C     0.94952   0.14846   0.44412   0.00000  Uiso   1.00
C358   C     0.55048   0.18486   0.55589   0.00000  Uiso   1.00
C359   C     0.97671   0.16688   0.49975   0.00000  Uiso   1.00
C360   C     0.52329   0.16643   0.50026   0.00000  Uiso   1.00
C361   C     0.95737   0.18568   0.55490   0.00000  Uiso   1.00
C362   C     0.75179   0.26662   0.51531   0.00000  Uiso   1.00
C363   C     0.54263   0.14765   0.44511   0.00000  Uiso   1.00
C364   C     0.96907   0.12973   0.38959   0.00000  Uiso   1.00
C365   C     0.53093   0.20360   0.61041   0.00000  Uiso   1.00
C366   C     0.51543   0.12932   0.39008   0.00000  Uiso   1.00
C367   C     0.98457   0.20402   0.60991   0.00000  Uiso   1.00
C368   C     0.74084   0.01113   0.47826   0.00000  Uiso   1.00
C369   C     0.75916   0.32220   0.52174   0.00000  Uiso   1.00
C370   C     0.66447   0.16640   0.50058   0.00000  Uiso   1.00
C371   C     0.83553   0.16693   0.49942   0.00000  Uiso   1.00
C372   C     0.91109   0.18577   0.55407   0.00000  Uiso   1.00
Cu373  Cu    0.75500   0.17246   0.56146   0.00000  Uiso   1.00
Cu374  Cu    0.74499   0.16087   0.43854   0.00000  Uiso   1.00
H375   H     0.89624   0.20034   0.59649   0.00000  Uiso   1.00
H376   H     0.69458   0.11047   0.61095   0.00000  Uiso   1.00
H377   H     0.82288   0.16309   0.34708   0.00000  Uiso   1.00
H378   H     0.80542   0.22287   0.38905   0.00000  Uiso   1.00
H379   H     0.60375   0.13302   0.40349   0.00000  Uiso   1.00
H380   H     0.88222   0.13388   0.40169   0.00000  Uiso   1.00
H381   H     0.61778   0.19944   0.59832   0.00000  Uiso   1.00
H382   H     0.94853   0.11554   0.34663   0.00000  Uiso   1.00
H383   H     0.55146   0.21780   0.65337   0.00000  Uiso   1.00
H384   H     0.53002   0.11479   0.34748   0.00000  Uiso   1.00
H385   H     0.96998   0.21857   0.65251   0.00000  Uiso   1.00
H386   H     0.67712   0.17024   0.65292   0.00000  Uiso   1.00
I387   I     0.69109   0.30658   0.40516   0.00000  Uiso   1.00
I388   I     0.80891   0.02675   0.59484   0.00000  Uiso   1.00
N389   N     0.73744   0.15214   0.34617   0.00000  Uiso   1.00
N390   N     0.76255   0.18119   0.65383   0.00000  Uiso   1.00
N391   N     0.69407   0.13676   0.65327   0.00000  Uiso   1.00
N392   N     0.80593   0.19657   0.34673   0.00000  Uiso   1.00
O393   O     0.75325   0.09538   0.53992   0.00000  Uiso   1.00
O394   O     0.74674   0.23796   0.46008   0.00000  Uiso   1.00
O395   O     0.74480   0.08559   0.43612   0.00000  Uiso   1.00
O396   O     0.75520   0.24774   0.56388   0.00000  Uiso   1.00
O397   O     0.68935   0.17155   0.55191   0.00000  Uiso   1.00
O398   O     0.81064   0.16179   0.44809   0.00000  Uiso   1.00
O399   O     0.68090   0.16176   0.44810   0.00000  Uiso   1.00
O400   O     0.81910   0.17157   0.55190   0.00000  Uiso   1.00
C401   C     0.24821   0.40005   0.48469   0.00000  Uiso   1.00
C402   C     0.08891   0.48090   0.44593   0.00000  Uiso   1.00
C403   C     0.38397   0.50072   0.49889   0.00000  Uiso   1.00
C404   C     0.11603   0.49927   0.50112   0.00000  Uiso   1.00
C405   C     0.40320   0.48218   0.44409   0.00000  Uiso   1.00
C406   C     0.09680   0.51781   0.55591   0.00000  Uiso   1.00
C407   C     0.44952   0.48180   0.44412   0.00000  Uiso   1.00
C408   C     0.05048   0.51819   0.55589   0.00000  Uiso   1.00
C409   C     0.47671   0.50022   0.49975   0.00000  Uiso   1.00
C410   C     0.02329   0.49977   0.50026   0.00000  Uiso   1.00
C411   C     0.45737   0.51902   0.55490   0.00000  Uiso   1.00
C412   C     0.25179   0.59995   0.51531   0.00000  Uiso   1.00
C413   C     0.04263   0.48098   0.44511   0.00000  Uiso   1.00
C414   C     0.46907   0.46307   0.38959   0.00000  Uiso   1.00
C415   C     0.03093   0.53693   0.61041   0.00000  Uiso   1.00
C416   C     0.01543   0.46266   0.39008   0.00000  Uiso   1.00
C417   C     0.48457   0.53735   0.60991   0.00000  Uiso   1.00
C418   C     0.24084   0.34447   0.47826   0.00000  Uiso   1.00
C419   C     0.25916   0.65553   0.52174   0.00000  Uiso   1.00
C420   C     0.16447   0.49973   0.50058   0.00000  Uiso   1.00
C421   C     0.33553   0.50027   0.49942   0.00000  Uiso   1.00
C422   C     0.41109   0.51910   0.55407   0.00000  Uiso   1.00
Cu423  Cu    0.25500   0.50579   0.56146   0.00000  Uiso   1.00
Cu424  Cu    0.24499   0.49421   0.43854   0.00000  Uiso   1.00
H425   H     0.39624   0.53367   0.59649   0.00000  Uiso   1.00
H426   H     0.19458   0.44380   0.61095   0.00000  Uiso   1.00
H427   H     0.32288   0.49642   0.34708   0.00000  Uiso   1.00
H428   H     0.30542   0.55620   0.38905   0.00000  Uiso   1.00
H429   H     0.10375   0.46635   0.40349   0.00000  Uiso   1.00
H430   H     0.38222   0.46721   0.40169   0.00000  Uiso   1.00
H431   H     0.11778   0.53277   0.59832   0.00000  Uiso   1.00
H432   H     0.44853   0.44887   0.34663   0.00000  Uiso   1.00
H433   H     0.05146   0.55113   0.65337   0.00000  Uiso   1.00
H434   H     0.03002   0.44813   0.34748   0.00000  Uiso   1.00
H435   H     0.46998   0.55190   0.65251   0.00000  Uiso   1.00
H436   H     0.17712   0.50358   0.65292   0.00000  Uiso   1.00
I437   I     0.19109   0.63991   0.40516   0.00000  Uiso   1.00
I438   I     0.30891   0.36009   0.59484   0.00000  Uiso   1.00
N439   N     0.23744   0.48547   0.34617   0.00000  Uiso   1.00
N440   N     0.26255   0.51453   0.65383   0.00000  Uiso   1.00
N441   N     0.19407   0.47010   0.65327   0.00000  Uiso   1.00
N442   N     0.30593   0.52990   0.34673   0.00000  Uiso   1.00
O443   O     0.25325   0.42871   0.53992   0.00000  Uiso   1.00
O444   O     0.24674   0.57129   0.46008   0.00000  Uiso   1.00
O445   O     0.24480   0.41892   0.43612   0.00000  Uiso   1.00
O446   O     0.25520   0.58108   0.56388   0.00000  Uiso   1.00
O447   O     0.18935   0.50488   0.55191   0.00000  Uiso   1.00
O448   O     0.31064   0.49512   0.44809   0.00000  Uiso   1.00
O449   O     0.18090   0.49510   0.44810   0.00000  Uiso   1.00
O450   O     0.31910   0.50490   0.55190   0.00000  Uiso   1.00
C451   C     0.74821   0.40005   0.48469   0.00000  Uiso   1.00
C452   C     0.58891   0.48090   0.44593   0.00000  Uiso   1.00
C453   C     0.88397   0.50072   0.49889   0.00000  Uiso   1.00
C454   C     0.61603   0.49927   0.50112   0.00000  Uiso   1.00
C455   C     0.90320   0.48218   0.44409   0.00000  Uiso   1.00
C456   C     0.59680   0.51781   0.55591   0.00000  Uiso   1.00
C457   C     0.94952   0.48180   0.44412   0.00000  Uiso   1.00
C458   C     0.55048   0.51819   0.55589   0.00000  Uiso   1.00
C459   C     0.97671   0.50022   0.49975   0.00000  Uiso   1.00
C460   C     0.52329   0.49977   0.50026   0.00000  Uiso   1.00
C461   C     0.95737   0.51902   0.55490   0.00000  Uiso   1.00
C462   C     0.75179   0.59995   0.51531   0.00000  Uiso   1.00
C463   C     0.54263   0.48098   0.44511   0.00000  Uiso   1.00
C464   C     0.96907   0.46307   0.38959   0.00000  Uiso   1.00
C465   C     0.53093   0.53693   0.61041   0.00000  Uiso   1.00
C466   C     0.51543   0.46266   0.39008   0.00000  Uiso   1.00
C467   C     0.98457   0.53735   0.60991   0.00000  Uiso   1.00
C468   C     0.74084   0.34447   0.47826   0.00000  Uiso   1.00
C469   C     0.75916   0.65553   0.52174   0.00000  Uiso   1.00
C470   C     0.66447   0.49973   0.50058   0.00000  Uiso   1.00
C471   C     0.83553   0.50027   0.49942   0.00000  Uiso   1.00
C472   C     0.91109   0.51910   0.55407   0.00000  Uiso   1.00
Cu473  Cu    0.75500   0.50579   0.56146   0.00000  Uiso   1.00
Cu474  Cu    0.74499   0.49421   0.43854   0.00000  Uiso   1.00
H475   H     0.89624   0.53367   0.59649   0.00000  Uiso   1.00
H476   H     0.69458   0.44380   0.61095   0.00000  Uiso   1.00
H477   H     0.82288   0.49642   0.34708   0.00000  Uiso   1.00
H478   H     0.80542   0.55620   0.38905   0.00000  Uiso   1.00
H479   H     0.60375   0.46635   0.40349   0.00000  Uiso   1.00
H480   H     0.88222   0.46721   0.40169   0.00000  Uiso   1.00
H481   H     0.61778   0.53277   0.59832   0.00000  Uiso   1.00
H482   H     0.94853   0.44887   0.34663   0.00000  Uiso   1.00
H483   H     0.55146   0.55113   0.65337   0.00000  Uiso   1.00
H484   H     0.53002   0.44813   0.34748   0.00000  Uiso   1.00
H485   H     0.96998   0.55190   0.65251   0.00000  Uiso   1.00
H486   H     0.67712   0.50358   0.65292   0.00000  Uiso   1.00
I487   I     0.69109   0.63991   0.40516   0.00000  Uiso   1.00
I488   I     0.80891   0.36009   0.59484   0.00000  Uiso   1.00
N489   N     0.73744   0.48547   0.34617   0.00000  Uiso   1.00
N490   N     0.76255   0.51453   0.65383   0.00000  Uiso   1.00
N491   N     0.69407   0.47010   0.65327   0.00000  Uiso   1.00
N492   N     0.80593   0.52990   0.34673   0.00000  Uiso   1.00
O493   O     0.75325   0.42871   0.53992   0.00000  Uiso   1.00
O494   O     0.74674   0.57129   0.46008   0.00000  Uiso   1.00
O495   O     0.74480   0.41892   0.43612   0.00000  Uiso   1.00
O496   O     0.75520   0.58108   0.56388   0.00000  Uiso   1.00
O497   O     0.68935   0.50488   0.55191   0.00000  Uiso   1.00
O498   O     0.81064   0.49512   0.44809   0.00000  Uiso   1.00
O499   O     0.68090   0.49510   0.44810   0.00000  Uiso   1.00
O500   O     0.81910   0.50490   0.55190   0.00000  Uiso   1.00
C501   C     0.24821   0.73338   0.48469   0.00000  Uiso   1.00
C502   C     0.08891   0.81424   0.44593   0.00000  Uiso   1.00
C503   C     0.38397   0.83406   0.49889   0.00000  Uiso   1.00
C504   C     0.11603   0.83261   0.50112   0.00000  Uiso   1.00
C505   C     0.40320   0.81551   0.44409   0.00000  Uiso   1.00
C506   C     0.09680   0.85114   0.55591   0.00000  Uiso   1.00
C507   C     0.44952   0.81513   0.44412   0.00000  Uiso   1.00
C508   C     0.05048   0.85152   0.55589   0.00000  Uiso   1.00
C509   C     0.47671   0.83355   0.49975   0.00000  Uiso   1.00
C510   C     0.02329   0.83310   0.50026   0.00000  Uiso   1.00
C511   C     0.45737   0.85235   0.55490   0.00000  Uiso   1.00
C512   C     0.25179   0.93328   0.51531   0.00000  Uiso   1.00
C513   C     0.04263   0.81431   0.44511   0.00000  Uiso   1.00
C514   C     0.46907   0.79640   0.38959   0.00000  Uiso   1.00
C515   C     0.03093   0.87026   0.61041   0.00000  Uiso   1.00
C516   C     0.01543   0.79599   0.39008   0.00000  Uiso   1.00
C517   C     0.48457   0.87068   0.60991   0.00000  Uiso   1.00
C518   C     0.24084   0.67780   0.47826   0.00000  Uiso   1.00
C519   C     0.25916   0.98886   0.52174   0.00000  Uiso   1.00
C520   C     0.16447   0.83307   0.50058   0.00000  Uiso   1.00
C521   C     0.33553   0.83360   0.49942   0.00000  Uiso   1.00
C522   C     0.41109   0.85244   0.55407   0.00000  Uiso   1.00
Cu523  Cu    0.25500   0.83913   0.56146   0.00000  Uiso   1.00
Cu524  Cu    0.24499   0.82754   0.43854   0.00000  Uiso   1.00
H525   H     0.39624   0.86701   0.59649   0.00000  Uiso   1.00
H526   H     0.19458   0.77713   0.61095   0.00000  Uiso   1.00
H527   H     0.32288   0.82976   0.34708   0.00000  Uiso   1.00
H528   H     0.30542   0.88953   0.38905   0.00000  Uiso   1.00
H529   H     0.10375   0.79969   0.40349   0.00000  Uiso   1.00
H530   H     0.38222   0.80055   0.40169   0.00000  Uiso   1.00
H531   H     0.11778   0.86611   0.59832   0.00000  Uiso   1.00
H532   H     0.44853   0.78221   0.34663   0.00000  Uiso   1.00
H533   H     0.05146   0.88447   0.65337   0.00000  Uiso   1.00
H534   H     0.03002   0.78146   0.34748   0.00000  Uiso   1.00
H535   H     0.46998   0.88523   0.65251   0.00000  Uiso   1.00
H536   H     0.17712   0.83691   0.65292   0.00000  Uiso   1.00
I537   I     0.19109   0.97325   0.40516   0.00000  Uiso   1.00
I538   I     0.30891   0.69342   0.59484   0.00000  Uiso   1.00
N539   N     0.23744   0.81881   0.34617   0.00000  Uiso   1.00
N540   N     0.26255   0.84786   0.65383   0.00000  Uiso   1.00
N541   N     0.19407   0.80343   0.65327   0.00000  Uiso   1.00
N542   N     0.30593   0.86323   0.34673   0.00000  Uiso   1.00
O543   O     0.25325   0.76204   0.53992   0.00000  Uiso   1.00
O544   O     0.24674   0.90462   0.46008   0.00000  Uiso   1.00
O545   O     0.24480   0.75226   0.43612   0.00000  Uiso   1.00
O546   O     0.25520   0.91441   0.56388   0.00000  Uiso   1.00
O547   O     0.18935   0.83821   0.55191   0.00000  Uiso   1.00
O548   O     0.31064   0.82845   0.44809   0.00000  Uiso   1.00
O549   O     0.18090   0.82843   0.44810   0.00000  Uiso   1.00
O550   O     0.31910   0.83824   0.55190   0.00000  Uiso   1.00
C551   C     0.74821   0.73338   0.48469   0.00000  Uiso   1.00
C552   C     0.58891   0.81424   0.44593   0.00000  Uiso   1.00
C553   C     0.88397   0.83406   0.49889   0.00000  Uiso   1.00
C554   C     0.61603   0.83261   0.50112   0.00000  Uiso   1.00
C555   C     0.90320   0.81551   0.44409   0.00000  Uiso   1.00
C556   C     0.59680   0.85114   0.55591   0.00000  Uiso   1.00
C557   C     0.94952   0.81513   0.44412   0.00000  Uiso   1.00
C558   C     0.55048   0.85152   0.55589   0.00000  Uiso   1.00
C559   C     0.97671   0.83355   0.49975   0.00000  Uiso   1.00
C560   C     0.52329   0.83310   0.50026   0.00000  Uiso   1.00
C561   C     0.95737   0.85235   0.55490   0.00000  Uiso   1.00
C562   C     0.75179   0.93328   0.51531   0.00000  Uiso   1.00
C563   C     0.54263   0.81431   0.44511   0.00000  Uiso   1.00
C564   C     0.96907   0.79640   0.38959   0.00000  Uiso   1.00
C565   C     0.53093   0.87026   0.61041   0.00000  Uiso   1.00
C566   C     0.51543   0.79599   0.39008   0.00000  Uiso   1.00
C567   C     0.98457   0.87068   0.60991   0.00000  Uiso   1.00
C568   C     0.74084   0.67780   0.47826   0.00000  Uiso   1.00
C569   C     0.75916   0.98886   0.52174   0.00000  Uiso   1.00
C570   C     0.66447   0.83307   0.50058   0.00000  Uiso   1.00
C571   C     0.83553   0.83360   0.49942   0.00000  Uiso   1.00
C572   C     0.91109   0.85244   0.55407   0.00000  Uiso   1.00
Cu573  Cu    0.75500   0.83913   0.56146   0.00000  Uiso   1.00
Cu574  Cu    0.74499   0.82754   0.43854   0.00000  Uiso   1.00
H575   H     0.89624   0.86701   0.59649   0.00000  Uiso   1.00
H576   H     0.69458   0.77713   0.61095   0.00000  Uiso   1.00
H577   H     0.82288   0.82976   0.34708   0.00000  Uiso   1.00
H578   H     0.80542   0.88953   0.38905   0.00000  Uiso   1.00
H579   H     0.60375   0.79969   0.40349   0.00000  Uiso   1.00
H580   H     0.88222   0.80055   0.40169   0.00000  Uiso   1.00
H581   H     0.61778   0.86611   0.59832   0.00000  Uiso   1.00
H582   H     0.94853   0.78221   0.34663   0.00000  Uiso   1.00
H583   H     0.55146   0.88447   0.65337   0.00000  Uiso   1.00
H584   H     0.53002   0.78146   0.34748   0.00000  Uiso   1.00
H585   H     0.96998   0.88523   0.65251   0.00000  Uiso   1.00
H586   H     0.67712   0.83691   0.65292   0.00000  Uiso   1.00
I587   I     0.69109   0.97325   0.40516   0.00000  Uiso   1.00
I588   I     0.80891   0.69342   0.59484   0.00000  Uiso   1.00
N589   N     0.73744   0.81881   0.34617   0.00000  Uiso   1.00
N590   N     0.76255   0.84786   0.65383   0.00000  Uiso   1.00
N591   N     0.69407   0.80343   0.65327   0.00000  Uiso   1.00
N592   N     0.80593   0.86323   0.34673   0.00000  Uiso   1.00
O593   O     0.75325   0.76204   0.53992   0.00000  Uiso   1.00
O594   O     0.74674   0.90462   0.46008   0.00000  Uiso   1.00
O595   O     0.74480   0.75226   0.43612   0.00000  Uiso   1.00
O596   O     0.75520   0.91441   0.56388   0.00000  Uiso   1.00
O597   O     0.68935   0.83821   0.55191   0.00000  Uiso   1.00
O598   O     0.81064   0.82845   0.44809   0.00000  Uiso   1.00
O599   O     0.68090   0.82843   0.44810   0.00000  Uiso   1.00
O600   O     0.81910   0.83824   0.55190   0.00000  Uiso   1.00
C601   C     0.24821   0.06672   0.81802   0.00000  Uiso   1.00
C602   C     0.08891   0.14757   0.77926   0.00000  Uiso   1.00
C603   C     0.38397   0.16739   0.83222   0.00000  Uiso   1.00
C604   C     0.11603   0.16594   0.83445   0.00000  Uiso   1.00
C605   C     0.40320   0.14885   0.77743   0.00000  Uiso   1.00
C606   C     0.09680   0.18447   0.88925   0.00000  Uiso   1.00
C607   C     0.44952   0.14846   0.77745   0.00000  Uiso   1.00
C608   C     0.05048   0.18486   0.88922   0.00000  Uiso   1.00
C609   C     0.47671   0.16688   0.83308   0.00000  Uiso   1.00
C610   C     0.02329   0.16643   0.83359   0.00000  Uiso   1.00
C611   C     0.45737   0.18568   0.88823   0.00000  Uiso   1.00
C612   C     0.25179   0.26662   0.84865   0.00000  Uiso   1.00
C613   C     0.04263   0.14765   0.77844   0.00000  Uiso   1.00
C614   C     0.46907   0.12973   0.72292   0.00000  Uiso   1.00
C615   C     0.03093   0.20360   0.94375   0.00000  Uiso   1.00
C616   C     0.01543   0.12932   0.72342   0.00000  Uiso   1.00
C617   C     0.48457   0.20402   0.94325   0.00000  Uiso   1.00
C618   C     0.24084   0.01113   0.81159   0.00000  Uiso   1.00
C619   C     0.25916   0.32220   0.85507   0.00000  Uiso   1.00
C620   C     0.16447   0.16640   0.83391   0.00000  Uiso   1.00
C621   C     0.33553   0.16693   0.83276   0.00000  Uiso   1.00
C622   C     0.41109   0.18577   0.88740   0.00000  Uiso   1.00
Cu623  Cu    0.25500   0.17246   0.89479   0.00000  Uiso   1.00
Cu624  Cu    0.24499   0.16087   0.77187   0.00000  Uiso   1.00
H625   H     0.39624   0.20034   0.92983   0.00000  Uiso   1.00
H626   H     0.19458   0.11047   0.94429   0.00000  Uiso   1.00
H627   H     0.32288   0.16309   0.68041   0.00000  Uiso   1.00
H628   H     0.30542   0.22287   0.72238   0.00000  Uiso   1.00
H629   H     0.10375   0.13302   0.73682   0.00000  Uiso   1.00
H630   H     0.38222   0.13388   0.73503   0.00000  Uiso   1.00
H631   H     0.11778   0.19944   0.93165   0.00000  Uiso   1.00
H632   H     0.44853   0.11554   0.67996   0.00000  Uiso   1.00
H633   H     0.05146   0.21780   0.98671   0.00000  Uiso   1.00
H634   H     0.03002   0.11479   0.68081   0.00000  Uiso   1.00
H635   H     0.46998   0.21857   0.98584   0.00000  Uiso   1.00
H636   H     0.17712   0.17024   0.98626   0.00000  Uiso   1.00
I637   I     0.19109   0.30658   0.73849   0.00000  Uiso   1.00
I638   I     0.30891   0.02675   0.92817   0.00000  Uiso   1.00
N639   N     0.23744   0.15214   0.67951   0.00000  Uiso   1.00
N640   N     0.26255   0.18119   0.98716   0.00000  Uiso   1.00
N641   N     0.19407   0.13676   0.98660   0.00000  Uiso   1.00
N642   N     0.30593   0.19657   0.68007   0.00000  Uiso   1.00
O643   O     0.25325   0.09538   0.87326   0.00000  Uiso   1.00
O644   O     0.24674   0.23796   0.79341   0.00000  Uiso   1.00
O645   O     0.24480   0.08559   0.76945   0.00000  Uiso   1.00
O646   O     0.25520   0.24774   0.89721   0.00000  Uiso   1.00
O647   O     0.18935   0.17155   0.88524   0.00000  Uiso   1.00
O648   O     0.31064   0.16179   0.78143   0.00000  Uiso   1.00
O649   O     0.18090   0.16176   0.78143   0.00000  Uiso   1.00
O650   O     0.31910   0.17157   0.88523   0.00000  Uiso   1.00
C651   C     0.74821   0.06672   0.81802   0.00000  Uiso   1.00
C652   C     0.58891   0.14757   0.77926   0.00000  Uiso   1.00
C653   C     0.88397   0.16739   0.83222   0.00000  Uiso   1.00
C654   C     0.61603   0.16594   0.83445   0.00000  Uiso   1.00
C655   C     0.90320   0.14885   0.77743   0.00000  Uiso   1.00
C656   C     0.59680   0.18447   0.88925   0.00000  Uiso   1.00
C657   C     0.94952   0.14846   0.77745   0.00000  Uiso   1.00
C658   C     0.55048   0.18486   0.88922   0.00000  Uiso   1.00
C659   C     0.97671   0.16688   0.83308   0.00000  Uiso   1.00
C660   C     0.52329   0.16643   0.83359   0.00000  Uiso   1.00
C661   C     0.95737   0.18568   0.88823   0.00000  Uiso   1.00
C662   C     0.75179   0.26662   0.84865   0.00000  Uiso   1.00
C663   C     0.54263   0.14765   0.77844   0.00000  Uiso   1.00
C664   C     0.96907   0.12973   0.72292   0.00000  Uiso   1.00
C665   C     0.53093   0.20360   0.94375   0.00000  Uiso   1.00
C666   C     0.51543   0.12932   0.72342   0.00000  Uiso   1.00
C667   C     0.98457   0.20402   0.94325   0.00000  Uiso   1.00
C668   C     0.74084   0.01113   0.81159   0.00000  Uiso   1.00
C669   C     0.75916   0.32220   0.85507   0.00000  Uiso   1.00
C670   C     0.66447   0.16640   0.83391   0.00000  Uiso   1.00
C671   C     0.83553   0.16693   0.83276   0.00000  Uiso   1.00
C672   C     0.91109   0.18577   0.88740   0.00000  Uiso   1.00
Cu673  Cu    0.75500   0.17246   0.89479   0.00000  Uiso   1.00
Cu674  Cu    0.74499   0.16087   0.77187   0.00000  Uiso   1.00
H675   H     0.89624   0.20034   0.92983   0.00000  Uiso   1.00
H676   H     0.69458   0.11047   0.94429   0.00000  Uiso   1.00
H677   H     0.82288   0.16309   0.68041   0.00000  Uiso   1.00
H678   H     0.80542   0.22287   0.72238   0.00000  Uiso   1.00
H679   H     0.60375   0.13302   0.73682   0.00000  Uiso   1.00
H680   H     0.88222   0.13388   0.73503   0.00000  Uiso   1.00
H681   H     0.61778   0.19944   0.93165   0.00000  Uiso   1.00
H682   H     0.94853   0.11554   0.67996   0.00000  Uiso   1.00
H683   H     0.55146   0.21780   0.98671   0.00000  Uiso   1.00
H684   H     0.53002   0.11479   0.68081   0.00000  Uiso   1.00
H685   H     0.96998   0.21857   0.98584   0.00000  Uiso   1.00
H686   H     0.67712   0.17024   0.98626   0.00000  Uiso   1.00
I687   I     0.69109   0.30658   0.73849   0.00000  Uiso   1.00
I688   I     0.80891   0.02675   0.92817   0.00000  Uiso   1.00
N689   N     0.73744   0.15214   0.67951   0.00000  Uiso   1.00
N690   N     0.76255   0.18119   0.98716   0.00000  Uiso   1.00
N691   N     0.69407   0.13676   0.98660   0.00000  Uiso   1.00
N692   N     0.80593   0.19657   0.68007   0.00000  Uiso   1.00
O693   O     0.75325   0.09538   0.87326   0.00000  Uiso   1.00
O694   O     0.74674   0.23796   0.79341   0.00000  Uiso   1.00
O695   O     0.74480   0.08559   0.76945   0.00000  Uiso   1.00
O696   O     0.75520   0.24774   0.89721   0.00000  Uiso   1.00
O697   O     0.68935   0.17155   0.88524   0.00000  Uiso   1.00
O698   O     0.81064   0.16179   0.78143   0.00000  Uiso   1.00
O699   O     0.68090   0.16176   0.78143   0.00000  Uiso   1.00
O700   O     0.81910   0.17157   0.88523   0.00000  Uiso   1.00
C701   C     0.24821   0.40005   0.81802   0.00000  Uiso   1.00
C702   C     0.08891   0.48090   0.77926   0.00000  Uiso   1.00
C703   C     0.38397   0.50072   0.83222   0.00000  Uiso   1.00
C704   C     0.11603   0.49927   0.83445   0.00000  Uiso   1.00
C705   C     0.40320   0.48218   0.77743   0.00000  Uiso   1.00
C706   C     0.09680   0.51781   0.88925   0.00000  Uiso   1.00
C707   C     0.44952   0.48180   0.77745   0.00000  Uiso   1.00
C708   C     0.05048   0.51819   0.88922   0.00000  Uiso   1.00
C709   C     0.47671   0.50022   0.83308   0.00000  Uiso   1.00
C710   C     0.02329   0.49977   0.83359   0.00000  Uiso   1.00
C711   C     0.45737   0.51902   0.88823   0.00000  Uiso   1.00
C712   C     0.25179   0.59995   0.84865   0.00000  Uiso   1.00
C713   C     0.04263   0.48098   0.77844   0.00000  Uiso   1.00
C714   C     0.46907   0.46307   0.72292   0.00000  Uiso   1.00
C715   C     0.03093   0.53693   0.94375   0.00000  Uiso   1.00
C716   C     0.01543   0.46266   0.72342   0.00000  Uiso   1.00
C717   C     0.48457   0.53735   0.94325   0.00000  Uiso   1.00
C718   C     0.24084   0.34447   0.81159   0.00000  Uiso   1.00
C719   C     0.25916   0.65553   0.85507   0.00000  Uiso   1.00
C720   C     0.16447   0.49973   0.83391   0.00000  Uiso   1.00
C721   C     0.33553   0.50027   0.83276   0.00000  Uiso   1.00
C722   C     0.41109   0.51910   0.88740   0.00000  Uiso   1.00
Cu723  Cu    0.25500   0.50579   0.89479   0.00000  Uiso   1.00
Cu724  Cu    0.24499   0.49421   0.77187   0.00000  Uiso   1.00
H725   H     0.39624   0.53367   0.92983   0.00000  Uiso   1.00
H726   H     0.19458   0.44380   0.94429   0.00000  Uiso   1.00
H727   H     0.32288   0.49642   0.68041   0.00000  Uiso   1.00
H728   H     0.30542   0.55620   0.72238   0.00000  Uiso   1.00
H729   H     0.10375   0.46635   0.73682   0.00000  Uiso   1.00
H730   H     0.38222   0.46721   0.73503   0.00000  Uiso   1.00
H731   H     0.11778   0.53277   0.93165   0.00000  Uiso   1.00
H732   H     0.44853   0.44887   0.67996   0.00000  Uiso   1.00
H733   H     0.05146   0.55113   0.98671   0.00000  Uiso   1.00
H734   H     0.03002   0.44813   0.68081   0.00000  Uiso   1.00
H735   H     0.46998   0.55190   0.98584   0.00000  Uiso   1.00
H736   H     0.17712   0.50358   0.98626   0.00000  Uiso   1.00
I737   I     0.19109   0.63991   0.73849   0.00000  Uiso   1.00
I738   I     0.30891   0.36009   0.92817   0.00000  Uiso   1.00
N739   N     0.23744   0.48547   0.67951   0.00000  Uiso   1.00
N740   N     0.26255   0.51453   0.98716   0.00000  Uiso   1.00
N741   N     0.19407   0.47010   0.98660   0.00000  Uiso   1.00
N742   N     0.30593   0.52990   0.68007   0.00000  Uiso   1.00
O743   O     0.25325   0.42871   0.87326   0.00000  Uiso   1.00
O744   O     0.24674   0.57129   0.79341   0.00000  Uiso   1.00
O745   O     0.24480   0.41892   0.76945   0.00000  Uiso   1.00
O746   O     0.25520   0.58108   0.89721   0.00000  Uiso   1.00
O747   O     0.18935   0.50488   0.88524   0.00000  Uiso   1.00
O748   O     0.31064   0.49512   0.78143   0.00000  Uiso   1.00
O749   O     0.18090   0.49510   0.78143   0.00000  Uiso   1.00
O750   O     0.31910   0.50490   0.88523   0.00000  Uiso   1.00
C751   C     0.74821   0.40005   0.81802   0.00000  Uiso   1.00
C752   C     0.58891   0.48090   0.77926   0.00000  Uiso   1.00
C753   C     0.88397   0.50072   0.83222   0.00000  Uiso   1.00
C754   C     0.61603   0.49927   0.83445   0.00000  Uiso   1.00
C755   C     0.90320   0.48218   0.77743   0.00000  Uiso   1.00
C756   C     0.59680   0.51781   0.88925   0.00000  Uiso   1.00
C757   C     0.94952   0.48180   0.77745   0.00000  Uiso   1.00
C758   C     0.55048   0.51819   0.88922   0.00000  Uiso   1.00
C759   C     0.97671   0.50022   0.83308   0.00000  Uiso   1.00
C760   C     0.52329   0.49977   0.83359   0.00000  Uiso   1.00
C761   C     0.95737   0.51902   0.88823   0.00000  Uiso   1.00
C762   C     0.75179   0.59995   0.84865   0.00000  Uiso   1.00
C763   C     0.54263   0.48098   0.77844   0.00000  Uiso   1.00
C764   C     0.96907   0.46307   0.72292   0.00000  Uiso   1.00
C765   C     0.53093   0.53693   0.94375   0.00000  Uiso   1.00
C766   C     0.51543   0.46266   0.72342   0.00000  Uiso   1.00
C767   C     0.98457   0.53735   0.94325   0.00000  Uiso   1.00
C768   C     0.74084   0.34447   0.81159   0.00000  Uiso   1.00
C769   C     0.75916   0.65553   0.85507   0.00000  Uiso   1.00
C770   C     0.66447   0.49973   0.83391   0.00000  Uiso   1.00
C771   C     0.83553   0.50027   0.83276   0.00000  Uiso   1.00
C772   C     0.91109   0.51910   0.88740   0.00000  Uiso   1.00
Cu773  Cu    0.75500   0.50579   0.89479   0.00000  Uiso   1.00
Cu774  Cu    0.74499   0.49421   0.77187   0.00000  Uiso   1.00
H775   H     0.89624   0.53367   0.92983   0.00000  Uiso   1.00
H776   H     0.69458   0.44380   0.94429   0.00000  Uiso   1.00
H777   H     0.82288   0.49642   0.68041   0.00000  Uiso   1.00
H778   H     0.80542   0.55620   0.72238   0.00000  Uiso   1.00
H779   H     0.60375   0.46635   0.73682   0.00000  Uiso   1.00
H780   H     0.88222   0.46721   0.73503   0.00000  Uiso   1.00
H781   H     0.61778   0.53277   0.93165   0.00000  Uiso   1.00
H782   H     0.94853   0.44887   0.67996   0.00000  Uiso   1.00
H783   H     0.55146   0.55113   0.98671   0.00000  Uiso   1.00
H784   H     0.53002   0.44813   0.68081   0.00000  Uiso   1.00
H785   H     0.96998   0.55190   0.98584   0.00000  Uiso   1.00
H786   H     0.67712   0.50358   0.98626   0.00000  Uiso   1.00
I787   I     0.69109   0.63991   0.73849   0.00000  Uiso   1.00
I788   I     0.80891   0.36009   0.92817   0.00000  Uiso   1.00
N789   N     0.73744   0.48547   0.67951   0.00000  Uiso   1.00
N790   N     0.76255   0.51453   0.98716   0.00000  Uiso   1.00
N791   N     0.69407   0.47010   0.98660   0.00000  Uiso   1.00
N792   N     0.80593   0.52990   0.68007   0.00000  Uiso   1.00
O793   O     0.75325   0.42871   0.87326   0.00000  Uiso   1.00
O794   O     0.74674   0.57129   0.79341   0.00000  Uiso   1.00
O795   O     0.74480   0.41892   0.76945   0.00000  Uiso   1.00
O796   O     0.75520   0.58108   0.89721   0.00000  Uiso   1.00
O797   O     0.68935   0.50488   0.88524   0.00000  Uiso   1.00
O798   O     0.81064   0.49512   0.78143   0.00000  Uiso   1.00
O799   O     0.68090   0.49510   0.78143   0.00000  Uiso   1.00
O800   O     0.81910   0.50490   0.88523   0.00000  Uiso   1.00
C801   C     0.24821   0.73338   0.81802   0.00000  Uiso   1.00
C802   C     0.08891   0.81424   0.77926   0.00000  Uiso   1.00
C803   C     0.38397   0.83406   0.83222   0.00000  Uiso   1.00
C804   C     0.11603   0.83261   0.83445   0.00000  Uiso   1.00
C805   C     0.40320   0.81551   0.77743   0.00000  Uiso   1.00
C806   C     0.09680   0.85114   0.88925   0.00000  Uiso   1.00
C807   C     0.44952   0.81513   0.77745   0.00000  Uiso   1.00
C808   C     0.05048   0.85152   0.88922   0.00000  Uiso   1.00
C809   C     0.47671   0.83355   0.83308   0.00000  Uiso   1.00
C810   C     0.02329   0.83310   0.83359   0.00000  Uiso   1.00
C811   C     0.45737   0.85235   0.88823   0.00000  Uiso   1.00
C812   C     0.25179   0.93328   0.84865   0.00000  Uiso   1.00
C813   C     0.04263   0.81431   0.77844   0.00000  Uiso   1.00
C814   C     0.46907   0.79640   0.72292   0.00000  Uiso   1.00
C815   C     0.03093   0.87026   0.94375   0.00000  Uiso   1.00
C816   C     0.01543   0.79599   0.72342   0.00000  Uiso   1.00
C817   C     0.48457   0.87068   0.94325   0.00000  Uiso   1.00
C818   C     0.24084   0.67780   0.81159   0.00000  Uiso   1.00
C819   C     0.25916   0.98886   0.85507   0.00000  Uiso   1.00
C820   C     0.16447   0.83307   0.83391   0.00000  Uiso   1.00
C821   C     0.33553   0.83360   0.83276   0.00000  Uiso   1.00
C822   C     0.41109   0.85244   0.88740   0.00000  Uiso   1.00
Cu823  Cu    0.25500   0.83913   0.89479   0.00000  Uiso   1.00
Cu824  Cu    0.24499   0.82754   0.77187   0.00000  Uiso   1.00
H825   H     0.39624   0.86701   0.92983   0.00000  Uiso   1.00
H826   H     0.19458   0.77713   0.94429   0.00000  Uiso   1.00
H827   H     0.32288   0.82976   0.68041   0.00000  Uiso   1.00
H828   H     0.30542   0.88953   0.72238   0.00000  Uiso   1.00
H829   H     0.10375   0.79969   0.73682   0.00000  Uiso   1.00
H830   H     0.38222   0.80055   0.73503   0.00000  Uiso   1.00
H831   H     0.11778   0.86611   0.93165   0.00000  Uiso   1.00
H832   H     0.44853   0.78221   0.67996   0.00000  Uiso   1.00
H833   H     0.05146   0.88447   0.98671   0.00000  Uiso   1.00
H834   H     0.03002   0.78146   0.68081   0.00000  Uiso   1.00
H835   H     0.46998   0.88523   0.98584   0.00000  Uiso   1.00
H836   H     0.17712   0.83691   0.98626   0.00000  Uiso   1.00
I837   I     0.19109   0.97325   0.73849   0.00000  Uiso   1.00
I838   I     0.30891   0.69342   0.92817   0.00000  Uiso   1.00
N839   N     0.23744   0.81881   0.67951   0.00000  Uiso   1.00
N840   N     0.26255   0.84786   0.98716   0.00000  Uiso   1.00
N841   N     0.19407   0.80343   0.98660   0.00000  Uiso   1.00
N842   N     0.30593   0.86323   0.68007   0.00000  Uiso   1.00
O843   O     0.25325   0.76204   0.87326   0.00000  Uiso   1.00
O844   O     0.24674   0.90462   0.79341   0.00000  Uiso   1.00
O845   O     0.24480   0.75226   0.76945   0.00000  Uiso   1.00
O846   O     0.25520   0.91441   0.89721   0.00000  Uiso   1.00
O847   O     0.18935   0.83821   0.88524   0.00000  Uiso   1.00
O848   O     0.31064   0.82845   0.78143   0.00000  Uiso   1.00
O849   O     0.18090   0.82843   0.78143   0.00000  Uiso   1.00
O850   O     0.31910   0.83824   0.88523   0.00000  Uiso   1.00
C851   C     0.74821   0.73338   0.81802   0.00000  Uiso   1.00
C852   C     0.58891   0.81424   0.77926   0.00000  Uiso   1.00
C853   C     0.88397   0.83406   0.83222   0.00000  Uiso   1.00
C854   C     0.61603   0.83261   0.83445   0.00000  Uiso   1.00
C855   C     0.90320   0.81551   0.77743   0.00000  Uiso   1.00
C856   C     0.59680   0.85114   0.88925   0.00000  Uiso   1.00
C857   C     0.94952   0.81513   0.77745   0.00000  Uiso   1.00
C858   C     0.55048   0.85152   0.88922   0.00000  Uiso   1.00
C859   C     0.97671   0.83355   0.83308   0.00000  Uiso   1.00
C860   C     0.52329   0.83310   0.83359   0.00000  Uiso   1.00
C861   C     0.95737   0.85235   0.88823   0.00000  Uiso   1.00
C862   C     0.75179   0.93328   0.84865   0.00000  Uiso   1.00
C863   C     0.54263   0.81431   0.77844   0.00000  Uiso   1.00
C864   C     0.96907   0.79640   0.72292   0.00000  Uiso   1.00
C865   C     0.53093   0.87026   0.94375   0.00000  Uiso   1.00
C866   C     0.51543   0.79599   0.72342   0.00000  Uiso   1.00
C867   C     0.98457   0.87068   0.94325   0.00000  Uiso   1.00
C868   C     0.74084   0.67780   0.81159   0.00000  Uiso   1.00
C869   C     0.75916   0.98886   0.85507   0.00000  Uiso   1.00
C870   C     0.66447   0.83307   0.83391   0.00000  Uiso   1.00
C871   C     0.83553   0.83360   0.83276   0.00000  Uiso   1.00
C872   C     0.91109   0.85244   0.88740   0.00000  Uiso   1.00
Cu873  Cu    0.75500   0.83913   0.89479   0.00000  Uiso   1.00
Cu874  Cu    0.74499   0.82754   0.77187   0.00000  Uiso   1.00
H875   H     0.89624   0.86701   0.92983   0.00000  Uiso   1.00
H876   H     0.69458   0.77713   0.94429   0.00000  Uiso   1.00
H877   H     0.82288   0.82976   0.68041   0.00000  Uiso   1.00
H878   H     0.80542   0.88953   0.72238   0.00000  Uiso   1.00
H879   H     0.60375   0.79969   0.73682   0.00000  Uiso   1.00
H880   H     0.88222   0.80055   0.73503   0.00000  Uiso   1.00
H881   H     0.61778   0.86611   0.93165   0.00000  Uiso   1.00
H882   H     0.94853   0.78221   0.67996   0.00000  Uiso   1.00
H883   H     0.55146   0.88447   0.98671   0.00000  Uiso   1.00
H884   H     0.53002   0.78146   0.68081   0.00000  Uiso   1.00
H885   H     0.96998   0.88523   0.98584   0.00000  Uiso   1.00
H886   H     0.67712   0.83691   0.98626   0.00000  Uiso   1.00
I887   I     0.69109   0.97325   0.73849   0.00000  Uiso   1.00
I888   I     0.80891   0.69342   0.92817   0.00000  Uiso   1.00
N889   N     0.73744   0.81881   0.67951   0.00000  Uiso   1.00
N890   N     0.76255   0.84786   0.98716   0.00000  Uiso   1.00
N891   N     0.69407   0.80343   0.98660   0.00000  Uiso   1.00
N892   N     0.80593   0.86323   0.68007   0.00000  Uiso   1.00
O893   O     0.75325   0.76204   0.87326   0.00000  Uiso   1.00
O894   O     0.74674   0.90462   0.79341   0.00000  Uiso   1.00
O895   O     0.74480   0.75226   0.76945   0.00000  Uiso   1.00
O896   O     0.75520   0.91441   0.89721   0.00000  Uiso   1.00
O897   O     0.68935   0.83821   0.88524   0.00000  Uiso   1.00
O898   O     0.81064   0.82845   0.78143   0.00000  Uiso   1.00
O899   O     0.68090   0.82843   0.78143   0.00000  Uiso   1.00
O900   O     0.81910   0.83824   0.88523   0.00000  Uiso   1.00
loop_
_geom_bond_atom_site_label_1
_geom_bond_atom_site_label_2
_geom_bond_distance
_geom_bond_site_symmetry_2
_ccdc_geom_bond_type
C1     O45     1.303   .     A
C1     C18     1.431   .     S
C1     O43     1.290   .     A
C2     C4      1.404   .     A
C2     H29     1.085   .     S
C2     C13     1.390   .     A
C3     C22     1.404   .     A
C3     C21     1.456   .     S
C3     C5      1.400   .     A
C4     C6      1.400   .     A
C4     C20     1.456   .     S
C5     H30     1.083   .     S
C5     C7      1.393   .     A
C6     H31     1.083   .     S
C6     C8      1.393   .     A
C7     C9      1.413   .     A
C7     C14     1.401   .     A
C8     C10     1.413   .     A
C8     C15     1.401   .     A
C9     C11     1.410   .     A
C9     C60     1.400   .     S
C10    C13     1.410   .     A
C10    C59     1.400   1_455 S
C11    C22     1.390   .     A
C11    C17     1.402   .     A
C12    C19     1.431   .     S
C12    O46     1.303   .     A
C12    O44     1.290   .     A
C13    C16     1.402   .     A
C14    H32     1.084   .     S
C14    C66     1.393   .     S
C15    H33     1.084   .     S
C15    C67     1.393   1_455 S
C16    H34     1.084   .     S
C16    C64     1.393   1_455 S
C17    H35     1.084   .     S
C17    C65     1.393   .     S
C18    C219    1.355   1_545 S
C18    I237    2.152   1_545 S
C19    C118    1.355   .     S
C19    I138    2.152   .     S
C20    O49     1.299   .     A
C20    O47     1.307   .     A
C21    O48     1.307   .     A
C21    O50     1.299   .     A
C22    H25     1.085   .     S
Cu23   Cu24    2.712   .     S
Cu23   O46     1.961   .     S
Cu23   O47     1.967   .     S
Cu23   N40     2.038   .     S
Cu23   O43     1.961   .     S
Cu23   O50     1.955   .     S
Cu24   O45     1.961   .     S
Cu24   O44     1.961   .     S
Cu24   O49     1.955   .     S
Cu24   N39     2.038   .     S
Cu24   O48     1.967   .     S
H26    N41     1.042   .     S
H27    N42     1.044   .     S
H28    N42     1.042   .     S
H36    N41     1.044   .     S
I37    C118    2.152   .     S
I38    C219    2.152   1_545 S
N39    N640    1.296   1_554 S
N39    N641    1.386   1_554 S
N40    N339    1.296   .     S
N40    N342    1.386   .     S
N41    N339    1.386   .     S
N42    N640    1.386   1_554 S
C51    O95     1.303   .     A
C51    C68     1.431   .     S
C51    O93     1.290   .     A
C52    C54     1.404   .     A
C52    H79     1.085   .     S
C52    C63     1.390   .     A
C53    C72     1.404   .     A
C53    C71     1.456   .     S
C53    C55     1.400   .     A
C54    C56     1.400   .     A
C54    C70     1.456   .     S
C55    H80     1.083   .     S
C55    C57     1.393   .     A
C56    H81     1.083   .     S
C56    C58     1.393   .     A
C57    C59     1.413   .     A
C57    C64     1.401   .     A
C58    C60     1.413   .     A
C58    C65     1.401   .     A
C59    C61     1.410   .     A
C59    C10     1.400   1_655 S
C60    C63     1.410   .     A
C61    C72     1.390   .     A
C61    C67     1.402   .     A
C62    C69     1.431   .     S
C62    O96     1.303   .     A
C62    O94     1.290   .     A
C63    C66     1.402   .     A
C64    H82     1.084   .     S
C64    C16     1.393   1_655 S
C65    H83     1.084   .     S
C66    H84     1.084   .     S
C67    H85     1.084   .     S
C67    C15     1.393   1_655 S
C68    C269    1.355   1_545 S
C68    I287    2.152   1_545 S
C69    C168    1.355   .     S
C69    I188    2.152   .     S
C70    O99     1.299   .     A
C70    O97     1.307   .     A
C71    O98     1.307   .     A
C71    O100    1.299   .     A
C72    H75     1.085   .     S
Cu73   Cu74    2.712   .     S
Cu73   O96     1.961   .     S
Cu73   O97     1.967   .     S
Cu73   N90     2.038   .     S
Cu73   O93     1.961   .     S
Cu73   O100    1.955   .     S
Cu74   O95     1.961   .     S
Cu74   O94     1.961   .     S
Cu74   O99     1.955   .     S
Cu74   N89     2.038   .     S
Cu74   O98     1.967   .     S
H76    N91     1.042   .     S
H77    N92     1.044   .     S
H78    N92     1.042   .     S
H86    N91     1.044   .     S
I87    C168    2.152   .     S
I88    C269    2.152   1_545 S
N89    N690    1.296   1_554 S
N89    N691    1.386   1_554 S
N90    N389    1.296   .     S
N90    N392    1.386   .     S
N91    N389    1.386   .     S
N92    N690    1.386   1_554 S
C101   O145    1.303   .     A
C101   C118    1.431   .     S
C101   O143    1.290   .     A
C102   C104    1.404   .     A
C102   H129    1.085   .     S
C102   C113    1.390   .     A
C103   C122    1.404   .     A
C103   C121    1.456   .     S
C103   C105    1.400   .     A
C104   C106    1.400   .     A
C104   C120    1.456   .     S
C105   H130    1.083   .     S
C105   C107    1.393   .     A
C106   H131    1.083   .     S
C106   C108    1.393   .     A
C107   C109    1.413   .     A
C107   C114    1.401   .     A
C108   C110    1.413   .     A
C108   C115    1.401   .     A
C109   C111    1.410   .     A
C109   C160    1.400   .     S
C110   C113    1.410   .     A
C110   C159    1.400   1_455 S
C111   C122    1.390   .     A
C111   C117    1.402   .     A
C112   C119    1.431   .     S
C112   O146    1.303   .     A
C112   O144    1.290   .     A
C113   C116    1.402   .     A
C114   H132    1.084   .     S
C114   C166    1.393   .     S
C115   H133    1.084   .     S
C115   C167    1.393   1_455 S
C116   H134    1.084   .     S
C116   C164    1.393   1_455 S
C117   H135    1.084   .     S
C117   C165    1.393   .     S
C119   C218    1.355   .     S
C119   I238    2.152   .     S
C120   O149    1.299   .     A
C120   O147    1.307   .     A
C121   O148    1.307   .     A
C121   O150    1.299   .     A
C122   H125    1.085   .     S
Cu123  Cu124   2.712   .     S
Cu123  O146    1.961   .     S
Cu123  O147    1.967   .     S
Cu123  N140    2.038   .     S
Cu123  O143    1.961   .     S
Cu123  O150    1.955   .     S
Cu124  O145    1.961   .     S
Cu124  O144    1.961   .     S
Cu124  O149    1.955   .     S
Cu124  N139    2.038   .     S
Cu124  O148    1.967   .     S
H126   N141    1.042   .     S
H127   N142    1.044   .     S
H128   N142    1.042   .     S
H136   N141    1.044   .     S
I137   C218    2.152   .     S
N139   N740    1.296   1_554 S
N139   N741    1.386   1_554 S
N140   N439    1.296   .     S
N140   N442    1.386   .     S
N141   N439    1.386   .     S
N142   N740    1.386   1_554 S
C151   O195    1.303   .     A
C151   C168    1.431   .     S
C151   O193    1.290   .     A
C152   C154    1.404   .     A
C152   H179    1.085   .     S
C152   C163    1.390   .     A
C153   C172    1.404   .     A
C153   C171    1.456   .     S
C153   C155    1.400   .     A
C154   C156    1.400   .     A
C154   C170    1.456   .     S
C155   H180    1.083   .     S
C155   C157    1.393   .     A
C156   H181    1.083   .     S
C156   C158    1.393   .     A
C157   C159    1.413   .     A
C157   C164    1.401   .     A
C158   C160    1.413   .     A
C158   C165    1.401   .     A
C159   C161    1.410   .     A
C159   C110    1.400   1_655 S
C160   C163    1.410   .     A
C161   C172    1.390   .     A
C161   C167    1.402   .     A
C162   C169    1.431   .     S
C162   O196    1.303   .     A
C162   O194    1.290   .     A
C163   C166    1.402   .     A
C164   H182    1.084   .     S
C164   C116    1.393   1_655 S
C165   H183    1.084   .     S
C166   H184    1.084   .     S
C167   H185    1.084   .     S
C167   C115    1.393   1_655 S
C169   C268    1.355   .     S
C169   I288    2.152   .     S
C170   O199    1.299   .     A
C170   O197    1.307   .     A
C171   O198    1.307   .     A
C171   O200    1.299   .     A
C172   H175    1.085   .     S
Cu173  Cu174   2.712   .     S
Cu173  O196    1.961   .     S
Cu173  O197    1.967   .     S
Cu173  N190    2.038   .     S
Cu173  O193    1.961   .     S
Cu173  O200    1.955   .     S
Cu174  O195    1.961   .     S
Cu174  O194    1.961   .     S
Cu174  O199    1.955   .     S
Cu174  N189    2.038   .     S
Cu174  O198    1.967   .     S
H176   N191    1.042   .     S
H177   N192    1.044   .     S
H178   N192    1.042   .     S
H186   N191    1.044   .     S
I187   C268    2.152   .     S
N189   N790    1.296   1_554 S
N189   N791    1.386   1_554 S
N190   N489    1.296   .     S
N190   N492    1.386   .     S
N191   N489    1.386   .     S
N192   N790    1.386   1_554 S
C201   O245    1.303   .     A
C201   C218    1.431   .     S
C201   O243    1.290   .     A
C202   C204    1.404   .     A
C202   H229    1.085   .     S
C202   C213    1.390   .     A
C203   C222    1.404   .     A
C203   C221    1.456   .     S
C203   C205    1.400   .     A
C204   C206    1.400   .     A
C204   C220    1.456   .     S
C205   H230    1.083   .     S
C205   C207    1.393   .     A
C206   H231    1.083   .     S
C206   C208    1.393   .     A
C207   C209    1.413   .     A
C207   C214    1.401   .     A
C208   C210    1.413   .     A
C208   C215    1.401   .     A
C209   C211    1.410   .     A
C209   C260    1.400   .     S
C210   C213    1.410   .     A
C210   C259    1.400   1_455 S
C211   C222    1.390   .     A
C211   C217    1.402   .     A
C212   C219    1.431   .     S
C212   O246    1.303   .     A
C212   O244    1.290   .     A
C213   C216    1.402   .     A
C214   H232    1.084   .     S
C214   C266    1.393   .     S
C215   H233    1.084   .     S
C215   C267    1.393   1_455 S
C216   H234    1.084   .     S
C216   C264    1.393   1_455 S
C217   H235    1.084   .     S
C217   C265    1.393   .     S
C219   C18     1.355   1_565 S
C219   I38     2.152   1_565 S
C220   O249    1.299   .     A
C220   O247    1.307   .     A
C221   O248    1.307   .     A
C221   O250    1.299   .     A
C222   H225    1.085   .     S
Cu223  Cu224   2.712   .     S
Cu223  O246    1.961   .     S
Cu223  O247    1.967   .     S
Cu223  N240    2.038   .     S
Cu223  O243    1.961   .     S
Cu223  O250    1.955   .     S
Cu224  O245    1.961   .     S
Cu224  O244    1.961   .     S
Cu224  O249    1.955   .     S
Cu224  N239    2.038   .     S
Cu224  O248    1.967   .     S
H226   N241    1.042   .     S
H227   N242    1.044   .     S
H228   N242    1.042   .     S
H236   N241    1.044   .     S
I237   C18     2.152   1_565 S
N239   N840    1.296   1_554 S
N239   N841    1.386   1_554 S
N240   N539    1.296   .     S
N240   N542    1.386   .     S
N241   N539    1.386   .     S
N242   N840    1.386   1_554 S
C251   O295    1.303   .     A
C251   C268    1.431   .     S
C251   O293    1.290   .     A
C252   C254    1.404   .     A
C252   H279    1.085   .     S
C252   C263    1.390   .     A
C253   C272    1.404   .     A
C253   C271    1.456   .     S
C253   C255    1.400   .     A
C254   C256    1.400   .     A
C254   C270    1.456   .     S
C255   H280    1.083   .     S
C255   C257    1.393   .     A
C256   H281    1.083   .     S
C256   C258    1.393   .     A
C257   C259    1.413   .     A
C257   C264    1.401   .     A
C258   C260    1.413   .     A
C258   C265    1.401   .     A
C259   C261    1.410   .     A
C259   C210    1.400   1_655 S
C260   C263    1.410   .     A
C261   C272    1.390   .     A
C261   C267    1.402   .     A
C262   C269    1.431   .     S
C262   O296    1.303   .     A
C262   O294    1.290   .     A
C263   C266    1.402   .     A
C264   H282    1.084   .     S
C264   C216    1.393   1_655 S
C265   H283    1.084   .     S
C266   H284    1.084   .     S
C267   H285    1.084   .     S
C267   C215    1.393   1_655 S
C269   C68     1.355   1_565 S
C269   I88     2.152   1_565 S
C270   O299    1.299   .     A
C270   O297    1.307   .     A
C271   O298    1.307   .     A
C271   O300    1.299   .     A
C272   H275    1.085   .     S
Cu273  Cu274   2.712   .     S
Cu273  O296    1.961   .     S
Cu273  O297    1.967   .     S
Cu273  N290    2.038   .     S
Cu273  O293    1.961   .     S
Cu273  O300    1.955   .     S
Cu274  O295    1.961   .     S
Cu274  O294    1.961   .     S
Cu274  O299    1.955   .     S
Cu274  N289    2.038   .     S
Cu274  O298    1.967   .     S
H276   N291    1.042   .     S
H277   N292    1.044   .     S
H278   N292    1.042   .     S
H286   N291    1.044   .     S
I287   C68     2.152   1_565 S
N289   N890    1.296   1_554 S
N289   N891    1.386   1_554 S
N290   N589    1.296   .     S
N290   N592    1.386   .     S
N291   N589    1.386   .     S
N292   N890    1.386   1_554 S
C301   O345    1.303   .     A
C301   C318    1.431   .     S
C301   O343    1.290   .     A
C302   C304    1.404   .     A
C302   H329    1.085   .     S
C302   C313    1.390   .     A
C303   C322    1.404   .     A
C303   C321    1.456   .     S
C303   C305    1.400   .     A
C304   C306    1.400   .     A
C304   C320    1.456   .     S
C305   H330    1.083   .     S
C305   C307    1.393   .     A
C306   H331    1.083   .     S
C306   C308    1.393   .     A
C307   C309    1.413   .     A
C307   C314    1.401   .     A
C308   C310    1.413   .     A
C308   C315    1.401   .     A
C309   C311    1.410   .     A
C309   C360    1.400   .     S
C310   C313    1.410   .     A
C310   C359    1.400   1_455 S
C311   C322    1.390   .     A
C311   C317    1.402   .     A
C312   C319    1.431   .     S
C312   O346    1.303   .     A
C312   O344    1.290   .     A
C313   C316    1.402   .     A
C314   H332    1.084   .     S
C314   C366    1.393   .     S
C315   H333    1.084   .     S
C315   C367    1.393   1_455 S
C316   H334    1.084   .     S
C316   C364    1.393   1_455 S
C317   H335    1.084   .     S
C317   C365    1.393   .     S
C318   C519    1.355   1_545 S
C318   I537    2.152   1_545 S
C319   C418    1.355   .     S
C319   I438    2.152   .     S
C320   O349    1.299   .     A
C320   O347    1.307   .     A
C321   O348    1.307   .     A
C321   O350    1.299   .     A
C322   H325    1.085   .     S
Cu323  Cu324   2.712   .     S
Cu323  O346    1.961   .     S
Cu323  O347    1.967   .     S
Cu323  N340    2.038   .     S
Cu323  O343    1.961   .     S
Cu323  O350    1.955   .     S
Cu324  O345    1.961   .     S
Cu324  O344    1.961   .     S
Cu324  O349    1.955   .     S
Cu324  N339    2.038   .     S
Cu324  O348    1.967   .     S
H326   N341    1.042   .     S
H327   N342    1.044   .     S
H328   N342    1.042   .     S
H336   N341    1.044   .     S
I337   C418    2.152   .     S
I338   C519    2.152   1_545 S
N340   N639    1.296   .     S
N340   N642    1.386   .     S
N341   N639    1.386   .     S
C351   O395    1.303   .     A
C351   C368    1.431   .     S
C351   O393    1.290   .     A
C352   C354    1.404   .     A
C352   H379    1.085   .     S
C352   C363    1.390   .     A
C353   C372    1.404   .     A
C353   C371    1.456   .     S
C353   C355    1.400   .     A
C354   C356    1.400   .     A
C354   C370    1.456   .     S
C355   H380    1.083   .     S
C355   C357    1.393   .     A
C356   H381    1.083   .     S
C356   C358    1.393   .     A
C357   C359    1.413   .     A
C357   C364    1.401   .     A
C358   C360    1.413   .     A
C358   C365    1.401   .     A
C359   C361    1.410   .     A
C359   C310    1.400   1_655 S
C360   C363    1.410   .     A
C361   C372    1.390   .     A
C361   C367    1.402   .     A
C362   C369    1.431   .     S
C362   O396    1.303   .     A
C362   O394    1.290   .     A
C363   C366    1.402   .     A
C364   H382    1.084   .     S
C364   C316    1.393   1_655 S
C365   H383    1.084   .     S
C366   H384    1.084   .     S
C367   H385    1.084   .     S
C367   C315    1.393   1_655 S
C368   C569    1.355   1_545 S
C368   I587    2.152   1_545 S
C369   C468    1.355   .     S
C369   I488    2.152   .     S
C370   O399    1.299   .     A
C370   O397    1.307   .     A
C371   O398    1.307   .     A
C371   O400    1.299   .     A
C372   H375    1.085   .     S
Cu373  Cu374   2.712   .     S
Cu373  O396    1.961   .     S
Cu373  O397    1.967   .     S
Cu373  N390    2.038   .     S
Cu373  O393    1.961   .     S
Cu373  O400    1.955   .     S
Cu374  O395    1.961   .     S
Cu374  O394    1.961   .     S
Cu374  O399    1.955   .     S
Cu374  N389    2.038   .     S
Cu374  O398    1.967   .     S
H376   N391    1.042   .     S
H377   N392    1.044   .     S
H378   N392    1.042   .     S
H386   N391    1.044   .     S
I387   C468    2.152   .     S
I388   C569    2.152   1_545 S
N390   N689    1.296   .     S
N390   N692    1.386   .     S
N391   N689    1.386   .     S
C401   O445    1.303   .     A
C401   C418    1.431   .     S
C401   O443    1.290   .     A
C402   C404    1.404   .     A
C402   H429    1.085   .     S
C402   C413    1.390   .     A
C403   C422    1.404   .     A
C403   C421    1.456   .     S
C403   C405    1.400   .     A
C404   C406    1.400   .     A
C404   C420    1.456   .     S
C405   H430    1.083   .     S
C405   C407    1.393   .     A
C406   H431    1.083   .     S
C406   C408    1.393   .     A
C407   C409    1.413   .     A
C407   C414    1.401   .     A
C408   C410    1.413   .     A
C408   C415    1.401   .     A
C409   C411    1.410   .     A
C409   C460    1.400   .     S
C410   C413    1.410   .     A
C410   C459    1.400   1_455 S
C411   C422    1.390   .     A
C411   C417    1.402   .     A
C412   C419    1.431   .     S
C412   O446    1.303   .     A
C412   O444    1.290   .     A
C413   C416    1.402   .     A
C414   H432    1.084   .     S
C414   C466    1.393   .     S
C415   H433    1.084   .     S
C415   C467    1.393   1_455 S
C416   H434    1.084   .     S
C416   C464    1.393   1_455 S
C417   H435    1.084   .     S
C417   C465    1.393   .     S
C419   C518    1.355   .     S
C419   I538    2.152   .     S
C420   O449    1.299   .     A
C420   O447    1.307   .     A
C421   O448    1.307   .     A
C421   O450    1.299   .     A
C422   H425    1.085   .     S
Cu423  Cu424   2.712   .     S
Cu423  O446    1.961   .     S
Cu423  O447    1.967   .     S
Cu423  N440    2.038   .     S
Cu423  O443    1.961   .     S
Cu423  O450    1.955   .     S
Cu424  O445    1.961   .     S
Cu424  O444    1.961   .     S
Cu424  O449    1.955   .     S
Cu424  N439    2.038   .     S
Cu424  O448    1.967   .     S
H426   N441    1.042   .     S
H427   N442    1.044   .     S
H428   N442    1.042   .     S
H436   N441    1.044   .     S
I437   C518    2.152   .     S
N440   N739    1.296   .     S
N440   N742    1.386   .     S
N441   N739    1.386   .     S
C451   O495    1.303   .     A
C451   C468    1.431   .     S
C451   O493    1.290   .     A
C452   C454    1.404   .     A
C452   H479    1.085   .     S
C452   C463    1.390   .     A
C453   C472    1.404   .     A
C453   C471    1.456   .     S
C453   C455    1.400   .     A
C454   C456    1.400   .     A
C454   C470    1.456   .     S
C455   H480    1.083   .     S
C455   C457    1.393   .     A
C456   H481    1.083   .     S
C456   C458    1.393   .     A
C457   C459    1.413   .     A
C457   C464    1.401   .     A
C458   C460    1.413   .     A
C458   C465    1.401   .     A
C459   C461    1.410   .     A
C459   C410    1.400   1_655 S
C460   C463    1.410   .     A
C461   C472    1.390   .     A
C461   C467    1.402   .     A
C462   C469    1.431   .     S
C462   O496    1.303   .     A
C462   O494    1.290   .     A
C463   C466    1.402   .     A
C464   H482    1.084   .     S
C464   C416    1.393   1_655 S
C465   H483    1.084   .     S
C466   H484    1.084   .     S
C467   H485    1.084   .     S
C467   C415    1.393   1_655 S
C469   C568    1.355   .     S
C469   I588    2.152   .     S
C470   O499    1.299   .     A
C470   O497    1.307   .     A
C471   O498    1.307   .     A
C471   O500    1.299   .     A
C472   H475    1.085   .     S
Cu473  Cu474   2.712   .     S
Cu473  O496    1.961   .     S
Cu473  O497    1.967   .     S
Cu473  N490    2.038   .     S
Cu473  O493    1.961   .     S
Cu473  O500    1.955   .     S
Cu474  O495    1.961   .     S
Cu474  O494    1.961   .     S
Cu474  O499    1.955   .     S
Cu474  N489    2.038   .     S
Cu474  O498    1.967   .     S
H476   N491    1.042   .     S
H477   N492    1.044   .     S
H478   N492    1.042   .     S
H486   N491    1.044   .     S
I487   C568    2.152   .     S
N490   N789    1.296   .     S
N490   N792    1.386   .     S
N491   N789    1.386   .     S
C501   O545    1.303   .     A
C501   C518    1.431   .     S
C501   O543    1.290   .     A
C502   C504    1.404   .     A
C502   H529    1.085   .     S
C502   C513    1.390   .     A
C503   C522    1.404   .     A
C503   C521    1.456   .     S
C503   C505    1.400   .     A
C504   C506    1.400   .     A
C504   C520    1.456   .     S
C505   H530    1.083   .     S
C505   C507    1.393   .     A
C506   H531    1.083   .     S
C506   C508    1.393   .     A
C507   C509    1.413   .     A
C507   C514    1.401   .     A
C508   C510    1.413   .     A
C508   C515    1.401   .     A
C509   C511    1.410   .     A
C509   C560    1.400   .     S
C510   C513    1.410   .     A
C510   C559    1.400   1_455 S
C511   C522    1.390   .     A
C511   C517    1.402   .     A
C512   C519    1.431   .     S
C512   O546    1.303   .     A
C512   O544    1.290   .     A
C513   C516    1.402   .     A
C514   H532    1.084   .     S
C514   C566    1.393   .     S
C515   H533    1.084   .     S
C515   C567    1.393   1_455 S
C516   H534    1.084   .     S
C516   C564    1.393   1_455 S
C517   H535    1.084   .     S
C517   C565    1.393   .     S
C519   C318    1.355   1_565 S
C519   I338    2.152   1_565 S
C520   O549    1.299   .     A
C520   O547    1.307   .     A
C521   O548    1.307   .     A
C521   O550    1.299   .     A
C522   H525    1.085   .     S
Cu523  Cu524   2.712   .     S
Cu523  O546    1.961   .     S
Cu523  O547    1.967   .     S
Cu523  N540    2.038   .     S
Cu523  O543    1.961   .     S
Cu523  O550    1.955   .     S
Cu524  O545    1.961   .     S
Cu524  O544    1.961   .     S
Cu524  O549    1.955   .     S
Cu524  N539    2.038   .     S
Cu524  O548    1.967   .     S
H526   N541    1.042   .     S
H527   N542    1.044   .     S
H528   N542    1.042   .     S
H536   N541    1.044   .     S
I537   C318    2.152   1_565 S
N540   N839    1.296   .     S
N540   N842    1.386   .     S
N541   N839    1.386   .     S
C551   O595    1.303   .     A
C551   C568    1.431   .     S
C551   O593    1.290   .     A
C552   C554    1.404   .     A
C552   H579    1.085   .     S
C552   C563    1.390   .     A
C553   C572    1.404   .     A
C553   C571    1.456   .     S
C553   C555    1.400   .     A
C554   C556    1.400   .     A
C554   C570    1.456   .     S
C555   H580    1.083   .     S
C555   C557    1.393   .     A
C556   H581    1.083   .     S
C556   C558    1.393   .     A
C557   C559    1.413   .     A
C557   C564    1.401   .     A
C558   C560    1.413   .     A
C558   C565    1.401   .     A
C559   C561    1.410   .     A
C559   C510    1.400   1_655 S
C560   C563    1.410   .     A
C561   C572    1.390   .     A
C561   C567    1.402   .     A
C562   C569    1.431   .     S
C562   O596    1.303   .     A
C562   O594    1.290   .     A
C563   C566    1.402   .     A
C564   H582    1.084   .     S
C564   C516    1.393   1_655 S
C565   H583    1.084   .     S
C566   H584    1.084   .     S
C567   H585    1.084   .     S
C567   C515    1.393   1_655 S
C569   C368    1.355   1_565 S
C569   I388    2.152   1_565 S
C570   O599    1.299   .     A
C570   O597    1.307   .     A
C571   O598    1.307   .     A
C571   O600    1.299   .     A
C572   H575    1.085   .     S
Cu573  Cu574   2.712   .     S
Cu573  O596    1.961   .     S
Cu573  O597    1.967   .     S
Cu573  N590    2.038   .     S
Cu573  O593    1.961   .     S
Cu573  O600    1.955   .     S
Cu574  O595    1.961   .     S
Cu574  O594    1.961   .     S
Cu574  O599    1.955   .     S
Cu574  N589    2.038   .     S
Cu574  O598    1.967   .     S
H576   N591    1.042   .     S
H577   N592    1.044   .     S
H578   N592    1.042   .     S
H586   N591    1.044   .     S
I587   C368    2.152   1_565 S
N590   N889    1.296   .     S
N590   N892    1.386   .     S
N591   N889    1.386   .     S
C601   O645    1.303   .     A
C601   C618    1.431   .     S
C601   O643    1.290   .     A
C602   C604    1.404   .     A
C602   H629    1.085   .     S
C602   C613    1.390   .     A
C603   C622    1.404   .     A
C603   C621    1.456   .     S
C603   C605    1.400   .     A
C604   C606    1.400   .     A
C604   C620    1.456   .     S
C605   H630    1.083   .     S
C605   C607    1.393   .     A
C606   H631    1.083   .     S
C606   C608    1.393   .     A
C607   C609    1.413   .     A
C607   C614    1.401   .     A
C608   C610    1.413   .     A
C608   C615    1.401   .     A
C609   C611    1.410   .     A
C609   C660    1.400   .     S
C610   C613    1.410   .     A
C610   C659    1.400   1_455 S
C611   C622    1.390   .     A
C611   C617    1.402   .     A
C612   C619    1.431   .     S
C612   O646    1.303   .     A
C612   O644    1.290   .     A
C613   C616    1.402   .     A
C614   H632    1.084   .     S
C614   C666    1.393   .     S
C615   H633    1.084   .     S
C615   C667    1.393   1_455 S
C616   H634    1.084   .     S
C616   C664    1.393   1_455 S
C617   H635    1.084   .     S
C617   C665    1.393   .     S
C618   C819    1.355   1_545 S
C618   I837    2.152   1_545 S
C619   C718    1.355   .     S
C619   I738    2.152   .     S
C620   O649    1.299   .     A
C620   O647    1.307   .     A
C621   O648    1.307   .     A
C621   O650    1.299   .     A
C622   H625    1.085   .     S
Cu623  Cu624   2.712   .     S
Cu623  O646    1.961   .     S
Cu623  O647    1.967   .     S
Cu623  N640    2.038   .     S
Cu623  O643    1.961   .     S
Cu623  O650    1.955   .     S
Cu624  O645    1.961   .     S
Cu624  O644    1.961   .     S
Cu624  O649    1.955   .     S
Cu624  N639    2.038   .     S
Cu624  O648    1.967   .     S
H626   N641    1.042   .     S
H627   N642    1.044   .     S
H628   N642    1.042   .     S
H636   N641    1.044   .     S
I637   C718    2.152   .     S
I638   C819    2.152   1_545 S
N640   N39     1.296   1_556 S
N640   N42     1.386   1_556 S
N641   N39     1.386   1_556 S
C651   O695    1.303   .     A
C651   C668    1.431   .     S
C651   O693    1.290   .     A
C652   C654    1.404   .     A
C652   H679    1.085   .     S
C652   C663    1.390   .     A
C653   C672    1.404   .     A
C653   C671    1.456   .     S
C653   C655    1.400   .     A
C654   C656    1.400   .     A
C654   C670    1.456   .     S
C655   H680    1.083   .     S
C655   C657    1.393   .     A
C656   H681    1.083   .     S
C656   C658    1.393   .     A
C657   C659    1.413   .     A
C657   C664    1.401   .     A
C658   C660    1.413   .     A
C658   C665    1.401   .     A
C659   C661    1.410   .     A
C659   C610    1.400   1_655 S
C660   C663    1.410   .     A
C661   C672    1.390   .     A
C661   C667    1.402   .     A
C662   C669    1.431   .     S
C662   O696    1.303   .     A
C662   O694    1.290   .     A
C663   C666    1.402   .     A
C664   H682    1.084   .     S
C664   C616    1.393   1_655 S
C665   H683    1.084   .     S
C666   H684    1.084   .     S
C667   H685    1.084   .     S
C667   C615    1.393   1_655 S
C668   C869    1.355   1_545 S
C668   I887    2.152   1_545 S
C669   C768    1.355   .     S
C669   I788    2.152   .     S
C670   O699    1.299   .     A
C670   O697    1.307   .     A
C671   O698    1.307   .     A
C671   O700    1.299   .     A
C672   H675    1.085   .     S
Cu673  Cu674   2.712   .     S
Cu673  O696    1.961   .     S
Cu673  O697    1.967   .     S
Cu673  N690    2.038   .     S
Cu673  O693    1.961   .     S
Cu673  O700    1.955   .     S
Cu674  O695    1.961   .     S
Cu674  O694    1.961   .     S
Cu674  O699    1.955   .     S
Cu674  N689    2.038   .     S
Cu674  O698    1.967   .     S
H676   N691    1.042   .     S
H677   N692    1.044   .     S
H678   N692    1.042   .     S
H686   N691    1.044   .     S
I687   C768    2.152   .     S
I688   C869    2.152   1_545 S
N690   N89     1.296   1_556 S
N690   N92     1.386   1_556 S
N691   N89     1.386   1_556 S
C701   O745    1.303   .     A
C701   C718    1.431   .     S
C701   O743    1.290   .     A
C702   C704    1.404   .     A
C702   H729    1.085   .     S
C702   C713    1.390   .     A
C703   C722    1.404   .     A
C703   C721    1.456   .     S
C703   C705    1.400   .     A
C704   C706    1.400   .     A
C704   C720    1.456   .     S
C705   H730    1.083   .     S
C705   C707    1.393   .     A
C706   H731    1.083   .     S
C706   C708    1.393   .     A
C707   C709    1.413   .     A
C707   C714    1.401   .     A
C708   C710    1.413   .     A
C708   C715    1.401   .     A
C709   C711    1.410   .     A
C709   C760    1.400   .     S
C710   C713    1.410   .     A
C710   C759    1.400   1_455 S
C711   C722    1.390   .     A
C711   C717    1.402   .     A
C712   C719    1.431   .     S
C712   O746    1.303   .     A
C712   O744    1.290   .     A
C713   C716    1.402   .     A
C714   H732    1.084   .     S
C714   C766    1.393   .     S
C715   H733    1.084   .     S
C715   C767    1.393   1_455 S
C716   H734    1.084   .     S
C716   C764    1.393   1_455 S
C717   H735    1.084   .     S
C717   C765    1.393   .     S
C719   C818    1.355   .     S
C719   I838    2.152   .     S
C720   O749    1.299   .     A
C720   O747    1.307   .     A
C721   O748    1.307   .     A
C721   O750    1.299   .     A
C722   H725    1.085   .     S
Cu723  Cu724   2.712   .     S
Cu723  O746    1.961   .     S
Cu723  O747    1.967   .     S
Cu723  N740    2.038   .     S
Cu723  O743    1.961   .     S
Cu723  O750    1.955   .     S
Cu724  O745    1.961   .     S
Cu724  O744    1.961   .     S
Cu724  O749    1.955   .     S
Cu724  N739    2.038   .     S
Cu724  O748    1.967   .     S
H726   N741    1.042   .     S
H727   N742    1.044   .     S
H728   N742    1.042   .     S
H736   N741    1.044   .     S
I737   C818    2.152   .     S
N740   N139    1.296   1_556 S
N740   N142    1.386   1_556 S
N741   N139    1.386   1_556 S
C751   O795    1.303   .     A
C751   C768    1.431   .     S
C751   O793    1.290   .     A
C752   C754    1.404   .     A
C752   H779    1.085   .     S
C752   C763    1.390   .     A
C753   C772    1.404   .     A
C753   C771    1.456   .     S
C753   C755    1.400   .     A
C754   C756    1.400   .     A
C754   C770    1.456   .     S
C755   H780    1.083   .     S
C755   C757    1.393   .     A
C756   H781    1.083   .     S
C756   C758    1.393   .     A
C757   C759    1.413   .     A
C757   C764    1.401   .     A
C758   C760    1.413   .     A
C758   C765    1.401   .     A
C759   C761    1.410   .     A
C759   C710    1.400   1_655 S
C760   C763    1.410   .     A
C761   C772    1.390   .     A
C761   C767    1.402   .     A
C762   C769    1.431   .     S
C762   O796    1.303   .     A
C762   O794    1.290   .     A
C763   C766    1.402   .     A
C764   H782    1.084   .     S
C764   C716    1.393   1_655 S
C765   H783    1.084   .     S
C766   H784    1.084   .     S
C767   H785    1.084   .     S
C767   C715    1.393   1_655 S
C769   C868    1.355   .     S
C769   I888    2.152   .     S
C770   O799    1.299   .     A
C770   O797    1.307   .     A
C771   O798    1.307   .     A
C771   O800    1.299   .     A
C772   H775    1.085   .     S
Cu773  Cu774   2.712   .     S
Cu773  O796    1.961   .     S
Cu773  O797    1.967   .     S
Cu773  N790    2.038   .     S
Cu773  O793    1.961   .     S
Cu773  O800    1.955   .     S
Cu774  O795    1.961   .     S
Cu774  O794    1.961   .     S
Cu774  O799    1.955   .     S
Cu774  N789    2.038   .     S
Cu774  O798    1.967   .     S
H776   N791    1.042   .     S
H777   N792    1.044   .     S
H778   N792    1.042   .     S
H786   N791    1.044   .     S
I787   C868    2.152   .     S
N790   N189    1.296   1_556 S
N790   N192    1.386   1_556 S
N791   N189    1.386   1_556 S
C801   O845    1.303   .     A
C801   C818    1.431   .     S
C801   O843    1.290   .     A
C802   C804    1.404   .     A
C802   H829    1.085   .     S
C802   C813    1.390   .     A
C803   C822    1.404   .     A
C803   C821    1.456   .     S
C803   C805    1.400   .     A
C804   C806    1.400   .     A
C804   C820    1.456   .     S
C805   H830    1.083   .     S
C805   C807    1.393   .     A
C806   H831    1.083   .     S
C806   C808    1.393   .     A
C807   C809    1.413   .     A
C807   C814    1.401   .     A
C808   C810    1.413   .     A
C808   C815    1.401   .     A
C809   C811    1.410   .     A
C809   C860    1.400   .     S
C810   C813    1.410   .     A
C810   C859    1.400   1_455 S
C811   C822    1.390   .     A
C811   C817    1.402   .     A
C812   C819    1.431   .     S
C812   O846    1.303   .     A
C812   O844    1.290   .     A
C813   C816    1.402   .     A
C814   H832    1.084   .     S
C814   C866    1.393   .     S
C815   H833    1.084   .     S
C815   C867    1.393   1_455 S
C816   H834    1.084   .     S
C816   C864    1.393   1_455 S
C817   H835    1.084   .     S
C817   C865    1.393   .     S
C819   C618    1.355   1_565 S
C819   I638    2.152   1_565 S
C820   O849    1.299   .     A
C820   O847    1.307   .     A
C821   O848    1.307   .     A
C821   O850    1.299   .     A
C822   H825    1.085   .     S
Cu823  Cu824   2.712   .     S
Cu823  O846    1.961   .     S
Cu823  O847    1.967   .     S
Cu823  N840    2.038   .     S
Cu823  O843    1.961   .     S
Cu823  O850    1.955   .     S
Cu824  O845    1.961   .     S
Cu824  O844    1.961   .     S
Cu824  O849    1.955   .     S
Cu824  N839    2.038   .     S
Cu824  O848    1.967   .     S
H826   N841    1.042   .     S
H827   N842    1.044   .     S
H828   N842    1.042   .     S
H836   N841    1.044   .     S
I837   C618    2.152   1_565 S
N840   N239    1.296   1_556 S
N840   N242    1.386   1_556 S
N841   N239    1.386   1_556 S
C851   O895    1.303   .     A
C851   C868    1.431   .     S
C851   O893    1.290   .     A
C852   C854    1.404   .     A
C852   H879    1.085   .     S
C852   C863    1.390   .     A
C853   C872    1.404   .     A
C853   C871    1.456   .     S
C853   C855    1.400   .     A
C854   C856    1.400   .     A
C854   C870    1.456   .     S
C855   H880    1.083   .     S
C855   C857    1.393   .     A
C856   H881    1.083   .     S
C856   C858    1.393   .     A
C857   C859    1.413   .     A
C857   C864    1.401   .     A
C858   C860    1.413   .     A
C858   C865    1.401   .     A
C859   C861    1.410   .     A
C859   C810    1.400   1_655 S
C860   C863    1.410   .     A
C861   C872    1.390   .     A
C861   C867    1.402   .     A
C862   C869    1.431   .     S
C862   O896    1.303   .     A
C862   O894    1.290   .     A
C863   C866    1.402   .     A
C864   H882    1.084   .     S
C864   C816    1.393   1_655 S
C865   H883    1.084   .     S
C866   H884    1.084   .     S
C867   H885    1.084   .     S
C867   C815    1.393   1_655 S
C869   C668    1.355   1_565 S
C869   I688    2.152   1_565 S
C870   O899    1.299   .     A
C870   O897    1.307   .     A
C871   O898    1.307   .     A
C871   O900    1.299   .     A
C872   H875    1.085   .     S
Cu873  Cu874   2.712   .     S
Cu873  O896    1.961   .     S
Cu873  O897    1.967   .     S
Cu873  N890    2.038   .     S
Cu873  O893    1.961   .     S
Cu873  O900    1.955   .     S
Cu874  O895    1.961   .     S
Cu874  O894    1.961   .     S
Cu874  O899    1.955   .     S
Cu874  N889    2.038   .     S
Cu874  O898    1.967   .     S
H876   N891    1.042   .     S
H877   N892    1.044   .     S
H878   N892    1.042   .     S
H886   N891    1.044   .     S
I887   C668    2.152   1_565 S
N890   N289    1.296   1_556 S
N890   N292    1.386   1_556 S
N891   N289    1.386   1_556 S
