data_str_m2_o1_o1_pcu_sym.10
_audit_creation_date              2020-01-03
_audit_creation_method            'Materials Studio'
_symmetry_space_group_name_H-M    'P1'
_symmetry_Int_Tables_number       1
_symmetry_cell_setting            triclinic
loop_
_symmetry_equiv_pos_as_xyz
  x,y,z
_cell_length_a                    31.7275
_cell_length_b                    29.7214
_cell_length_c                    28.8735
_cell_angle_alpha                 90.0001
_cell_angle_beta                  89.9856
_cell_angle_gamma                 90.0000
loop_
_atom_site_label
_atom_site_type_symbol
_atom_site_fract_x
_atom_site_fract_y
_atom_site_fract_z
_atom_site_U_iso_or_equiv
_atom_site_adp_type
_atom_site_occupancy
O1     O     0.04509   0.20491   0.20625   0.00000  Uiso   1.00
O2     O     0.45492   0.29509   0.12709   0.00000  Uiso   1.00
O3     O     0.45492   0.29509   0.20625   0.00000  Uiso   1.00
O4     O     0.04509   0.20491   0.12709   0.00000  Uiso   1.00
O5     O     0.45492   0.20491   0.12709   0.00000  Uiso   1.00
O6     O     0.04509   0.29509   0.20625   0.00000  Uiso   1.00
O7     O     0.04509   0.29509   0.12709   0.00000  Uiso   1.00
O8     O     0.45492   0.20491   0.20625   0.00000  Uiso   1.00
O9     O     0.29509   0.45491   0.20625   0.00000  Uiso   1.00
O10    O     0.20492   0.04509   0.12709   0.00000  Uiso   1.00
O11    O     0.20492   0.04509   0.20625   0.00000  Uiso   1.00
O12    O     0.29509   0.45491   0.12709   0.00000  Uiso   1.00
O13    O     0.20492   0.45491   0.12709   0.00000  Uiso   1.00
O14    O     0.29509   0.04509   0.20625   0.00000  Uiso   1.00
O15    O     0.29509   0.04509   0.12709   0.00000  Uiso   1.00
O16    O     0.20492   0.45491   0.20625   0.00000  Uiso   1.00
C17    C     0.06001   0.19126   0.16666   0.00000  Uiso   1.00
C18    C     0.44001   0.30876   0.16667   0.00000  Uiso   1.00
C19    C     0.43999   0.19126   0.16667   0.00000  Uiso   1.00
C20    C     0.05999   0.30876   0.16667   0.00000  Uiso   1.00
C21    C     0.31000   0.44125   0.16666   0.00000  Uiso   1.00
C22    C     0.19000   0.05875   0.16667   0.00000  Uiso   1.00
C23    C     0.19000   0.44125   0.16667   0.00000  Uiso   1.00
C24    C     0.31000   0.05875   0.16666   0.00000  Uiso   1.00
N25    N     0.00000   0.25000   0.28402   0.00000  Uiso   1.00
N26    N     0.00000   0.25000   0.04931   0.00000  Uiso   1.00
N27    N     0.25000   0.00000   0.28402   0.00000  Uiso   1.00
N28    N     0.25000   0.00000   0.04931   0.00000  Uiso   1.00
Cu29   Cu    0.00000   0.25000   0.21355   0.00000  Uiso   1.00
Cu30   Cu    0.00000   0.25000   0.11978   0.00000  Uiso   1.00
Cu31   Cu    0.25000   0.00000   0.21355   0.00000  Uiso   1.00
Cu32   Cu    0.25000   0.00000   0.11978   0.00000  Uiso   1.00
C33    C     0.49998   0.21048   0.02468   0.00000  Uiso   1.00
C34    C     0.49985   0.28952   0.30866   0.00000  Uiso   1.00
C35    C     0.00015   0.28952   0.02468   0.00000  Uiso   1.00
C36    C     0.00002   0.21048   0.30866   0.00000  Uiso   1.00
C37    C     0.25010   0.46048   0.02468   0.00000  Uiso   1.00
C38    C     0.24996   0.03952   0.30866   0.00000  Uiso   1.00
C39    C     0.25004   0.03952   0.02468   0.00000  Uiso   1.00
C40    C     0.24990   0.46048   0.30866   0.00000  Uiso   1.00
C41    C     0.38961   0.14233   0.12479   0.00000  Uiso   1.00
C42    C     0.11042   0.35764   0.20856   0.00000  Uiso   1.00
C43    C     0.10969   0.35845   0.12478   0.00000  Uiso   1.00
C44    C     0.39020   0.14165   0.20857   0.00000  Uiso   1.00
C45    C     0.11039   0.14233   0.20854   0.00000  Uiso   1.00
C46    C     0.38958   0.35764   0.12477   0.00000  Uiso   1.00
C47    C     0.39031   0.35846   0.20856   0.00000  Uiso   1.00
C48    C     0.10980   0.14165   0.12476   0.00000  Uiso   1.00
C49    C     0.13955   0.39239   0.12478   0.00000  Uiso   1.00
C50    C     0.36037   0.10769   0.20856   0.00000  Uiso   1.00
C51    C     0.35977   0.10838   0.12477   0.00000  Uiso   1.00
C52    C     0.14028   0.39158   0.20857   0.00000  Uiso   1.00
C53    C     0.36045   0.39239   0.20855   0.00000  Uiso   1.00
C54    C     0.13963   0.10769   0.12478   0.00000  Uiso   1.00
C55    C     0.14023   0.10838   0.20856   0.00000  Uiso   1.00
C56    C     0.35972   0.39158   0.12477   0.00000  Uiso   1.00
H57    H     0.39949   0.15609   0.09199   0.00000  Uiso   1.00
H58    H     0.10056   0.34387   0.24137   0.00000  Uiso   1.00
H59    H     0.09925   0.34530   0.09196   0.00000  Uiso   1.00
H60    H     0.40056   0.15487   0.24140   0.00000  Uiso   1.00
H61    H     0.10051   0.15609   0.24134   0.00000  Uiso   1.00
H62    H     0.39944   0.34387   0.09196   0.00000  Uiso   1.00
H63    H     0.40075   0.34530   0.24137   0.00000  Uiso   1.00
H64    H     0.09944   0.15487   0.09193   0.00000  Uiso   1.00
H65    H     0.14941   0.40617   0.09198   0.00000  Uiso   1.00
H66    H     0.35049   0.09394   0.24136   0.00000  Uiso   1.00
H67    H     0.34940   0.09516   0.09195   0.00000  Uiso   1.00
H68    H     0.15071   0.40474   0.24138   0.00000  Uiso   1.00
H69    H     0.35059   0.40617   0.24136   0.00000  Uiso   1.00
H70    H     0.14951   0.09394   0.09198   0.00000  Uiso   1.00
H71    H     0.15060   0.09516   0.24138   0.00000  Uiso   1.00
H72    H     0.34929   0.40474   0.09195   0.00000  Uiso   1.00
C73    C     0.09404   0.34168   0.16667   0.00000  Uiso   1.00
C74    C     0.40593   0.15835   0.16668   0.00000  Uiso   1.00
C75    C     0.40596   0.34168   0.16666   0.00000  Uiso   1.00
C76    C     0.09407   0.15835   0.16665   0.00000  Uiso   1.00
C77    C     0.34406   0.09166   0.16666   0.00000  Uiso   1.00
C78    C     0.15594   0.40834   0.16667   0.00000  Uiso   1.00
C79    C     0.15594   0.09166   0.16667   0.00000  Uiso   1.00
C80    C     0.34406   0.40834   0.16666   0.00000  Uiso   1.00
N81    N     0.00018   0.16826   0.04828   0.00000  Uiso   1.00
O82    O     0.46504   0.14615   0.05162   0.00000  Uiso   1.00
O83    O     0.03510   0.14552   0.04962   0.00000  Uiso   1.00
N84    N     0.49882   0.33175   0.28508   0.00000  Uiso   1.00
O85    O     0.03387   0.35368   0.27981   0.00000  Uiso   1.00
O86    O     0.46399   0.35466   0.28563   0.00000  Uiso   1.00
N87    N     0.00118   0.33175   0.04826   0.00000  Uiso   1.00
O88    O     0.46613   0.35368   0.05353   0.00000  Uiso   1.00
O89    O     0.03601   0.35466   0.04771   0.00000  Uiso   1.00
N90    N     0.49982   0.16826   0.28505   0.00000  Uiso   1.00
O91    O     0.03497   0.14615   0.28171   0.00000  Uiso   1.00
O92    O     0.46491   0.14552   0.28371   0.00000  Uiso   1.00
N93    N     0.25091   0.41825   0.04827   0.00000  Uiso   1.00
O94    O     0.21582   0.39630   0.05305   0.00000  Uiso   1.00
O95    O     0.28576   0.39537   0.04819   0.00000  Uiso   1.00
N96    N     0.24943   0.08174   0.28506   0.00000  Uiso   1.00
O97    O     0.28454   0.10381   0.28101   0.00000  Uiso   1.00
O98    O     0.21452   0.10453   0.28443   0.00000  Uiso   1.00
N99    N     0.25057   0.08174   0.04827   0.00000  Uiso   1.00
O100   O     0.21546   0.10381   0.05233   0.00000  Uiso   1.00
O101   O     0.28547   0.10453   0.04891   0.00000  Uiso   1.00
N102   N     0.24910   0.41825   0.28507   0.00000  Uiso   1.00
O103   O     0.28419   0.39629   0.28028   0.00000  Uiso   1.00
O104   O     0.21424   0.39537   0.28514   0.00000  Uiso   1.00
O105   O     0.54509   0.20491   0.20625   0.00000  Uiso   1.00
O106   O     0.95492   0.29509   0.12709   0.00000  Uiso   1.00
O107   O     0.95492   0.29509   0.20625   0.00000  Uiso   1.00
O108   O     0.54509   0.20491   0.12709   0.00000  Uiso   1.00
O109   O     0.95492   0.20491   0.12709   0.00000  Uiso   1.00
O110   O     0.54509   0.29509   0.20625   0.00000  Uiso   1.00
O111   O     0.54509   0.29509   0.12709   0.00000  Uiso   1.00
O112   O     0.95492   0.20491   0.20625   0.00000  Uiso   1.00
O113   O     0.79509   0.45491   0.20625   0.00000  Uiso   1.00
O114   O     0.70492   0.04509   0.12709   0.00000  Uiso   1.00
O115   O     0.70492   0.04509   0.20625   0.00000  Uiso   1.00
O116   O     0.79509   0.45491   0.12709   0.00000  Uiso   1.00
O117   O     0.70492   0.45491   0.12709   0.00000  Uiso   1.00
O118   O     0.79509   0.04509   0.20625   0.00000  Uiso   1.00
O119   O     0.79509   0.04509   0.12709   0.00000  Uiso   1.00
O120   O     0.70492   0.45491   0.20625   0.00000  Uiso   1.00
C121   C     0.56001   0.19126   0.16666   0.00000  Uiso   1.00
C122   C     0.94001   0.30876   0.16667   0.00000  Uiso   1.00
C123   C     0.93999   0.19126   0.16667   0.00000  Uiso   1.00
C124   C     0.55999   0.30876   0.16667   0.00000  Uiso   1.00
C125   C     0.81000   0.44125   0.16666   0.00000  Uiso   1.00
C126   C     0.69000   0.05875   0.16667   0.00000  Uiso   1.00
C127   C     0.69000   0.44125   0.16667   0.00000  Uiso   1.00
C128   C     0.81000   0.05875   0.16666   0.00000  Uiso   1.00
N129   N     0.50000   0.25000   0.28402   0.00000  Uiso   1.00
N130   N     0.50000   0.25000   0.04931   0.00000  Uiso   1.00
N131   N     0.75000   0.00000   0.28402   0.00000  Uiso   1.00
N132   N     0.75000   0.00000   0.04931   0.00000  Uiso   1.00
Cu133  Cu    0.50000   0.25000   0.21355   0.00000  Uiso   1.00
Cu134  Cu    0.50000   0.25000   0.11978   0.00000  Uiso   1.00
Cu135  Cu    0.75000   0.00000   0.21355   0.00000  Uiso   1.00
Cu136  Cu    0.75000   0.00000   0.11978   0.00000  Uiso   1.00
C137   C     0.99998   0.21048   0.02468   0.00000  Uiso   1.00
C138   C     0.99985   0.28952   0.30866   0.00000  Uiso   1.00
C139   C     0.50015   0.28952   0.02468   0.00000  Uiso   1.00
C140   C     0.50002   0.21048   0.30866   0.00000  Uiso   1.00
C141   C     0.75010   0.46048   0.02468   0.00000  Uiso   1.00
C142   C     0.74996   0.03952   0.30866   0.00000  Uiso   1.00
C143   C     0.75004   0.03952   0.02468   0.00000  Uiso   1.00
C144   C     0.74990   0.46048   0.30866   0.00000  Uiso   1.00
C145   C     0.88961   0.14233   0.12479   0.00000  Uiso   1.00
C146   C     0.61042   0.35764   0.20856   0.00000  Uiso   1.00
C147   C     0.60969   0.35845   0.12478   0.00000  Uiso   1.00
C148   C     0.89020   0.14165   0.20857   0.00000  Uiso   1.00
C149   C     0.61039   0.14233   0.20854   0.00000  Uiso   1.00
C150   C     0.88958   0.35764   0.12477   0.00000  Uiso   1.00
C151   C     0.89031   0.35846   0.20856   0.00000  Uiso   1.00
C152   C     0.60980   0.14165   0.12476   0.00000  Uiso   1.00
C153   C     0.63955   0.39239   0.12478   0.00000  Uiso   1.00
C154   C     0.86037   0.10769   0.20856   0.00000  Uiso   1.00
C155   C     0.85977   0.10838   0.12477   0.00000  Uiso   1.00
C156   C     0.64028   0.39158   0.20857   0.00000  Uiso   1.00
C157   C     0.86045   0.39239   0.20855   0.00000  Uiso   1.00
C158   C     0.63963   0.10769   0.12478   0.00000  Uiso   1.00
C159   C     0.64023   0.10838   0.20856   0.00000  Uiso   1.00
C160   C     0.85972   0.39158   0.12477   0.00000  Uiso   1.00
H161   H     0.89949   0.15609   0.09199   0.00000  Uiso   1.00
H162   H     0.60056   0.34387   0.24137   0.00000  Uiso   1.00
H163   H     0.59925   0.34530   0.09196   0.00000  Uiso   1.00
H164   H     0.90056   0.15487   0.24140   0.00000  Uiso   1.00
H165   H     0.60051   0.15609   0.24134   0.00000  Uiso   1.00
H166   H     0.89944   0.34387   0.09196   0.00000  Uiso   1.00
H167   H     0.90075   0.34530   0.24137   0.00000  Uiso   1.00
H168   H     0.59944   0.15487   0.09193   0.00000  Uiso   1.00
H169   H     0.64941   0.40617   0.09198   0.00000  Uiso   1.00
H170   H     0.85049   0.09394   0.24136   0.00000  Uiso   1.00
H171   H     0.84940   0.09516   0.09195   0.00000  Uiso   1.00
H172   H     0.65071   0.40474   0.24138   0.00000  Uiso   1.00
H173   H     0.85059   0.40617   0.24136   0.00000  Uiso   1.00
H174   H     0.64951   0.09394   0.09198   0.00000  Uiso   1.00
H175   H     0.65060   0.09516   0.24138   0.00000  Uiso   1.00
H176   H     0.84929   0.40474   0.09195   0.00000  Uiso   1.00
C177   C     0.59404   0.34168   0.16667   0.00000  Uiso   1.00
C178   C     0.90593   0.15835   0.16668   0.00000  Uiso   1.00
C179   C     0.90596   0.34168   0.16666   0.00000  Uiso   1.00
C180   C     0.59407   0.15835   0.16665   0.00000  Uiso   1.00
C181   C     0.84406   0.09166   0.16666   0.00000  Uiso   1.00
C182   C     0.65594   0.40834   0.16667   0.00000  Uiso   1.00
C183   C     0.65594   0.09166   0.16667   0.00000  Uiso   1.00
C184   C     0.84406   0.40834   0.16666   0.00000  Uiso   1.00
N185   N     0.50018   0.16826   0.04828   0.00000  Uiso   1.00
O186   O     0.96504   0.14615   0.05162   0.00000  Uiso   1.00
O187   O     0.53510   0.14552   0.04962   0.00000  Uiso   1.00
N188   N     0.99882   0.33175   0.28508   0.00000  Uiso   1.00
O189   O     0.53387   0.35368   0.27981   0.00000  Uiso   1.00
O190   O     0.96399   0.35466   0.28563   0.00000  Uiso   1.00
N191   N     0.50118   0.33175   0.04826   0.00000  Uiso   1.00
O192   O     0.96613   0.35368   0.05353   0.00000  Uiso   1.00
O193   O     0.53601   0.35466   0.04771   0.00000  Uiso   1.00
N194   N     0.99982   0.16826   0.28505   0.00000  Uiso   1.00
O195   O     0.53497   0.14615   0.28171   0.00000  Uiso   1.00
O196   O     0.96491   0.14552   0.28371   0.00000  Uiso   1.00
N197   N     0.75091   0.41825   0.04827   0.00000  Uiso   1.00
O198   O     0.71582   0.39630   0.05305   0.00000  Uiso   1.00
O199   O     0.78576   0.39537   0.04819   0.00000  Uiso   1.00
N200   N     0.74943   0.08174   0.28506   0.00000  Uiso   1.00
O201   O     0.78454   0.10381   0.28101   0.00000  Uiso   1.00
O202   O     0.71452   0.10453   0.28443   0.00000  Uiso   1.00
N203   N     0.75057   0.08174   0.04827   0.00000  Uiso   1.00
O204   O     0.71546   0.10381   0.05233   0.00000  Uiso   1.00
O205   O     0.78547   0.10453   0.04891   0.00000  Uiso   1.00
N206   N     0.74910   0.41825   0.28507   0.00000  Uiso   1.00
O207   O     0.78419   0.39629   0.28028   0.00000  Uiso   1.00
O208   O     0.71424   0.39537   0.28514   0.00000  Uiso   1.00
O209   O     0.04509   0.70491   0.20625   0.00000  Uiso   1.00
O210   O     0.45492   0.79509   0.12709   0.00000  Uiso   1.00
O211   O     0.45492   0.79509   0.20625   0.00000  Uiso   1.00
O212   O     0.04509   0.70491   0.12709   0.00000  Uiso   1.00
O213   O     0.45492   0.70491   0.12709   0.00000  Uiso   1.00
O214   O     0.04509   0.79509   0.20625   0.00000  Uiso   1.00
O215   O     0.04509   0.79509   0.12709   0.00000  Uiso   1.00
O216   O     0.45492   0.70491   0.20625   0.00000  Uiso   1.00
O217   O     0.29509   0.95491   0.20625   0.00000  Uiso   1.00
O218   O     0.20492   0.54509   0.12709   0.00000  Uiso   1.00
O219   O     0.20492   0.54509   0.20625   0.00000  Uiso   1.00
O220   O     0.29509   0.95491   0.12709   0.00000  Uiso   1.00
O221   O     0.20492   0.95491   0.12709   0.00000  Uiso   1.00
O222   O     0.29509   0.54509   0.20625   0.00000  Uiso   1.00
O223   O     0.29509   0.54509   0.12709   0.00000  Uiso   1.00
O224   O     0.20492   0.95491   0.20625   0.00000  Uiso   1.00
C225   C     0.06001   0.69126   0.16666   0.00000  Uiso   1.00
C226   C     0.44001   0.80876   0.16667   0.00000  Uiso   1.00
C227   C     0.43999   0.69126   0.16667   0.00000  Uiso   1.00
C228   C     0.05999   0.80876   0.16667   0.00000  Uiso   1.00
C229   C     0.31000   0.94125   0.16666   0.00000  Uiso   1.00
C230   C     0.19000   0.55875   0.16667   0.00000  Uiso   1.00
C231   C     0.19000   0.94125   0.16667   0.00000  Uiso   1.00
C232   C     0.31000   0.55875   0.16666   0.00000  Uiso   1.00
N233   N     0.00000   0.75000   0.28402   0.00000  Uiso   1.00
N234   N     0.00000   0.75000   0.04931   0.00000  Uiso   1.00
N235   N     0.25000   0.50000   0.28402   0.00000  Uiso   1.00
N236   N     0.25000   0.50000   0.04931   0.00000  Uiso   1.00
Cu237  Cu    0.00000   0.75000   0.21355   0.00000  Uiso   1.00
Cu238  Cu    0.00000   0.75000   0.11978   0.00000  Uiso   1.00
Cu239  Cu    0.25000   0.50000   0.21355   0.00000  Uiso   1.00
Cu240  Cu    0.25000   0.50000   0.11978   0.00000  Uiso   1.00
C241   C     0.49998   0.71048   0.02468   0.00000  Uiso   1.00
C242   C     0.49985   0.78952   0.30866   0.00000  Uiso   1.00
C243   C     0.00015   0.78952   0.02468   0.00000  Uiso   1.00
C244   C     0.00002   0.71048   0.30866   0.00000  Uiso   1.00
C245   C     0.25010   0.96048   0.02468   0.00000  Uiso   1.00
C246   C     0.24996   0.53952   0.30866   0.00000  Uiso   1.00
C247   C     0.25004   0.53952   0.02468   0.00000  Uiso   1.00
C248   C     0.24990   0.96048   0.30866   0.00000  Uiso   1.00
C249   C     0.38961   0.64233   0.12479   0.00000  Uiso   1.00
C250   C     0.11042   0.85764   0.20856   0.00000  Uiso   1.00
C251   C     0.10969   0.85845   0.12478   0.00000  Uiso   1.00
C252   C     0.39020   0.64165   0.20857   0.00000  Uiso   1.00
C253   C     0.11039   0.64233   0.20854   0.00000  Uiso   1.00
C254   C     0.38958   0.85764   0.12477   0.00000  Uiso   1.00
C255   C     0.39031   0.85846   0.20856   0.00000  Uiso   1.00
C256   C     0.10980   0.64165   0.12476   0.00000  Uiso   1.00
C257   C     0.13955   0.89239   0.12478   0.00000  Uiso   1.00
C258   C     0.36037   0.60769   0.20856   0.00000  Uiso   1.00
C259   C     0.35977   0.60838   0.12477   0.00000  Uiso   1.00
C260   C     0.14028   0.89158   0.20857   0.00000  Uiso   1.00
C261   C     0.36045   0.89239   0.20855   0.00000  Uiso   1.00
C262   C     0.13963   0.60769   0.12478   0.00000  Uiso   1.00
C263   C     0.14023   0.60838   0.20856   0.00000  Uiso   1.00
C264   C     0.35972   0.89158   0.12477   0.00000  Uiso   1.00
H265   H     0.39949   0.65609   0.09199   0.00000  Uiso   1.00
H266   H     0.10056   0.84387   0.24137   0.00000  Uiso   1.00
H267   H     0.09925   0.84530   0.09196   0.00000  Uiso   1.00
H268   H     0.40056   0.65487   0.24140   0.00000  Uiso   1.00
H269   H     0.10051   0.65609   0.24134   0.00000  Uiso   1.00
H270   H     0.39944   0.84387   0.09196   0.00000  Uiso   1.00
H271   H     0.40075   0.84530   0.24137   0.00000  Uiso   1.00
H272   H     0.09944   0.65487   0.09193   0.00000  Uiso   1.00
H273   H     0.14941   0.90617   0.09198   0.00000  Uiso   1.00
H274   H     0.35049   0.59394   0.24136   0.00000  Uiso   1.00
H275   H     0.34940   0.59516   0.09195   0.00000  Uiso   1.00
H276   H     0.15071   0.90474   0.24138   0.00000  Uiso   1.00
H277   H     0.35059   0.90617   0.24136   0.00000  Uiso   1.00
H278   H     0.14951   0.59394   0.09198   0.00000  Uiso   1.00
H279   H     0.15060   0.59516   0.24138   0.00000  Uiso   1.00
H280   H     0.34929   0.90474   0.09195   0.00000  Uiso   1.00
C281   C     0.09404   0.84168   0.16667   0.00000  Uiso   1.00
C282   C     0.40593   0.65835   0.16668   0.00000  Uiso   1.00
C283   C     0.40596   0.84168   0.16666   0.00000  Uiso   1.00
C284   C     0.09407   0.65835   0.16665   0.00000  Uiso   1.00
C285   C     0.34406   0.59166   0.16666   0.00000  Uiso   1.00
C286   C     0.15594   0.90834   0.16667   0.00000  Uiso   1.00
C287   C     0.15594   0.59166   0.16667   0.00000  Uiso   1.00
C288   C     0.34406   0.90834   0.16666   0.00000  Uiso   1.00
N289   N     0.00018   0.66826   0.04828   0.00000  Uiso   1.00
O290   O     0.46504   0.64615   0.05162   0.00000  Uiso   1.00
O291   O     0.03510   0.64552   0.04962   0.00000  Uiso   1.00
N292   N     0.49882   0.83175   0.28508   0.00000  Uiso   1.00
O293   O     0.03387   0.85368   0.27981   0.00000  Uiso   1.00
O294   O     0.46399   0.85466   0.28563   0.00000  Uiso   1.00
N295   N     0.00118   0.83175   0.04826   0.00000  Uiso   1.00
O296   O     0.46613   0.85368   0.05353   0.00000  Uiso   1.00
O297   O     0.03601   0.85466   0.04771   0.00000  Uiso   1.00
N298   N     0.49982   0.66826   0.28505   0.00000  Uiso   1.00
O299   O     0.03497   0.64615   0.28171   0.00000  Uiso   1.00
O300   O     0.46491   0.64552   0.28371   0.00000  Uiso   1.00
N301   N     0.25091   0.91825   0.04827   0.00000  Uiso   1.00
O302   O     0.21582   0.89630   0.05305   0.00000  Uiso   1.00
O303   O     0.28576   0.89537   0.04819   0.00000  Uiso   1.00
N304   N     0.24943   0.58174   0.28506   0.00000  Uiso   1.00
O305   O     0.28454   0.60381   0.28101   0.00000  Uiso   1.00
O306   O     0.21452   0.60453   0.28443   0.00000  Uiso   1.00
N307   N     0.25057   0.58174   0.04827   0.00000  Uiso   1.00
O308   O     0.21546   0.60381   0.05233   0.00000  Uiso   1.00
O309   O     0.28547   0.60453   0.04891   0.00000  Uiso   1.00
N310   N     0.24910   0.91825   0.28507   0.00000  Uiso   1.00
O311   O     0.28419   0.89629   0.28028   0.00000  Uiso   1.00
O312   O     0.21424   0.89537   0.28514   0.00000  Uiso   1.00
O313   O     0.54509   0.70491   0.20625   0.00000  Uiso   1.00
O314   O     0.95492   0.79509   0.12709   0.00000  Uiso   1.00
O315   O     0.95492   0.79509   0.20625   0.00000  Uiso   1.00
O316   O     0.54509   0.70491   0.12709   0.00000  Uiso   1.00
O317   O     0.95492   0.70491   0.12709   0.00000  Uiso   1.00
O318   O     0.54509   0.79509   0.20625   0.00000  Uiso   1.00
O319   O     0.54509   0.79509   0.12709   0.00000  Uiso   1.00
O320   O     0.95492   0.70491   0.20625   0.00000  Uiso   1.00
O321   O     0.79509   0.95491   0.20625   0.00000  Uiso   1.00
O322   O     0.70492   0.54509   0.12709   0.00000  Uiso   1.00
O323   O     0.70492   0.54509   0.20625   0.00000  Uiso   1.00
O324   O     0.79509   0.95491   0.12709   0.00000  Uiso   1.00
O325   O     0.70492   0.95491   0.12709   0.00000  Uiso   1.00
O326   O     0.79509   0.54509   0.20625   0.00000  Uiso   1.00
O327   O     0.79509   0.54509   0.12709   0.00000  Uiso   1.00
O328   O     0.70492   0.95491   0.20625   0.00000  Uiso   1.00
C329   C     0.56001   0.69126   0.16666   0.00000  Uiso   1.00
C330   C     0.94001   0.80876   0.16667   0.00000  Uiso   1.00
C331   C     0.93999   0.69126   0.16667   0.00000  Uiso   1.00
C332   C     0.55999   0.80876   0.16667   0.00000  Uiso   1.00
C333   C     0.81000   0.94125   0.16666   0.00000  Uiso   1.00
C334   C     0.69000   0.55875   0.16667   0.00000  Uiso   1.00
C335   C     0.69000   0.94125   0.16667   0.00000  Uiso   1.00
C336   C     0.81000   0.55875   0.16666   0.00000  Uiso   1.00
N337   N     0.50000   0.75000   0.28402   0.00000  Uiso   1.00
N338   N     0.50000   0.75000   0.04931   0.00000  Uiso   1.00
N339   N     0.75000   0.50000   0.28402   0.00000  Uiso   1.00
N340   N     0.75000   0.50000   0.04931   0.00000  Uiso   1.00
Cu341  Cu    0.50000   0.75000   0.21355   0.00000  Uiso   1.00
Cu342  Cu    0.50000   0.75000   0.11978   0.00000  Uiso   1.00
Cu343  Cu    0.75000   0.50000   0.21355   0.00000  Uiso   1.00
Cu344  Cu    0.75000   0.50000   0.11978   0.00000  Uiso   1.00
C345   C     0.99998   0.71048   0.02468   0.00000  Uiso   1.00
C346   C     0.99985   0.78952   0.30866   0.00000  Uiso   1.00
C347   C     0.50015   0.78952   0.02468   0.00000  Uiso   1.00
C348   C     0.50002   0.71048   0.30866   0.00000  Uiso   1.00
C349   C     0.75010   0.96048   0.02468   0.00000  Uiso   1.00
C350   C     0.74996   0.53952   0.30866   0.00000  Uiso   1.00
C351   C     0.75004   0.53952   0.02468   0.00000  Uiso   1.00
C352   C     0.74990   0.96048   0.30866   0.00000  Uiso   1.00
C353   C     0.88961   0.64233   0.12479   0.00000  Uiso   1.00
C354   C     0.61042   0.85764   0.20856   0.00000  Uiso   1.00
C355   C     0.60969   0.85845   0.12478   0.00000  Uiso   1.00
C356   C     0.89020   0.64165   0.20857   0.00000  Uiso   1.00
C357   C     0.61039   0.64233   0.20854   0.00000  Uiso   1.00
C358   C     0.88958   0.85764   0.12477   0.00000  Uiso   1.00
C359   C     0.89031   0.85846   0.20856   0.00000  Uiso   1.00
C360   C     0.60980   0.64165   0.12476   0.00000  Uiso   1.00
C361   C     0.63955   0.89239   0.12478   0.00000  Uiso   1.00
C362   C     0.86037   0.60769   0.20856   0.00000  Uiso   1.00
C363   C     0.85977   0.60838   0.12477   0.00000  Uiso   1.00
C364   C     0.64028   0.89158   0.20857   0.00000  Uiso   1.00
C365   C     0.86045   0.89239   0.20855   0.00000  Uiso   1.00
C366   C     0.63963   0.60769   0.12478   0.00000  Uiso   1.00
C367   C     0.64023   0.60838   0.20856   0.00000  Uiso   1.00
C368   C     0.85972   0.89158   0.12477   0.00000  Uiso   1.00
H369   H     0.89949   0.65609   0.09199   0.00000  Uiso   1.00
H370   H     0.60056   0.84387   0.24137   0.00000  Uiso   1.00
H371   H     0.59925   0.84530   0.09196   0.00000  Uiso   1.00
H372   H     0.90056   0.65487   0.24140   0.00000  Uiso   1.00
H373   H     0.60051   0.65609   0.24134   0.00000  Uiso   1.00
H374   H     0.89944   0.84387   0.09196   0.00000  Uiso   1.00
H375   H     0.90075   0.84530   0.24137   0.00000  Uiso   1.00
H376   H     0.59944   0.65487   0.09193   0.00000  Uiso   1.00
H377   H     0.64941   0.90617   0.09198   0.00000  Uiso   1.00
H378   H     0.85049   0.59394   0.24136   0.00000  Uiso   1.00
H379   H     0.84940   0.59516   0.09195   0.00000  Uiso   1.00
H380   H     0.65071   0.90474   0.24138   0.00000  Uiso   1.00
H381   H     0.85059   0.90617   0.24136   0.00000  Uiso   1.00
H382   H     0.64951   0.59394   0.09198   0.00000  Uiso   1.00
H383   H     0.65060   0.59516   0.24138   0.00000  Uiso   1.00
H384   H     0.84929   0.90474   0.09195   0.00000  Uiso   1.00
C385   C     0.59404   0.84168   0.16667   0.00000  Uiso   1.00
C386   C     0.90593   0.65835   0.16668   0.00000  Uiso   1.00
C387   C     0.90596   0.84168   0.16666   0.00000  Uiso   1.00
C388   C     0.59407   0.65835   0.16665   0.00000  Uiso   1.00
C389   C     0.84406   0.59166   0.16666   0.00000  Uiso   1.00
C390   C     0.65594   0.90834   0.16667   0.00000  Uiso   1.00
C391   C     0.65594   0.59166   0.16667   0.00000  Uiso   1.00
C392   C     0.84406   0.90834   0.16666   0.00000  Uiso   1.00
N393   N     0.50018   0.66826   0.04828   0.00000  Uiso   1.00
O394   O     0.96504   0.64615   0.05162   0.00000  Uiso   1.00
O395   O     0.53510   0.64552   0.04962   0.00000  Uiso   1.00
N396   N     0.99882   0.83175   0.28508   0.00000  Uiso   1.00
O397   O     0.53387   0.85368   0.27981   0.00000  Uiso   1.00
O398   O     0.96399   0.85466   0.28563   0.00000  Uiso   1.00
N399   N     0.50118   0.83175   0.04826   0.00000  Uiso   1.00
O400   O     0.96613   0.85368   0.05353   0.00000  Uiso   1.00
O401   O     0.53601   0.85466   0.04771   0.00000  Uiso   1.00
N402   N     0.99982   0.66826   0.28505   0.00000  Uiso   1.00
O403   O     0.53497   0.64615   0.28171   0.00000  Uiso   1.00
O404   O     0.96491   0.64552   0.28371   0.00000  Uiso   1.00
N405   N     0.75091   0.91825   0.04827   0.00000  Uiso   1.00
O406   O     0.71582   0.89630   0.05305   0.00000  Uiso   1.00
O407   O     0.78576   0.89537   0.04819   0.00000  Uiso   1.00
N408   N     0.74943   0.58174   0.28506   0.00000  Uiso   1.00
O409   O     0.78454   0.60381   0.28101   0.00000  Uiso   1.00
O410   O     0.71452   0.60453   0.28443   0.00000  Uiso   1.00
N411   N     0.75057   0.58174   0.04827   0.00000  Uiso   1.00
O412   O     0.71546   0.60381   0.05233   0.00000  Uiso   1.00
O413   O     0.78547   0.60453   0.04891   0.00000  Uiso   1.00
N414   N     0.74910   0.91825   0.28507   0.00000  Uiso   1.00
O415   O     0.78419   0.89629   0.28028   0.00000  Uiso   1.00
O416   O     0.71424   0.89537   0.28514   0.00000  Uiso   1.00
O417   O     0.04509   0.20491   0.53958   0.00000  Uiso   1.00
O418   O     0.45492   0.29509   0.46042   0.00000  Uiso   1.00
O419   O     0.45492   0.29509   0.53958   0.00000  Uiso   1.00
O420   O     0.04509   0.20491   0.46042   0.00000  Uiso   1.00
O421   O     0.45492   0.20491   0.46042   0.00000  Uiso   1.00
O422   O     0.04509   0.29509   0.53958   0.00000  Uiso   1.00
O423   O     0.04509   0.29509   0.46042   0.00000  Uiso   1.00
O424   O     0.45492   0.20491   0.53958   0.00000  Uiso   1.00
O425   O     0.29509   0.45491   0.53958   0.00000  Uiso   1.00
O426   O     0.20492   0.04509   0.46042   0.00000  Uiso   1.00
O427   O     0.20492   0.04509   0.53958   0.00000  Uiso   1.00
O428   O     0.29509   0.45491   0.46042   0.00000  Uiso   1.00
O429   O     0.20492   0.45491   0.46042   0.00000  Uiso   1.00
O430   O     0.29509   0.04509   0.53958   0.00000  Uiso   1.00
O431   O     0.29509   0.04509   0.46042   0.00000  Uiso   1.00
O432   O     0.20492   0.45491   0.53958   0.00000  Uiso   1.00
C433   C     0.06001   0.19126   0.50000   0.00000  Uiso   1.00
C434   C     0.44001   0.30876   0.50000   0.00000  Uiso   1.00
C435   C     0.43999   0.19126   0.50000   0.00000  Uiso   1.00
C436   C     0.05999   0.30876   0.50000   0.00000  Uiso   1.00
C437   C     0.31000   0.44125   0.50000   0.00000  Uiso   1.00
C438   C     0.19000   0.05875   0.50000   0.00000  Uiso   1.00
C439   C     0.19000   0.44125   0.50000   0.00000  Uiso   1.00
C440   C     0.31000   0.05875   0.50000   0.00000  Uiso   1.00
N441   N     0.00000   0.25000   0.61736   0.00000  Uiso   1.00
N442   N     0.00000   0.25000   0.38264   0.00000  Uiso   1.00
N443   N     0.25000   0.00000   0.61736   0.00000  Uiso   1.00
N444   N     0.25000   0.00000   0.38264   0.00000  Uiso   1.00
Cu445  Cu    0.00000   0.25000   0.54689   0.00000  Uiso   1.00
Cu446  Cu    0.00000   0.25000   0.45311   0.00000  Uiso   1.00
Cu447  Cu    0.25000   0.00000   0.54689   0.00000  Uiso   1.00
Cu448  Cu    0.25000   0.00000   0.45311   0.00000  Uiso   1.00
C449   C     0.49998   0.21048   0.35801   0.00000  Uiso   1.00
C450   C     0.49985   0.28952   0.64199   0.00000  Uiso   1.00
C451   C     0.00015   0.28952   0.35801   0.00000  Uiso   1.00
C452   C     0.00002   0.21048   0.64199   0.00000  Uiso   1.00
C453   C     0.25010   0.46048   0.35801   0.00000  Uiso   1.00
C454   C     0.24996   0.03952   0.64199   0.00000  Uiso   1.00
C455   C     0.25004   0.03952   0.35801   0.00000  Uiso   1.00
C456   C     0.24990   0.46048   0.64199   0.00000  Uiso   1.00
C457   C     0.38961   0.14233   0.45812   0.00000  Uiso   1.00
C458   C     0.11042   0.35764   0.54190   0.00000  Uiso   1.00
C459   C     0.10969   0.35845   0.45811   0.00000  Uiso   1.00
C460   C     0.39020   0.14165   0.54191   0.00000  Uiso   1.00
C461   C     0.11039   0.14233   0.54188   0.00000  Uiso   1.00
C462   C     0.38958   0.35764   0.45810   0.00000  Uiso   1.00
C463   C     0.39031   0.35846   0.54189   0.00000  Uiso   1.00
C464   C     0.10980   0.14165   0.45809   0.00000  Uiso   1.00
C465   C     0.13955   0.39239   0.45812   0.00000  Uiso   1.00
C466   C     0.36037   0.10769   0.54189   0.00000  Uiso   1.00
C467   C     0.35977   0.10838   0.45811   0.00000  Uiso   1.00
C468   C     0.14028   0.39158   0.54190   0.00000  Uiso   1.00
C469   C     0.36045   0.39239   0.54188   0.00000  Uiso   1.00
C470   C     0.13963   0.10769   0.45811   0.00000  Uiso   1.00
C471   C     0.14023   0.10838   0.54189   0.00000  Uiso   1.00
C472   C     0.35972   0.39158   0.45810   0.00000  Uiso   1.00
H473   H     0.39949   0.15609   0.42533   0.00000  Uiso   1.00
H474   H     0.10056   0.34387   0.57470   0.00000  Uiso   1.00
H475   H     0.09925   0.34530   0.42530   0.00000  Uiso   1.00
H476   H     0.40056   0.15487   0.57473   0.00000  Uiso   1.00
H477   H     0.10051   0.15609   0.57467   0.00000  Uiso   1.00
H478   H     0.39944   0.34387   0.42530   0.00000  Uiso   1.00
H479   H     0.40075   0.34530   0.57470   0.00000  Uiso   1.00
H480   H     0.09944   0.15487   0.42527   0.00000  Uiso   1.00
H481   H     0.14941   0.40617   0.42531   0.00000  Uiso   1.00
H482   H     0.35049   0.09394   0.57469   0.00000  Uiso   1.00
H483   H     0.34940   0.09516   0.42529   0.00000  Uiso   1.00
H484   H     0.15071   0.40474   0.57472   0.00000  Uiso   1.00
H485   H     0.35059   0.40617   0.57469   0.00000  Uiso   1.00
H486   H     0.14951   0.09394   0.42531   0.00000  Uiso   1.00
H487   H     0.15060   0.09516   0.57472   0.00000  Uiso   1.00
H488   H     0.34929   0.40474   0.42528   0.00000  Uiso   1.00
C489   C     0.09404   0.34168   0.50000   0.00000  Uiso   1.00
C490   C     0.40593   0.15835   0.50001   0.00000  Uiso   1.00
C491   C     0.40596   0.34168   0.50000   0.00000  Uiso   1.00
C492   C     0.09407   0.15835   0.49999   0.00000  Uiso   1.00
C493   C     0.34406   0.09166   0.50000   0.00000  Uiso   1.00
C494   C     0.15594   0.40834   0.50001   0.00000  Uiso   1.00
C495   C     0.15594   0.09166   0.50000   0.00000  Uiso   1.00
C496   C     0.34406   0.40834   0.49999   0.00000  Uiso   1.00
N497   N     0.00018   0.16826   0.38161   0.00000  Uiso   1.00
O498   O     0.46504   0.14615   0.38495   0.00000  Uiso   1.00
O499   O     0.03510   0.14552   0.38296   0.00000  Uiso   1.00
N500   N     0.49882   0.33175   0.61841   0.00000  Uiso   1.00
O501   O     0.03387   0.35368   0.61314   0.00000  Uiso   1.00
O502   O     0.46399   0.35466   0.61896   0.00000  Uiso   1.00
N503   N     0.00118   0.33175   0.38159   0.00000  Uiso   1.00
O504   O     0.46613   0.35368   0.38686   0.00000  Uiso   1.00
O505   O     0.03601   0.35466   0.38104   0.00000  Uiso   1.00
N506   N     0.49982   0.16826   0.61839   0.00000  Uiso   1.00
O507   O     0.03497   0.14615   0.61505   0.00000  Uiso   1.00
O508   O     0.46491   0.14552   0.61704   0.00000  Uiso   1.00
N509   N     0.25091   0.41825   0.38160   0.00000  Uiso   1.00
O510   O     0.21582   0.39630   0.38639   0.00000  Uiso   1.00
O511   O     0.28576   0.39537   0.38152   0.00000  Uiso   1.00
N512   N     0.24943   0.08174   0.61839   0.00000  Uiso   1.00
O513   O     0.28454   0.10381   0.61434   0.00000  Uiso   1.00
O514   O     0.21452   0.10453   0.61776   0.00000  Uiso   1.00
N515   N     0.25057   0.08174   0.38161   0.00000  Uiso   1.00
O516   O     0.21546   0.10381   0.38566   0.00000  Uiso   1.00
O517   O     0.28547   0.10453   0.38224   0.00000  Uiso   1.00
N518   N     0.24910   0.41825   0.61840   0.00000  Uiso   1.00
O519   O     0.28419   0.39629   0.61361   0.00000  Uiso   1.00
O520   O     0.21424   0.39537   0.61847   0.00000  Uiso   1.00
O521   O     0.54509   0.20491   0.53958   0.00000  Uiso   1.00
O522   O     0.95492   0.29509   0.46042   0.00000  Uiso   1.00
O523   O     0.95492   0.29509   0.53958   0.00000  Uiso   1.00
O524   O     0.54509   0.20491   0.46042   0.00000  Uiso   1.00
O525   O     0.95492   0.20491   0.46042   0.00000  Uiso   1.00
O526   O     0.54509   0.29509   0.53958   0.00000  Uiso   1.00
O527   O     0.54509   0.29509   0.46042   0.00000  Uiso   1.00
O528   O     0.95492   0.20491   0.53958   0.00000  Uiso   1.00
O529   O     0.79509   0.45491   0.53958   0.00000  Uiso   1.00
O530   O     0.70492   0.04509   0.46042   0.00000  Uiso   1.00
O531   O     0.70492   0.04509   0.53958   0.00000  Uiso   1.00
O532   O     0.79509   0.45491   0.46042   0.00000  Uiso   1.00
O533   O     0.70492   0.45491   0.46042   0.00000  Uiso   1.00
O534   O     0.79509   0.04509   0.53958   0.00000  Uiso   1.00
O535   O     0.79509   0.04509   0.46042   0.00000  Uiso   1.00
O536   O     0.70492   0.45491   0.53958   0.00000  Uiso   1.00
C537   C     0.56001   0.19126   0.50000   0.00000  Uiso   1.00
C538   C     0.94001   0.30876   0.50000   0.00000  Uiso   1.00
C539   C     0.93999   0.19126   0.50000   0.00000  Uiso   1.00
C540   C     0.55999   0.30876   0.50000   0.00000  Uiso   1.00
C541   C     0.81000   0.44125   0.50000   0.00000  Uiso   1.00
C542   C     0.69000   0.05875   0.50000   0.00000  Uiso   1.00
C543   C     0.69000   0.44125   0.50000   0.00000  Uiso   1.00
C544   C     0.81000   0.05875   0.50000   0.00000  Uiso   1.00
N545   N     0.50000   0.25000   0.61736   0.00000  Uiso   1.00
N546   N     0.50000   0.25000   0.38264   0.00000  Uiso   1.00
N547   N     0.75000   0.00000   0.61736   0.00000  Uiso   1.00
N548   N     0.75000   0.00000   0.38264   0.00000  Uiso   1.00
Cu549  Cu    0.50000   0.25000   0.54689   0.00000  Uiso   1.00
Cu550  Cu    0.50000   0.25000   0.45311   0.00000  Uiso   1.00
Cu551  Cu    0.75000   0.00000   0.54689   0.00000  Uiso   1.00
Cu552  Cu    0.75000   0.00000   0.45311   0.00000  Uiso   1.00
C553   C     0.99998   0.21048   0.35801   0.00000  Uiso   1.00
C554   C     0.99985   0.28952   0.64199   0.00000  Uiso   1.00
C555   C     0.50015   0.28952   0.35801   0.00000  Uiso   1.00
C556   C     0.50002   0.21048   0.64199   0.00000  Uiso   1.00
C557   C     0.75010   0.46048   0.35801   0.00000  Uiso   1.00
C558   C     0.74996   0.03952   0.64199   0.00000  Uiso   1.00
C559   C     0.75004   0.03952   0.35801   0.00000  Uiso   1.00
C560   C     0.74990   0.46048   0.64199   0.00000  Uiso   1.00
C561   C     0.88961   0.14233   0.45812   0.00000  Uiso   1.00
C562   C     0.61042   0.35764   0.54190   0.00000  Uiso   1.00
C563   C     0.60969   0.35845   0.45811   0.00000  Uiso   1.00
C564   C     0.89020   0.14165   0.54191   0.00000  Uiso   1.00
C565   C     0.61039   0.14233   0.54188   0.00000  Uiso   1.00
C566   C     0.88958   0.35764   0.45810   0.00000  Uiso   1.00
C567   C     0.89031   0.35846   0.54189   0.00000  Uiso   1.00
C568   C     0.60980   0.14165   0.45809   0.00000  Uiso   1.00
C569   C     0.63955   0.39239   0.45812   0.00000  Uiso   1.00
C570   C     0.86037   0.10769   0.54189   0.00000  Uiso   1.00
C571   C     0.85977   0.10838   0.45811   0.00000  Uiso   1.00
C572   C     0.64028   0.39158   0.54190   0.00000  Uiso   1.00
C573   C     0.86045   0.39239   0.54188   0.00000  Uiso   1.00
C574   C     0.63963   0.10769   0.45811   0.00000  Uiso   1.00
C575   C     0.64023   0.10838   0.54189   0.00000  Uiso   1.00
C576   C     0.85972   0.39158   0.45810   0.00000  Uiso   1.00
H577   H     0.89949   0.15609   0.42533   0.00000  Uiso   1.00
H578   H     0.60056   0.34387   0.57470   0.00000  Uiso   1.00
H579   H     0.59925   0.34530   0.42530   0.00000  Uiso   1.00
H580   H     0.90056   0.15487   0.57473   0.00000  Uiso   1.00
H581   H     0.60051   0.15609   0.57467   0.00000  Uiso   1.00
H582   H     0.89944   0.34387   0.42530   0.00000  Uiso   1.00
H583   H     0.90075   0.34530   0.57470   0.00000  Uiso   1.00
H584   H     0.59944   0.15487   0.42527   0.00000  Uiso   1.00
H585   H     0.64941   0.40617   0.42531   0.00000  Uiso   1.00
H586   H     0.85049   0.09394   0.57469   0.00000  Uiso   1.00
H587   H     0.84940   0.09516   0.42529   0.00000  Uiso   1.00
H588   H     0.65071   0.40474   0.57472   0.00000  Uiso   1.00
H589   H     0.85059   0.40617   0.57469   0.00000  Uiso   1.00
H590   H     0.64951   0.09394   0.42531   0.00000  Uiso   1.00
H591   H     0.65060   0.09516   0.57472   0.00000  Uiso   1.00
H592   H     0.84929   0.40474   0.42528   0.00000  Uiso   1.00
C593   C     0.59404   0.34168   0.50000   0.00000  Uiso   1.00
C594   C     0.90593   0.15835   0.50001   0.00000  Uiso   1.00
C595   C     0.90596   0.34168   0.50000   0.00000  Uiso   1.00
C596   C     0.59407   0.15835   0.49999   0.00000  Uiso   1.00
C597   C     0.84406   0.09166   0.50000   0.00000  Uiso   1.00
C598   C     0.65594   0.40834   0.50001   0.00000  Uiso   1.00
C599   C     0.65594   0.09166   0.50000   0.00000  Uiso   1.00
C600   C     0.84406   0.40834   0.49999   0.00000  Uiso   1.00
N601   N     0.50018   0.16826   0.38161   0.00000  Uiso   1.00
O602   O     0.96504   0.14615   0.38495   0.00000  Uiso   1.00
O603   O     0.53510   0.14552   0.38296   0.00000  Uiso   1.00
N604   N     0.99882   0.33175   0.61841   0.00000  Uiso   1.00
O605   O     0.53387   0.35368   0.61314   0.00000  Uiso   1.00
O606   O     0.96399   0.35466   0.61896   0.00000  Uiso   1.00
N607   N     0.50118   0.33175   0.38159   0.00000  Uiso   1.00
O608   O     0.96613   0.35368   0.38686   0.00000  Uiso   1.00
O609   O     0.53601   0.35466   0.38104   0.00000  Uiso   1.00
N610   N     0.99982   0.16826   0.61839   0.00000  Uiso   1.00
O611   O     0.53497   0.14615   0.61505   0.00000  Uiso   1.00
O612   O     0.96491   0.14552   0.61704   0.00000  Uiso   1.00
N613   N     0.75091   0.41825   0.38160   0.00000  Uiso   1.00
O614   O     0.71582   0.39630   0.38639   0.00000  Uiso   1.00
O615   O     0.78576   0.39537   0.38152   0.00000  Uiso   1.00
N616   N     0.74943   0.08174   0.61839   0.00000  Uiso   1.00
O617   O     0.78454   0.10381   0.61434   0.00000  Uiso   1.00
O618   O     0.71452   0.10453   0.61776   0.00000  Uiso   1.00
N619   N     0.75057   0.08174   0.38161   0.00000  Uiso   1.00
O620   O     0.71546   0.10381   0.38566   0.00000  Uiso   1.00
O621   O     0.78547   0.10453   0.38224   0.00000  Uiso   1.00
N622   N     0.74910   0.41825   0.61840   0.00000  Uiso   1.00
O623   O     0.78419   0.39629   0.61361   0.00000  Uiso   1.00
O624   O     0.71424   0.39537   0.61847   0.00000  Uiso   1.00
O625   O     0.04509   0.70491   0.53958   0.00000  Uiso   1.00
O626   O     0.45492   0.79509   0.46042   0.00000  Uiso   1.00
O627   O     0.45492   0.79509   0.53958   0.00000  Uiso   1.00
O628   O     0.04509   0.70491   0.46042   0.00000  Uiso   1.00
O629   O     0.45492   0.70491   0.46042   0.00000  Uiso   1.00
O630   O     0.04509   0.79509   0.53958   0.00000  Uiso   1.00
O631   O     0.04509   0.79509   0.46042   0.00000  Uiso   1.00
O632   O     0.45492   0.70491   0.53958   0.00000  Uiso   1.00
O633   O     0.29509   0.95491   0.53958   0.00000  Uiso   1.00
O634   O     0.20492   0.54509   0.46042   0.00000  Uiso   1.00
O635   O     0.20492   0.54509   0.53958   0.00000  Uiso   1.00
O636   O     0.29509   0.95491   0.46042   0.00000  Uiso   1.00
O637   O     0.20492   0.95491   0.46042   0.00000  Uiso   1.00
O638   O     0.29509   0.54509   0.53958   0.00000  Uiso   1.00
O639   O     0.29509   0.54509   0.46042   0.00000  Uiso   1.00
O640   O     0.20492   0.95491   0.53958   0.00000  Uiso   1.00
C641   C     0.06001   0.69126   0.50000   0.00000  Uiso   1.00
C642   C     0.44001   0.80876   0.50000   0.00000  Uiso   1.00
C643   C     0.43999   0.69126   0.50000   0.00000  Uiso   1.00
C644   C     0.05999   0.80876   0.50000   0.00000  Uiso   1.00
C645   C     0.31000   0.94125   0.50000   0.00000  Uiso   1.00
C646   C     0.19000   0.55875   0.50000   0.00000  Uiso   1.00
C647   C     0.19000   0.94125   0.50000   0.00000  Uiso   1.00
C648   C     0.31000   0.55875   0.50000   0.00000  Uiso   1.00
N649   N     0.00000   0.75000   0.61736   0.00000  Uiso   1.00
N650   N     0.00000   0.75000   0.38264   0.00000  Uiso   1.00
N651   N     0.25000   0.50000   0.61736   0.00000  Uiso   1.00
N652   N     0.25000   0.50000   0.38264   0.00000  Uiso   1.00
Cu653  Cu    0.00000   0.75000   0.54689   0.00000  Uiso   1.00
Cu654  Cu    0.00000   0.75000   0.45311   0.00000  Uiso   1.00
Cu655  Cu    0.25000   0.50000   0.54689   0.00000  Uiso   1.00
Cu656  Cu    0.25000   0.50000   0.45311   0.00000  Uiso   1.00
C657   C     0.49998   0.71048   0.35801   0.00000  Uiso   1.00
C658   C     0.49985   0.78952   0.64199   0.00000  Uiso   1.00
C659   C     0.00015   0.78952   0.35801   0.00000  Uiso   1.00
C660   C     0.00002   0.71048   0.64199   0.00000  Uiso   1.00
C661   C     0.25010   0.96048   0.35801   0.00000  Uiso   1.00
C662   C     0.24996   0.53952   0.64199   0.00000  Uiso   1.00
C663   C     0.25004   0.53952   0.35801   0.00000  Uiso   1.00
C664   C     0.24990   0.96048   0.64199   0.00000  Uiso   1.00
C665   C     0.38961   0.64233   0.45812   0.00000  Uiso   1.00
C666   C     0.11042   0.85764   0.54190   0.00000  Uiso   1.00
C667   C     0.10969   0.85845   0.45811   0.00000  Uiso   1.00
C668   C     0.39020   0.64165   0.54191   0.00000  Uiso   1.00
C669   C     0.11039   0.64233   0.54188   0.00000  Uiso   1.00
C670   C     0.38958   0.85764   0.45810   0.00000  Uiso   1.00
C671   C     0.39031   0.85846   0.54189   0.00000  Uiso   1.00
C672   C     0.10980   0.64165   0.45809   0.00000  Uiso   1.00
C673   C     0.13955   0.89239   0.45812   0.00000  Uiso   1.00
C674   C     0.36037   0.60769   0.54189   0.00000  Uiso   1.00
C675   C     0.35977   0.60838   0.45811   0.00000  Uiso   1.00
C676   C     0.14028   0.89158   0.54190   0.00000  Uiso   1.00
C677   C     0.36045   0.89239   0.54188   0.00000  Uiso   1.00
C678   C     0.13963   0.60769   0.45811   0.00000  Uiso   1.00
C679   C     0.14023   0.60838   0.54189   0.00000  Uiso   1.00
C680   C     0.35972   0.89158   0.45810   0.00000  Uiso   1.00
H681   H     0.39949   0.65609   0.42533   0.00000  Uiso   1.00
H682   H     0.10056   0.84387   0.57470   0.00000  Uiso   1.00
H683   H     0.09925   0.84530   0.42530   0.00000  Uiso   1.00
H684   H     0.40056   0.65487   0.57473   0.00000  Uiso   1.00
H685   H     0.10051   0.65609   0.57467   0.00000  Uiso   1.00
H686   H     0.39944   0.84387   0.42530   0.00000  Uiso   1.00
H687   H     0.40075   0.84530   0.57470   0.00000  Uiso   1.00
H688   H     0.09944   0.65487   0.42527   0.00000  Uiso   1.00
H689   H     0.14941   0.90617   0.42531   0.00000  Uiso   1.00
H690   H     0.35049   0.59394   0.57469   0.00000  Uiso   1.00
H691   H     0.34940   0.59516   0.42529   0.00000  Uiso   1.00
H692   H     0.15071   0.90474   0.57472   0.00000  Uiso   1.00
H693   H     0.35059   0.90617   0.57469   0.00000  Uiso   1.00
H694   H     0.14951   0.59394   0.42531   0.00000  Uiso   1.00
H695   H     0.15060   0.59516   0.57472   0.00000  Uiso   1.00
H696   H     0.34929   0.90474   0.42528   0.00000  Uiso   1.00
C697   C     0.09404   0.84168   0.50000   0.00000  Uiso   1.00
C698   C     0.40593   0.65835   0.50001   0.00000  Uiso   1.00
C699   C     0.40596   0.84168   0.50000   0.00000  Uiso   1.00
C700   C     0.09407   0.65835   0.49999   0.00000  Uiso   1.00
C701   C     0.34406   0.59166   0.50000   0.00000  Uiso   1.00
C702   C     0.15594   0.90834   0.50001   0.00000  Uiso   1.00
C703   C     0.15594   0.59166   0.50000   0.00000  Uiso   1.00
C704   C     0.34406   0.90834   0.49999   0.00000  Uiso   1.00
N705   N     0.00018   0.66826   0.38161   0.00000  Uiso   1.00
O706   O     0.46504   0.64615   0.38495   0.00000  Uiso   1.00
O707   O     0.03510   0.64552   0.38296   0.00000  Uiso   1.00
N708   N     0.49882   0.83175   0.61841   0.00000  Uiso   1.00
O709   O     0.03387   0.85368   0.61314   0.00000  Uiso   1.00
O710   O     0.46399   0.85466   0.61896   0.00000  Uiso   1.00
N711   N     0.00118   0.83175   0.38159   0.00000  Uiso   1.00
O712   O     0.46613   0.85368   0.38686   0.00000  Uiso   1.00
O713   O     0.03601   0.85466   0.38104   0.00000  Uiso   1.00
N714   N     0.49982   0.66826   0.61839   0.00000  Uiso   1.00
O715   O     0.03497   0.64615   0.61505   0.00000  Uiso   1.00
O716   O     0.46491   0.64552   0.61704   0.00000  Uiso   1.00
N717   N     0.25091   0.91825   0.38160   0.00000  Uiso   1.00
O718   O     0.21582   0.89630   0.38639   0.00000  Uiso   1.00
O719   O     0.28576   0.89537   0.38152   0.00000  Uiso   1.00
N720   N     0.24943   0.58174   0.61839   0.00000  Uiso   1.00
O721   O     0.28454   0.60381   0.61434   0.00000  Uiso   1.00
O722   O     0.21452   0.60453   0.61776   0.00000  Uiso   1.00
N723   N     0.25057   0.58174   0.38161   0.00000  Uiso   1.00
O724   O     0.21546   0.60381   0.38566   0.00000  Uiso   1.00
O725   O     0.28547   0.60453   0.38224   0.00000  Uiso   1.00
N726   N     0.24910   0.91825   0.61840   0.00000  Uiso   1.00
O727   O     0.28419   0.89629   0.61361   0.00000  Uiso   1.00
O728   O     0.21424   0.89537   0.61847   0.00000  Uiso   1.00
O729   O     0.54509   0.70491   0.53958   0.00000  Uiso   1.00
O730   O     0.95492   0.79509   0.46042   0.00000  Uiso   1.00
O731   O     0.95492   0.79509   0.53958   0.00000  Uiso   1.00
O732   O     0.54509   0.70491   0.46042   0.00000  Uiso   1.00
O733   O     0.95492   0.70491   0.46042   0.00000  Uiso   1.00
O734   O     0.54509   0.79509   0.53958   0.00000  Uiso   1.00
O735   O     0.54509   0.79509   0.46042   0.00000  Uiso   1.00
O736   O     0.95492   0.70491   0.53958   0.00000  Uiso   1.00
O737   O     0.79509   0.95491   0.53958   0.00000  Uiso   1.00
O738   O     0.70492   0.54509   0.46042   0.00000  Uiso   1.00
O739   O     0.70492   0.54509   0.53958   0.00000  Uiso   1.00
O740   O     0.79509   0.95491   0.46042   0.00000  Uiso   1.00
O741   O     0.70492   0.95491   0.46042   0.00000  Uiso   1.00
O742   O     0.79509   0.54509   0.53958   0.00000  Uiso   1.00
O743   O     0.79509   0.54509   0.46042   0.00000  Uiso   1.00
O744   O     0.70492   0.95491   0.53958   0.00000  Uiso   1.00
C745   C     0.56001   0.69126   0.50000   0.00000  Uiso   1.00
C746   C     0.94001   0.80876   0.50000   0.00000  Uiso   1.00
C747   C     0.93999   0.69126   0.50000   0.00000  Uiso   1.00
C748   C     0.55999   0.80876   0.50000   0.00000  Uiso   1.00
C749   C     0.81000   0.94125   0.50000   0.00000  Uiso   1.00
C750   C     0.69000   0.55875   0.50000   0.00000  Uiso   1.00
C751   C     0.69000   0.94125   0.50000   0.00000  Uiso   1.00
C752   C     0.81000   0.55875   0.50000   0.00000  Uiso   1.00
N753   N     0.50000   0.75000   0.61736   0.00000  Uiso   1.00
N754   N     0.50000   0.75000   0.38264   0.00000  Uiso   1.00
N755   N     0.75000   0.50000   0.61736   0.00000  Uiso   1.00
N756   N     0.75000   0.50000   0.38264   0.00000  Uiso   1.00
Cu757  Cu    0.50000   0.75000   0.54689   0.00000  Uiso   1.00
Cu758  Cu    0.50000   0.75000   0.45311   0.00000  Uiso   1.00
Cu759  Cu    0.75000   0.50000   0.54689   0.00000  Uiso   1.00
Cu760  Cu    0.75000   0.50000   0.45311   0.00000  Uiso   1.00
C761   C     0.99998   0.71048   0.35801   0.00000  Uiso   1.00
C762   C     0.99985   0.78952   0.64199   0.00000  Uiso   1.00
C763   C     0.50015   0.78952   0.35801   0.00000  Uiso   1.00
C764   C     0.50002   0.71048   0.64199   0.00000  Uiso   1.00
C765   C     0.75010   0.96048   0.35801   0.00000  Uiso   1.00
C766   C     0.74996   0.53952   0.64199   0.00000  Uiso   1.00
C767   C     0.75004   0.53952   0.35801   0.00000  Uiso   1.00
C768   C     0.74990   0.96048   0.64199   0.00000  Uiso   1.00
C769   C     0.88961   0.64233   0.45812   0.00000  Uiso   1.00
C770   C     0.61042   0.85764   0.54190   0.00000  Uiso   1.00
C771   C     0.60969   0.85845   0.45811   0.00000  Uiso   1.00
C772   C     0.89020   0.64165   0.54191   0.00000  Uiso   1.00
C773   C     0.61039   0.64233   0.54188   0.00000  Uiso   1.00
C774   C     0.88958   0.85764   0.45810   0.00000  Uiso   1.00
C775   C     0.89031   0.85846   0.54189   0.00000  Uiso   1.00
C776   C     0.60980   0.64165   0.45809   0.00000  Uiso   1.00
C777   C     0.63955   0.89239   0.45812   0.00000  Uiso   1.00
C778   C     0.86037   0.60769   0.54189   0.00000  Uiso   1.00
C779   C     0.85977   0.60838   0.45811   0.00000  Uiso   1.00
C780   C     0.64028   0.89158   0.54190   0.00000  Uiso   1.00
C781   C     0.86045   0.89239   0.54188   0.00000  Uiso   1.00
C782   C     0.63963   0.60769   0.45811   0.00000  Uiso   1.00
C783   C     0.64023   0.60838   0.54189   0.00000  Uiso   1.00
C784   C     0.85972   0.89158   0.45810   0.00000  Uiso   1.00
H785   H     0.89949   0.65609   0.42533   0.00000  Uiso   1.00
H786   H     0.60056   0.84387   0.57470   0.00000  Uiso   1.00
H787   H     0.59925   0.84530   0.42530   0.00000  Uiso   1.00
H788   H     0.90056   0.65487   0.57473   0.00000  Uiso   1.00
H789   H     0.60051   0.65609   0.57467   0.00000  Uiso   1.00
H790   H     0.89944   0.84387   0.42530   0.00000  Uiso   1.00
H791   H     0.90075   0.84530   0.57470   0.00000  Uiso   1.00
H792   H     0.59944   0.65487   0.42527   0.00000  Uiso   1.00
H793   H     0.64941   0.90617   0.42531   0.00000  Uiso   1.00
H794   H     0.85049   0.59394   0.57469   0.00000  Uiso   1.00
H795   H     0.84940   0.59516   0.42529   0.00000  Uiso   1.00
H796   H     0.65071   0.90474   0.57472   0.00000  Uiso   1.00
H797   H     0.85059   0.90617   0.57469   0.00000  Uiso   1.00
H798   H     0.64951   0.59394   0.42531   0.00000  Uiso   1.00
H799   H     0.65060   0.59516   0.57472   0.00000  Uiso   1.00
H800   H     0.84929   0.90474   0.42528   0.00000  Uiso   1.00
C801   C     0.59404   0.84168   0.50000   0.00000  Uiso   1.00
C802   C     0.90593   0.65835   0.50001   0.00000  Uiso   1.00
C803   C     0.90596   0.84168   0.50000   0.00000  Uiso   1.00
C804   C     0.59407   0.65835   0.49999   0.00000  Uiso   1.00
C805   C     0.84406   0.59166   0.50000   0.00000  Uiso   1.00
C806   C     0.65594   0.90834   0.50001   0.00000  Uiso   1.00
C807   C     0.65594   0.59166   0.50000   0.00000  Uiso   1.00
C808   C     0.84406   0.90834   0.49999   0.00000  Uiso   1.00
N809   N     0.50018   0.66826   0.38161   0.00000  Uiso   1.00
O810   O     0.96504   0.64615   0.38495   0.00000  Uiso   1.00
O811   O     0.53510   0.64552   0.38296   0.00000  Uiso   1.00
N812   N     0.99882   0.83175   0.61841   0.00000  Uiso   1.00
O813   O     0.53387   0.85368   0.61314   0.00000  Uiso   1.00
O814   O     0.96399   0.85466   0.61896   0.00000  Uiso   1.00
N815   N     0.50118   0.83175   0.38159   0.00000  Uiso   1.00
O816   O     0.96613   0.85368   0.38686   0.00000  Uiso   1.00
O817   O     0.53601   0.85466   0.38104   0.00000  Uiso   1.00
N818   N     0.99982   0.66826   0.61839   0.00000  Uiso   1.00
O819   O     0.53497   0.64615   0.61505   0.00000  Uiso   1.00
O820   O     0.96491   0.64552   0.61704   0.00000  Uiso   1.00
N821   N     0.75091   0.91825   0.38160   0.00000  Uiso   1.00
O822   O     0.71582   0.89630   0.38639   0.00000  Uiso   1.00
O823   O     0.78576   0.89537   0.38152   0.00000  Uiso   1.00
N824   N     0.74943   0.58174   0.61839   0.00000  Uiso   1.00
O825   O     0.78454   0.60381   0.61434   0.00000  Uiso   1.00
O826   O     0.71452   0.60453   0.61776   0.00000  Uiso   1.00
N827   N     0.75057   0.58174   0.38161   0.00000  Uiso   1.00
O828   O     0.71546   0.60381   0.38566   0.00000  Uiso   1.00
O829   O     0.78547   0.60453   0.38224   0.00000  Uiso   1.00
N830   N     0.74910   0.91825   0.61840   0.00000  Uiso   1.00
O831   O     0.78419   0.89629   0.61361   0.00000  Uiso   1.00
O832   O     0.71424   0.89537   0.61847   0.00000  Uiso   1.00
O833   O     0.04509   0.20491   0.87291   0.00000  Uiso   1.00
O834   O     0.45492   0.29509   0.79375   0.00000  Uiso   1.00
O835   O     0.45492   0.29509   0.87291   0.00000  Uiso   1.00
O836   O     0.04509   0.20491   0.79375   0.00000  Uiso   1.00
O837   O     0.45492   0.20491   0.79375   0.00000  Uiso   1.00
O838   O     0.04509   0.29509   0.87291   0.00000  Uiso   1.00
O839   O     0.04509   0.29509   0.79375   0.00000  Uiso   1.00
O840   O     0.45492   0.20491   0.87291   0.00000  Uiso   1.00
O841   O     0.29509   0.45491   0.87291   0.00000  Uiso   1.00
O842   O     0.20492   0.04509   0.79375   0.00000  Uiso   1.00
O843   O     0.20492   0.04509   0.87291   0.00000  Uiso   1.00
O844   O     0.29509   0.45491   0.79375   0.00000  Uiso   1.00
O845   O     0.20492   0.45491   0.79375   0.00000  Uiso   1.00
O846   O     0.29509   0.04509   0.87291   0.00000  Uiso   1.00
O847   O     0.29509   0.04509   0.79375   0.00000  Uiso   1.00
O848   O     0.20492   0.45491   0.87291   0.00000  Uiso   1.00
C849   C     0.06001   0.19126   0.83333   0.00000  Uiso   1.00
C850   C     0.44001   0.30876   0.83333   0.00000  Uiso   1.00
C851   C     0.43999   0.19126   0.83334   0.00000  Uiso   1.00
C852   C     0.05999   0.30876   0.83333   0.00000  Uiso   1.00
C853   C     0.31000   0.44125   0.83333   0.00000  Uiso   1.00
C854   C     0.19000   0.05875   0.83334   0.00000  Uiso   1.00
C855   C     0.19000   0.44125   0.83334   0.00000  Uiso   1.00
C856   C     0.31000   0.05875   0.83333   0.00000  Uiso   1.00
N857   N     0.00000   0.25000   0.95069   0.00000  Uiso   1.00
N858   N     0.00000   0.25000   0.71598   0.00000  Uiso   1.00
N859   N     0.25000   0.00000   0.95069   0.00000  Uiso   1.00
N860   N     0.25000   0.00000   0.71598   0.00000  Uiso   1.00
Cu861  Cu    0.00000   0.25000   0.88022   0.00000  Uiso   1.00
Cu862  Cu    0.00000   0.25000   0.78645   0.00000  Uiso   1.00
Cu863  Cu    0.25000   0.00000   0.88022   0.00000  Uiso   1.00
Cu864  Cu    0.25000   0.00000   0.78645   0.00000  Uiso   1.00
C865   C     0.49998   0.21048   0.69134   0.00000  Uiso   1.00
C866   C     0.49985   0.28952   0.97533   0.00000  Uiso   1.00
C867   C     0.00015   0.28952   0.69134   0.00000  Uiso   1.00
C868   C     0.00002   0.21048   0.97532   0.00000  Uiso   1.00
C869   C     0.25010   0.46048   0.69134   0.00000  Uiso   1.00
C870   C     0.24996   0.03952   0.97532   0.00000  Uiso   1.00
C871   C     0.25004   0.03952   0.69134   0.00000  Uiso   1.00
C872   C     0.24990   0.46048   0.97532   0.00000  Uiso   1.00
C873   C     0.38961   0.14233   0.79146   0.00000  Uiso   1.00
C874   C     0.11042   0.35764   0.87523   0.00000  Uiso   1.00
C875   C     0.10969   0.35845   0.79144   0.00000  Uiso   1.00
C876   C     0.39020   0.14165   0.87524   0.00000  Uiso   1.00
C877   C     0.11039   0.14233   0.87521   0.00000  Uiso   1.00
C878   C     0.38958   0.35764   0.79144   0.00000  Uiso   1.00
C879   C     0.39031   0.35846   0.87522   0.00000  Uiso   1.00
C880   C     0.10980   0.14165   0.79143   0.00000  Uiso   1.00
C881   C     0.13955   0.39239   0.79145   0.00000  Uiso   1.00
C882   C     0.36037   0.10769   0.87522   0.00000  Uiso   1.00
C883   C     0.35977   0.10838   0.79144   0.00000  Uiso   1.00
C884   C     0.14028   0.39158   0.87523   0.00000  Uiso   1.00
C885   C     0.36045   0.39239   0.87522   0.00000  Uiso   1.00
C886   C     0.13963   0.10769   0.79144   0.00000  Uiso   1.00
C887   C     0.14023   0.10838   0.87523   0.00000  Uiso   1.00
C888   C     0.35972   0.39158   0.79143   0.00000  Uiso   1.00
H889   H     0.39949   0.15609   0.75866   0.00000  Uiso   1.00
H890   H     0.10056   0.34387   0.90804   0.00000  Uiso   1.00
H891   H     0.09925   0.34530   0.75863   0.00000  Uiso   1.00
H892   H     0.40056   0.15487   0.90807   0.00000  Uiso   1.00
H893   H     0.10051   0.15609   0.90801   0.00000  Uiso   1.00
H894   H     0.39944   0.34387   0.75863   0.00000  Uiso   1.00
H895   H     0.40075   0.34530   0.90804   0.00000  Uiso   1.00
H896   H     0.09944   0.15487   0.75860   0.00000  Uiso   1.00
H897   H     0.14941   0.40617   0.75864   0.00000  Uiso   1.00
H898   H     0.35049   0.09394   0.90803   0.00000  Uiso   1.00
H899   H     0.34940   0.09516   0.75862   0.00000  Uiso   1.00
H900   H     0.15071   0.40474   0.90805   0.00000  Uiso   1.00
H901   H     0.35059   0.40617   0.90802   0.00000  Uiso   1.00
H902   H     0.14951   0.09394   0.75864   0.00000  Uiso   1.00
H903   H     0.15060   0.09516   0.90805   0.00000  Uiso   1.00
H904   H     0.34929   0.40474   0.75862   0.00000  Uiso   1.00
C905   C     0.09404   0.34168   0.83334   0.00000  Uiso   1.00
C906   C     0.40593   0.15835   0.83335   0.00000  Uiso   1.00
C907   C     0.40596   0.34168   0.83333   0.00000  Uiso   1.00
C908   C     0.09407   0.15835   0.83332   0.00000  Uiso   1.00
C909   C     0.34406   0.09166   0.83333   0.00000  Uiso   1.00
C910   C     0.15594   0.40834   0.83334   0.00000  Uiso   1.00
C911   C     0.15594   0.09166   0.83334   0.00000  Uiso   1.00
C912   C     0.34406   0.40834   0.83333   0.00000  Uiso   1.00
N913   N     0.00018   0.16826   0.71495   0.00000  Uiso   1.00
O914   O     0.46504   0.14615   0.71829   0.00000  Uiso   1.00
O915   O     0.03510   0.14552   0.71629   0.00000  Uiso   1.00
N916   N     0.49882   0.33175   0.95174   0.00000  Uiso   1.00
O917   O     0.03387   0.35368   0.94647   0.00000  Uiso   1.00
O918   O     0.46399   0.35466   0.95229   0.00000  Uiso   1.00
N919   N     0.00118   0.33175   0.71493   0.00000  Uiso   1.00
O920   O     0.46613   0.35368   0.72019   0.00000  Uiso   1.00
O921   O     0.03601   0.35466   0.71438   0.00000  Uiso   1.00
N922   N     0.49982   0.16826   0.95172   0.00000  Uiso   1.00
O923   O     0.03497   0.14615   0.94838   0.00000  Uiso   1.00
O924   O     0.46491   0.14552   0.95038   0.00000  Uiso   1.00
N925   N     0.25091   0.41825   0.71493   0.00000  Uiso   1.00
O926   O     0.21582   0.39630   0.71972   0.00000  Uiso   1.00
O927   O     0.28576   0.39537   0.71486   0.00000  Uiso   1.00
N928   N     0.24943   0.08174   0.95173   0.00000  Uiso   1.00
O929   O     0.28454   0.10381   0.94767   0.00000  Uiso   1.00
O930   O     0.21452   0.10453   0.95109   0.00000  Uiso   1.00
N931   N     0.25057   0.08174   0.71494   0.00000  Uiso   1.00
O932   O     0.21546   0.10381   0.71899   0.00000  Uiso   1.00
O933   O     0.28547   0.10453   0.71558   0.00000  Uiso   1.00
N934   N     0.24910   0.41825   0.95173   0.00000  Uiso   1.00
O935   O     0.28419   0.39629   0.94695   0.00000  Uiso   1.00
O936   O     0.21424   0.39537   0.95181   0.00000  Uiso   1.00
O937   O     0.54509   0.20491   0.87291   0.00000  Uiso   1.00
O938   O     0.95492   0.29509   0.79375   0.00000  Uiso   1.00
O939   O     0.95492   0.29509   0.87291   0.00000  Uiso   1.00
O940   O     0.54509   0.20491   0.79375   0.00000  Uiso   1.00
O941   O     0.95492   0.20491   0.79375   0.00000  Uiso   1.00
O942   O     0.54509   0.29509   0.87291   0.00000  Uiso   1.00
O943   O     0.54509   0.29509   0.79375   0.00000  Uiso   1.00
O944   O     0.95492   0.20491   0.87291   0.00000  Uiso   1.00
O945   O     0.79509   0.45491   0.87291   0.00000  Uiso   1.00
O946   O     0.70492   0.04509   0.79375   0.00000  Uiso   1.00
O947   O     0.70492   0.04509   0.87291   0.00000  Uiso   1.00
O948   O     0.79509   0.45491   0.79375   0.00000  Uiso   1.00
O949   O     0.70492   0.45491   0.79375   0.00000  Uiso   1.00
O950   O     0.79509   0.04509   0.87291   0.00000  Uiso   1.00
O951   O     0.79509   0.04509   0.79375   0.00000  Uiso   1.00
O952   O     0.70492   0.45491   0.87291   0.00000  Uiso   1.00
C953   C     0.56001   0.19126   0.83333   0.00000  Uiso   1.00
C954   C     0.94001   0.30876   0.83333   0.00000  Uiso   1.00
C955   C     0.93999   0.19126   0.83334   0.00000  Uiso   1.00
C956   C     0.55999   0.30876   0.83333   0.00000  Uiso   1.00
C957   C     0.81000   0.44125   0.83333   0.00000  Uiso   1.00
C958   C     0.69000   0.05875   0.83334   0.00000  Uiso   1.00
C959   C     0.69000   0.44125   0.83334   0.00000  Uiso   1.00
C960   C     0.81000   0.05875   0.83333   0.00000  Uiso   1.00
N961   N     0.50000   0.25000   0.95069   0.00000  Uiso   1.00
N962   N     0.50000   0.25000   0.71598   0.00000  Uiso   1.00
N963   N     0.75000   0.00000   0.95069   0.00000  Uiso   1.00
N964   N     0.75000   0.00000   0.71598   0.00000  Uiso   1.00
Cu965  Cu    0.50000   0.25000   0.88022   0.00000  Uiso   1.00
Cu966  Cu    0.50000   0.25000   0.78645   0.00000  Uiso   1.00
Cu967  Cu    0.75000   0.00000   0.88022   0.00000  Uiso   1.00
Cu968  Cu    0.75000   0.00000   0.78645   0.00000  Uiso   1.00
C969   C     0.99998   0.21048   0.69134   0.00000  Uiso   1.00
C970   C     0.99985   0.28952   0.97533   0.00000  Uiso   1.00
C971   C     0.50015   0.28952   0.69134   0.00000  Uiso   1.00
C972   C     0.50002   0.21048   0.97532   0.00000  Uiso   1.00
C973   C     0.75010   0.46048   0.69134   0.00000  Uiso   1.00
C974   C     0.74996   0.03952   0.97532   0.00000  Uiso   1.00
C975   C     0.75004   0.03952   0.69134   0.00000  Uiso   1.00
C976   C     0.74990   0.46048   0.97532   0.00000  Uiso   1.00
C977   C     0.88961   0.14233   0.79146   0.00000  Uiso   1.00
C978   C     0.61042   0.35764   0.87523   0.00000  Uiso   1.00
C979   C     0.60969   0.35845   0.79144   0.00000  Uiso   1.00
C980   C     0.89020   0.14165   0.87524   0.00000  Uiso   1.00
C981   C     0.61039   0.14233   0.87521   0.00000  Uiso   1.00
C982   C     0.88958   0.35764   0.79144   0.00000  Uiso   1.00
C983   C     0.89031   0.35846   0.87522   0.00000  Uiso   1.00
C984   C     0.60980   0.14165   0.79143   0.00000  Uiso   1.00
C985   C     0.63955   0.39239   0.79145   0.00000  Uiso   1.00
C986   C     0.86037   0.10769   0.87522   0.00000  Uiso   1.00
C987   C     0.85977   0.10838   0.79144   0.00000  Uiso   1.00
C988   C     0.64028   0.39158   0.87523   0.00000  Uiso   1.00
C989   C     0.86045   0.39239   0.87522   0.00000  Uiso   1.00
C990   C     0.63963   0.10769   0.79144   0.00000  Uiso   1.00
C991   C     0.64023   0.10838   0.87523   0.00000  Uiso   1.00
C992   C     0.85972   0.39158   0.79143   0.00000  Uiso   1.00
H993   H     0.89949   0.15609   0.75866   0.00000  Uiso   1.00
H994   H     0.60056   0.34387   0.90804   0.00000  Uiso   1.00
H995   H     0.59925   0.34530   0.75863   0.00000  Uiso   1.00
H996   H     0.90056   0.15487   0.90807   0.00000  Uiso   1.00
H997   H     0.60051   0.15609   0.90801   0.00000  Uiso   1.00
H998   H     0.89944   0.34387   0.75863   0.00000  Uiso   1.00
H999   H     0.90075   0.34530   0.90804   0.00000  Uiso   1.00
H1000  H     0.59944   0.15487   0.75860   0.00000  Uiso   1.00
H1001  H     0.64941   0.40617   0.75864   0.00000  Uiso   1.00
H1002  H     0.85049   0.09394   0.90803   0.00000  Uiso   1.00
H1003  H     0.84940   0.09516   0.75862   0.00000  Uiso   1.00
H1004  H     0.65071   0.40474   0.90805   0.00000  Uiso   1.00
H1005  H     0.85059   0.40617   0.90802   0.00000  Uiso   1.00
H1006  H     0.64951   0.09394   0.75864   0.00000  Uiso   1.00
H1007  H     0.65060   0.09516   0.90805   0.00000  Uiso   1.00
H1008  H     0.84929   0.40474   0.75862   0.00000  Uiso   1.00
C1009  C     0.59404   0.34168   0.83334   0.00000  Uiso   1.00
C1010  C     0.90593   0.15835   0.83335   0.00000  Uiso   1.00
C1011  C     0.90596   0.34168   0.83333   0.00000  Uiso   1.00
C1012  C     0.59407   0.15835   0.83332   0.00000  Uiso   1.00
C1013  C     0.84406   0.09166   0.83333   0.00000  Uiso   1.00
C1014  C     0.65594   0.40834   0.83334   0.00000  Uiso   1.00
C1015  C     0.65594   0.09166   0.83334   0.00000  Uiso   1.00
C1016  C     0.84406   0.40834   0.83333   0.00000  Uiso   1.00
N1017  N     0.50018   0.16826   0.71495   0.00000  Uiso   1.00
O1018  O     0.96504   0.14615   0.71829   0.00000  Uiso   1.00
O1019  O     0.53510   0.14552   0.71629   0.00000  Uiso   1.00
N1020  N     0.99882   0.33175   0.95174   0.00000  Uiso   1.00
O1021  O     0.53387   0.35368   0.94647   0.00000  Uiso   1.00
O1022  O     0.96399   0.35466   0.95229   0.00000  Uiso   1.00
N1023  N     0.50118   0.33175   0.71493   0.00000  Uiso   1.00
O1024  O     0.96613   0.35368   0.72019   0.00000  Uiso   1.00
O1025  O     0.53601   0.35466   0.71438   0.00000  Uiso   1.00
N1026  N     0.99982   0.16826   0.95172   0.00000  Uiso   1.00
O1027  O     0.53497   0.14615   0.94838   0.00000  Uiso   1.00
O1028  O     0.96491   0.14552   0.95038   0.00000  Uiso   1.00
N1029  N     0.75091   0.41825   0.71493   0.00000  Uiso   1.00
O1030  O     0.71582   0.39630   0.71972   0.00000  Uiso   1.00
O1031  O     0.78576   0.39537   0.71486   0.00000  Uiso   1.00
N1032  N     0.74943   0.08174   0.95173   0.00000  Uiso   1.00
O1033  O     0.78454   0.10381   0.94767   0.00000  Uiso   1.00
O1034  O     0.71452   0.10453   0.95109   0.00000  Uiso   1.00
N1035  N     0.75057   0.08174   0.71494   0.00000  Uiso   1.00
O1036  O     0.71546   0.10381   0.71899   0.00000  Uiso   1.00
O1037  O     0.78547   0.10453   0.71558   0.00000  Uiso   1.00
N1038  N     0.74910   0.41825   0.95173   0.00000  Uiso   1.00
O1039  O     0.78419   0.39629   0.94695   0.00000  Uiso   1.00
O1040  O     0.71424   0.39537   0.95181   0.00000  Uiso   1.00
O1041  O     0.04509   0.70491   0.87291   0.00000  Uiso   1.00
O1042  O     0.45492   0.79509   0.79375   0.00000  Uiso   1.00
O1043  O     0.45492   0.79509   0.87291   0.00000  Uiso   1.00
O1044  O     0.04509   0.70491   0.79375   0.00000  Uiso   1.00
O1045  O     0.45492   0.70491   0.79375   0.00000  Uiso   1.00
O1046  O     0.04509   0.79509   0.87291   0.00000  Uiso   1.00
O1047  O     0.04509   0.79509   0.79375   0.00000  Uiso   1.00
O1048  O     0.45492   0.70491   0.87291   0.00000  Uiso   1.00
O1049  O     0.29509   0.95491   0.87291   0.00000  Uiso   1.00
O1050  O     0.20492   0.54509   0.79375   0.00000  Uiso   1.00
O1051  O     0.20492   0.54509   0.87291   0.00000  Uiso   1.00
O1052  O     0.29509   0.95491   0.79375   0.00000  Uiso   1.00
O1053  O     0.20492   0.95491   0.79375   0.00000  Uiso   1.00
O1054  O     0.29509   0.54509   0.87291   0.00000  Uiso   1.00
O1055  O     0.29509   0.54509   0.79375   0.00000  Uiso   1.00
O1056  O     0.20492   0.95491   0.87291   0.00000  Uiso   1.00
C1057  C     0.06001   0.69126   0.83333   0.00000  Uiso   1.00
C1058  C     0.44001   0.80876   0.83333   0.00000  Uiso   1.00
C1059  C     0.43999   0.69126   0.83334   0.00000  Uiso   1.00
C1060  C     0.05999   0.80876   0.83333   0.00000  Uiso   1.00
C1061  C     0.31000   0.94125   0.83333   0.00000  Uiso   1.00
C1062  C     0.19000   0.55875   0.83334   0.00000  Uiso   1.00
C1063  C     0.19000   0.94125   0.83334   0.00000  Uiso   1.00
C1064  C     0.31000   0.55875   0.83333   0.00000  Uiso   1.00
N1065  N     0.00000   0.75000   0.95069   0.00000  Uiso   1.00
N1066  N     0.00000   0.75000   0.71598   0.00000  Uiso   1.00
N1067  N     0.25000   0.50000   0.95069   0.00000  Uiso   1.00
N1068  N     0.25000   0.50000   0.71598   0.00000  Uiso   1.00
Cu1069 Cu    0.00000   0.75000   0.88022   0.00000  Uiso   1.00
Cu1070 Cu    0.00000   0.75000   0.78645   0.00000  Uiso   1.00
Cu1071 Cu    0.25000   0.50000   0.88022   0.00000  Uiso   1.00
Cu1072 Cu    0.25000   0.50000   0.78645   0.00000  Uiso   1.00
C1073  C     0.49998   0.71048   0.69134   0.00000  Uiso   1.00
C1074  C     0.49985   0.78952   0.97533   0.00000  Uiso   1.00
C1075  C     0.00015   0.78952   0.69134   0.00000  Uiso   1.00
C1076  C     0.00002   0.71048   0.97532   0.00000  Uiso   1.00
C1077  C     0.25010   0.96048   0.69134   0.00000  Uiso   1.00
C1078  C     0.24996   0.53952   0.97532   0.00000  Uiso   1.00
C1079  C     0.25004   0.53952   0.69134   0.00000  Uiso   1.00
C1080  C     0.24990   0.96048   0.97532   0.00000  Uiso   1.00
C1081  C     0.38961   0.64233   0.79146   0.00000  Uiso   1.00
C1082  C     0.11042   0.85764   0.87523   0.00000  Uiso   1.00
C1083  C     0.10969   0.85845   0.79144   0.00000  Uiso   1.00
C1084  C     0.39020   0.64165   0.87524   0.00000  Uiso   1.00
C1085  C     0.11039   0.64233   0.87521   0.00000  Uiso   1.00
C1086  C     0.38958   0.85764   0.79144   0.00000  Uiso   1.00
C1087  C     0.39031   0.85846   0.87522   0.00000  Uiso   1.00
C1088  C     0.10980   0.64165   0.79143   0.00000  Uiso   1.00
C1089  C     0.13955   0.89239   0.79145   0.00000  Uiso   1.00
C1090  C     0.36037   0.60769   0.87522   0.00000  Uiso   1.00
C1091  C     0.35977   0.60838   0.79144   0.00000  Uiso   1.00
C1092  C     0.14028   0.89158   0.87523   0.00000  Uiso   1.00
C1093  C     0.36045   0.89239   0.87522   0.00000  Uiso   1.00
C1094  C     0.13963   0.60769   0.79144   0.00000  Uiso   1.00
C1095  C     0.14023   0.60838   0.87523   0.00000  Uiso   1.00
C1096  C     0.35972   0.89158   0.79143   0.00000  Uiso   1.00
H1097  H     0.39949   0.65609   0.75866   0.00000  Uiso   1.00
H1098  H     0.10056   0.84387   0.90804   0.00000  Uiso   1.00
H1099  H     0.09925   0.84530   0.75863   0.00000  Uiso   1.00
H1100  H     0.40056   0.65487   0.90807   0.00000  Uiso   1.00
H1101  H     0.10051   0.65609   0.90801   0.00000  Uiso   1.00
H1102  H     0.39944   0.84387   0.75863   0.00000  Uiso   1.00
H1103  H     0.40075   0.84530   0.90804   0.00000  Uiso   1.00
H1104  H     0.09944   0.65487   0.75860   0.00000  Uiso   1.00
H1105  H     0.14941   0.90617   0.75864   0.00000  Uiso   1.00
H1106  H     0.35049   0.59394   0.90803   0.00000  Uiso   1.00
H1107  H     0.34940   0.59516   0.75862   0.00000  Uiso   1.00
H1108  H     0.15071   0.90474   0.90805   0.00000  Uiso   1.00
H1109  H     0.35059   0.90617   0.90802   0.00000  Uiso   1.00
H1110  H     0.14951   0.59394   0.75864   0.00000  Uiso   1.00
H1111  H     0.15060   0.59516   0.90805   0.00000  Uiso   1.00
H1112  H     0.34929   0.90474   0.75862   0.00000  Uiso   1.00
C1113  C     0.09404   0.84168   0.83334   0.00000  Uiso   1.00
C1114  C     0.40593   0.65835   0.83335   0.00000  Uiso   1.00
C1115  C     0.40596   0.84168   0.83333   0.00000  Uiso   1.00
C1116  C     0.09407   0.65835   0.83332   0.00000  Uiso   1.00
C1117  C     0.34406   0.59166   0.83333   0.00000  Uiso   1.00
C1118  C     0.15594   0.90834   0.83334   0.00000  Uiso   1.00
C1119  C     0.15594   0.59166   0.83334   0.00000  Uiso   1.00
C1120  C     0.34406   0.90834   0.83333   0.00000  Uiso   1.00
N1121  N     0.00018   0.66826   0.71495   0.00000  Uiso   1.00
O1122  O     0.46504   0.64615   0.71829   0.00000  Uiso   1.00
O1123  O     0.03510   0.64552   0.71629   0.00000  Uiso   1.00
N1124  N     0.49882   0.83175   0.95174   0.00000  Uiso   1.00
O1125  O     0.03387   0.85368   0.94647   0.00000  Uiso   1.00
O1126  O     0.46399   0.85466   0.95229   0.00000  Uiso   1.00
N1127  N     0.00118   0.83175   0.71493   0.00000  Uiso   1.00
O1128  O     0.46613   0.85368   0.72019   0.00000  Uiso   1.00
O1129  O     0.03601   0.85466   0.71438   0.00000  Uiso   1.00
N1130  N     0.49982   0.66826   0.95172   0.00000  Uiso   1.00
O1131  O     0.03497   0.64615   0.94838   0.00000  Uiso   1.00
O1132  O     0.46491   0.64552   0.95038   0.00000  Uiso   1.00
N1133  N     0.25091   0.91825   0.71493   0.00000  Uiso   1.00
O1134  O     0.21582   0.89630   0.71972   0.00000  Uiso   1.00
O1135  O     0.28576   0.89537   0.71486   0.00000  Uiso   1.00
N1136  N     0.24943   0.58174   0.95173   0.00000  Uiso   1.00
O1137  O     0.28454   0.60381   0.94767   0.00000  Uiso   1.00
O1138  O     0.21452   0.60453   0.95109   0.00000  Uiso   1.00
N1139  N     0.25057   0.58174   0.71494   0.00000  Uiso   1.00
O1140  O     0.21546   0.60381   0.71899   0.00000  Uiso   1.00
O1141  O     0.28547   0.60453   0.71558   0.00000  Uiso   1.00
N1142  N     0.24910   0.91825   0.95173   0.00000  Uiso   1.00
O1143  O     0.28419   0.89629   0.94695   0.00000  Uiso   1.00
O1144  O     0.21424   0.89537   0.95181   0.00000  Uiso   1.00
O1145  O     0.54509   0.70491   0.87291   0.00000  Uiso   1.00
O1146  O     0.95492   0.79509   0.79375   0.00000  Uiso   1.00
O1147  O     0.95492   0.79509   0.87291   0.00000  Uiso   1.00
O1148  O     0.54509   0.70491   0.79375   0.00000  Uiso   1.00
O1149  O     0.95492   0.70491   0.79375   0.00000  Uiso   1.00
O1150  O     0.54509   0.79509   0.87291   0.00000  Uiso   1.00
O1151  O     0.54509   0.79509   0.79375   0.00000  Uiso   1.00
O1152  O     0.95492   0.70491   0.87291   0.00000  Uiso   1.00
O1153  O     0.79509   0.95491   0.87291   0.00000  Uiso   1.00
O1154  O     0.70492   0.54509   0.79375   0.00000  Uiso   1.00
O1155  O     0.70492   0.54509   0.87291   0.00000  Uiso   1.00
O1156  O     0.79509   0.95491   0.79375   0.00000  Uiso   1.00
O1157  O     0.70492   0.95491   0.79375   0.00000  Uiso   1.00
O1158  O     0.79509   0.54509   0.87291   0.00000  Uiso   1.00
O1159  O     0.79509   0.54509   0.79375   0.00000  Uiso   1.00
O1160  O     0.70492   0.95491   0.87291   0.00000  Uiso   1.00
C1161  C     0.56001   0.69126   0.83333   0.00000  Uiso   1.00
C1162  C     0.94001   0.80876   0.83333   0.00000  Uiso   1.00
C1163  C     0.93999   0.69126   0.83334   0.00000  Uiso   1.00
C1164  C     0.55999   0.80876   0.83333   0.00000  Uiso   1.00
C1165  C     0.81000   0.94125   0.83333   0.00000  Uiso   1.00
C1166  C     0.69000   0.55875   0.83334   0.00000  Uiso   1.00
C1167  C     0.69000   0.94125   0.83334   0.00000  Uiso   1.00
C1168  C     0.81000   0.55875   0.83333   0.00000  Uiso   1.00
N1169  N     0.50000   0.75000   0.95069   0.00000  Uiso   1.00
N1170  N     0.50000   0.75000   0.71598   0.00000  Uiso   1.00
N1171  N     0.75000   0.50000   0.95069   0.00000  Uiso   1.00
N1172  N     0.75000   0.50000   0.71598   0.00000  Uiso   1.00
Cu1173 Cu    0.50000   0.75000   0.88022   0.00000  Uiso   1.00
Cu1174 Cu    0.50000   0.75000   0.78645   0.00000  Uiso   1.00
Cu1175 Cu    0.75000   0.50000   0.88022   0.00000  Uiso   1.00
Cu1176 Cu    0.75000   0.50000   0.78645   0.00000  Uiso   1.00
C1177  C     0.99998   0.71048   0.69134   0.00000  Uiso   1.00
C1178  C     0.99985   0.78952   0.97533   0.00000  Uiso   1.00
C1179  C     0.50015   0.78952   0.69134   0.00000  Uiso   1.00
C1180  C     0.50002   0.71048   0.97532   0.00000  Uiso   1.00
C1181  C     0.75010   0.96048   0.69134   0.00000  Uiso   1.00
C1182  C     0.74996   0.53952   0.97532   0.00000  Uiso   1.00
C1183  C     0.75004   0.53952   0.69134   0.00000  Uiso   1.00
C1184  C     0.74990   0.96048   0.97532   0.00000  Uiso   1.00
C1185  C     0.88961   0.64233   0.79146   0.00000  Uiso   1.00
C1186  C     0.61042   0.85764   0.87523   0.00000  Uiso   1.00
C1187  C     0.60969   0.85845   0.79144   0.00000  Uiso   1.00
C1188  C     0.89020   0.64165   0.87524   0.00000  Uiso   1.00
C1189  C     0.61039   0.64233   0.87521   0.00000  Uiso   1.00
C1190  C     0.88958   0.85764   0.79144   0.00000  Uiso   1.00
C1191  C     0.89031   0.85846   0.87522   0.00000  Uiso   1.00
C1192  C     0.60980   0.64165   0.79143   0.00000  Uiso   1.00
C1193  C     0.63955   0.89239   0.79145   0.00000  Uiso   1.00
C1194  C     0.86037   0.60769   0.87522   0.00000  Uiso   1.00
C1195  C     0.85977   0.60838   0.79144   0.00000  Uiso   1.00
C1196  C     0.64028   0.89158   0.87523   0.00000  Uiso   1.00
C1197  C     0.86045   0.89239   0.87522   0.00000  Uiso   1.00
C1198  C     0.63963   0.60769   0.79144   0.00000  Uiso   1.00
C1199  C     0.64023   0.60838   0.87523   0.00000  Uiso   1.00
C1200  C     0.85972   0.89158   0.79143   0.00000  Uiso   1.00
H1201  H     0.89949   0.65609   0.75866   0.00000  Uiso   1.00
H1202  H     0.60056   0.84387   0.90804   0.00000  Uiso   1.00
H1203  H     0.59925   0.84530   0.75863   0.00000  Uiso   1.00
H1204  H     0.90056   0.65487   0.90807   0.00000  Uiso   1.00
H1205  H     0.60051   0.65609   0.90801   0.00000  Uiso   1.00
H1206  H     0.89944   0.84387   0.75863   0.00000  Uiso   1.00
H1207  H     0.90075   0.84530   0.90804   0.00000  Uiso   1.00
H1208  H     0.59944   0.65487   0.75860   0.00000  Uiso   1.00
H1209  H     0.64941   0.90617   0.75864   0.00000  Uiso   1.00
H1210  H     0.85049   0.59394   0.90803   0.00000  Uiso   1.00
H1211  H     0.84940   0.59516   0.75862   0.00000  Uiso   1.00
H1212  H     0.65071   0.90474   0.90805   0.00000  Uiso   1.00
H1213  H     0.85059   0.90617   0.90802   0.00000  Uiso   1.00
H1214  H     0.64951   0.59394   0.75864   0.00000  Uiso   1.00
H1215  H     0.65060   0.59516   0.90805   0.00000  Uiso   1.00
H1216  H     0.84929   0.90474   0.75862   0.00000  Uiso   1.00
C1217  C     0.59404   0.84168   0.83334   0.00000  Uiso   1.00
C1218  C     0.90593   0.65835   0.83335   0.00000  Uiso   1.00
C1219  C     0.90596   0.84168   0.83333   0.00000  Uiso   1.00
C1220  C     0.59407   0.65835   0.83332   0.00000  Uiso   1.00
C1221  C     0.84406   0.59166   0.83333   0.00000  Uiso   1.00
C1222  C     0.65594   0.90834   0.83334   0.00000  Uiso   1.00
C1223  C     0.65594   0.59166   0.83334   0.00000  Uiso   1.00
C1224  C     0.84406   0.90834   0.83333   0.00000  Uiso   1.00
N1225  N     0.50018   0.66826   0.71495   0.00000  Uiso   1.00
O1226  O     0.96504   0.64615   0.71829   0.00000  Uiso   1.00
O1227  O     0.53510   0.64552   0.71629   0.00000  Uiso   1.00
N1228  N     0.99882   0.83175   0.95174   0.00000  Uiso   1.00
O1229  O     0.53387   0.85368   0.94647   0.00000  Uiso   1.00
O1230  O     0.96399   0.85466   0.95229   0.00000  Uiso   1.00
N1231  N     0.50118   0.83175   0.71493   0.00000  Uiso   1.00
O1232  O     0.96613   0.85368   0.72019   0.00000  Uiso   1.00
O1233  O     0.53601   0.85466   0.71438   0.00000  Uiso   1.00
N1234  N     0.99982   0.66826   0.95172   0.00000  Uiso   1.00
O1235  O     0.53497   0.64615   0.94838   0.00000  Uiso   1.00
O1236  O     0.96491   0.64552   0.95038   0.00000  Uiso   1.00
N1237  N     0.75091   0.91825   0.71493   0.00000  Uiso   1.00
O1238  O     0.71582   0.89630   0.71972   0.00000  Uiso   1.00
O1239  O     0.78576   0.89537   0.71486   0.00000  Uiso   1.00
N1240  N     0.74943   0.58174   0.95173   0.00000  Uiso   1.00
O1241  O     0.78454   0.60381   0.94767   0.00000  Uiso   1.00
O1242  O     0.71452   0.60453   0.95109   0.00000  Uiso   1.00
N1243  N     0.75057   0.58174   0.71494   0.00000  Uiso   1.00
O1244  O     0.71546   0.60381   0.71899   0.00000  Uiso   1.00
O1245  O     0.78547   0.60453   0.71558   0.00000  Uiso   1.00
N1246  N     0.74910   0.91825   0.95173   0.00000  Uiso   1.00
O1247  O     0.78419   0.89629   0.94695   0.00000  Uiso   1.00
O1248  O     0.71424   0.89537   0.95181   0.00000  Uiso   1.00
loop_
_geom_bond_atom_site_label_1
_geom_bond_atom_site_label_2
_geom_bond_distance
_geom_bond_site_symmetry_2
_ccdc_geom_bond_type
O1     Cu29    1.971   .     S
O1     C17     1.302   .     A
O2     C18     1.302   .     A
O2     Cu134   1.971   .     S
O3     C18     1.302   .     A
O3     Cu133   1.971   .     S
O4     C17     1.302   .     A
O4     Cu30    1.971   .     S
O5     C19     1.302   .     A
O5     Cu134   1.971   .     S
O6     C20     1.302   .     A
O6     Cu29    1.971   .     S
O7     Cu30    1.971   .     S
O7     C20     1.302   .     A
O8     C19     1.302   .     A
O8     Cu133   1.971   .     S
O9     C21     1.302   .     A
O9     Cu239   1.971   .     S
O10    C22     1.302   .     A
O10    Cu32    1.971   .     S
O11    Cu31    1.971   .     S
O11    C22     1.302   .     A
O12    C21     1.302   .     A
O12    Cu240   1.971   .     S
O13    C23     1.302   .     A
O13    Cu240   1.971   .     S
O14    Cu31    1.971   .     S
O14    C24     1.302   .     A
O15    Cu32    1.971   .     S
O15    C24     1.302   .     A
O16    C23     1.302   .     A
O16    Cu239   1.971   .     S
C17    C76     1.458   .     S
C18    C75     1.458   .     S
C19    C74     1.458   .     S
C20    C73     1.458   .     S
C21    C80     1.458   .     S
C22    C79     1.458   .     S
C23    C78     1.458   .     S
C24    C77     1.458   .     S
N25    Cu29    2.035   .     S
N25    C36     1.373   .     A
N25    C138    1.373   1_455 S
N26    Cu30    2.035   .     S
N26    C35     1.373   .     A
N26    C137    1.373   1_455 S
N27    C38     1.373   .     A
N27    Cu31    2.035   .     S
N27    C248    1.373   1_545 S
N28    Cu32    2.035   .     S
N28    C39     1.373   .     A
N28    C245    1.373   1_545 S
Cu29   Cu30    2.708   .     S
Cu29   O112    1.971   1_455 S
Cu29   O107    1.971   1_455 S
Cu30   O109    1.971   1_455 S
Cu30   O106    1.971   1_455 S
Cu31   Cu32    2.708   .     S
Cu31   O224    1.971   1_545 S
Cu31   O217    1.971   1_545 S
Cu32   O221    1.971   1_545 S
Cu32   O220    1.971   1_545 S
C33    N130    1.373   .     S
C33    C972    1.425   1_554 S
C33    N185    1.428   .     S
C34    N84     1.428   .     S
C34    N129    1.373   .     S
C34    C555    1.425   .     S
C35    N87     1.428   .     S
C35    C970    1.425   1_454 S
C36    C553    1.425   1_455 S
C36    N194    1.428   1_455 S
C37    N93     1.428   .     S
C37    N236    1.373   .     S
C37    C872    1.425   1_554 S
C38    N96     1.428   .     S
C38    C455    1.425   .     S
C39    N99     1.428   .     S
C39    C870    1.425   1_554 S
C40    N102    1.428   .     S
C40    C453    1.425   .     S
C40    N235    1.373   .     S
C41    C74     1.399   .     A
C41    H57     1.078   .     S
C41    C51     1.384   .     A
C42    H58     1.078   .     S
C42    C73     1.400   .     A
C42    C52     1.384   .     A
C43    C73     1.399   .     A
C43    H59     1.077   .     S
C43    C49     1.384   .     A
C44    C74     1.399   .     A
C44    C50     1.384   .     A
C44    H60     1.077   .     S
C45    C76     1.399   .     A
C45    H61     1.078   .     S
C45    C55     1.384   .     A
C46    H62     1.078   .     S
C46    C75     1.400   .     A
C46    C56     1.384   .     A
C47    H63     1.077   .     S
C47    C53     1.384   .     A
C47    C75     1.399   .     A
C48    C76     1.399   .     A
C48    C54     1.384   .     A
C48    H64     1.077   .     S
C49    H65     1.078   .     S
C49    C78     1.399   .     A
C50    H66     1.078   .     S
C50    C77     1.399   .     A
C51    C77     1.399   .     A
C51    H67     1.077   .     S
C52    H68     1.077   .     S
C52    C78     1.399   .     A
C53    H69     1.078   .     S
C53    C80     1.399   .     A
C54    C79     1.399   .     A
C54    H70     1.078   .     S
C55    C79     1.399   .     A
C55    H71     1.077   .     S
C56    H72     1.077   .     S
C56    C80     1.399   .     A
N81    O83     1.298   .     A
N81    C137    1.428   1_455 S
N81    O186    1.298   1_455 S
O82    N185    1.298   .     S
N84    O86     1.298   .     A
N84    O189    1.298   .     S
O85    N188    1.298   1_455 S
N87    O89     1.298   .     A
N87    O192    1.298   1_455 S
O88    N191    1.298   .     S
N90    O92     1.298   .     A
N90    C140    1.428   .     S
N90    O195    1.298   .     S
O91    N194    1.298   1_455 S
N93    O94     1.298   .     A
N93    O95     1.298   .     A
N96    O98     1.298   .     A
N96    O97     1.298   .     A
N99    O100    1.298   .     A
N99    O101    1.298   .     A
N102   O104    1.298   .     A
N102   O103    1.298   .     A
O105   Cu133   1.971   .     S
O105   C121    1.302   .     A
O106   C122    1.302   .     A
O106   Cu30    1.971   1_655 S
O107   C122    1.302   .     A
O107   Cu29    1.971   1_655 S
O108   C121    1.302   .     A
O108   Cu134   1.971   .     S
O109   C123    1.302   .     A
O109   Cu30    1.971   1_655 S
O110   C124    1.302   .     A
O110   Cu133   1.971   .     S
O111   Cu134   1.971   .     S
O111   C124    1.302   .     A
O112   C123    1.302   .     A
O112   Cu29    1.971   1_655 S
O113   C125    1.302   .     A
O113   Cu343   1.971   .     S
O114   C126    1.302   .     A
O114   Cu136   1.971   .     S
O115   Cu135   1.971   .     S
O115   C126    1.302   .     A
O116   C125    1.302   .     A
O116   Cu344   1.971   .     S
O117   C127    1.302   .     A
O117   Cu344   1.971   .     S
O118   Cu135   1.971   .     S
O118   C128    1.302   .     A
O119   Cu136   1.971   .     S
O119   C128    1.302   .     A
O120   C127    1.302   .     A
O120   Cu343   1.971   .     S
C121   C180    1.458   .     S
C122   C179    1.458   .     S
C123   C178    1.458   .     S
C124   C177    1.458   .     S
C125   C184    1.458   .     S
C126   C183    1.458   .     S
C127   C182    1.458   .     S
C128   C181    1.458   .     S
N129   Cu133   2.035   .     S
N129   C140    1.373   .     A
N130   Cu134   2.035   .     S
N130   C139    1.373   .     A
N131   C142    1.373   .     A
N131   Cu135   2.035   .     S
N131   C352    1.373   1_545 S
N132   Cu136   2.035   .     S
N132   C143    1.373   .     A
N132   C349    1.373   1_545 S
Cu133  Cu134   2.708   .     S
Cu135  Cu136   2.708   .     S
Cu135  O328    1.971   1_545 S
Cu135  O321    1.971   1_545 S
Cu136  O325    1.971   1_545 S
Cu136  O324    1.971   1_545 S
C137   N26     1.373   1_655 S
C137   C868    1.425   1_654 S
C137   N81     1.428   1_655 S
C138   N188    1.428   .     S
C138   N25     1.373   1_655 S
C138   C451    1.425   1_655 S
C139   N191    1.428   .     S
C139   C866    1.425   1_554 S
C140   C449    1.425   .     S
C141   N197    1.428   .     S
C141   N340    1.373   .     S
C141   C976    1.425   1_554 S
C142   N200    1.428   .     S
C142   C559    1.425   .     S
C143   N203    1.428   .     S
C143   C974    1.425   1_554 S
C144   N206    1.428   .     S
C144   C557    1.425   .     S
C144   N339    1.373   .     S
C145   C178    1.399   .     A
C145   H161    1.078   .     S
C145   C155    1.384   .     A
C146   H162    1.078   .     S
C146   C177    1.400   .     A
C146   C156    1.384   .     A
C147   C177    1.399   .     A
C147   H163    1.077   .     S
C147   C153    1.384   .     A
C148   C178    1.399   .     A
C148   C154    1.384   .     A
C148   H164    1.077   .     S
C149   C180    1.399   .     A
C149   H165    1.078   .     S
C149   C159    1.384   .     A
C150   H166    1.078   .     S
C150   C179    1.400   .     A
C150   C160    1.384   .     A
C151   H167    1.077   .     S
C151   C157    1.384   .     A
C151   C179    1.399   .     A
C152   C180    1.399   .     A
C152   C158    1.384   .     A
C152   H168    1.077   .     S
C153   H169    1.078   .     S
C153   C182    1.399   .     A
C154   H170    1.078   .     S
C154   C181    1.399   .     A
C155   C181    1.399   .     A
C155   H171    1.077   .     S
C156   H172    1.077   .     S
C156   C182    1.399   .     A
C157   H173    1.078   .     S
C157   C184    1.399   .     A
C158   C183    1.399   .     A
C158   H174    1.078   .     S
C159   C183    1.399   .     A
C159   H175    1.077   .     S
C160   H176    1.077   .     S
C160   C184    1.399   .     A
N185   O187    1.298   .     A
O186   N81     1.298   1_655 S
N188   O190    1.298   .     A
N188   O85     1.298   1_655 S
N191   O193    1.298   .     A
O192   N87     1.298   1_655 S
N194   O196    1.298   .     A
N194   C36     1.428   1_655 S
N194   O91     1.298   1_655 S
N197   O198    1.298   .     A
N197   O199    1.298   .     A
N200   O202    1.298   .     A
N200   O201    1.298   .     A
N203   O204    1.298   .     A
N203   O205    1.298   .     A
N206   O208    1.298   .     A
N206   O207    1.298   .     A
O209   Cu237   1.971   .     S
O209   C225    1.302   .     A
O210   C226    1.302   .     A
O210   Cu342   1.971   .     S
O211   C226    1.302   .     A
O211   Cu341   1.971   .     S
O212   C225    1.302   .     A
O212   Cu238   1.971   .     S
O213   C227    1.302   .     A
O213   Cu342   1.971   .     S
O214   C228    1.302   .     A
O214   Cu237   1.971   .     S
O215   Cu238   1.971   .     S
O215   C228    1.302   .     A
O216   C227    1.302   .     A
O216   Cu341   1.971   .     S
O217   C229    1.302   .     A
O217   Cu31    1.971   1_565 S
O218   C230    1.302   .     A
O218   Cu240   1.971   .     S
O219   Cu239   1.971   .     S
O219   C230    1.302   .     A
O220   C229    1.302   .     A
O220   Cu32    1.971   1_565 S
O221   C231    1.302   .     A
O221   Cu32    1.971   1_565 S
O222   Cu239   1.971   .     S
O222   C232    1.302   .     A
O223   Cu240   1.971   .     S
O223   C232    1.302   .     A
O224   C231    1.302   .     A
O224   Cu31    1.971   1_565 S
C225   C284    1.458   .     S
C226   C283    1.458   .     S
C227   C282    1.458   .     S
C228   C281    1.458   .     S
C229   C288    1.458   .     S
C230   C287    1.458   .     S
C231   C286    1.458   .     S
C232   C285    1.458   .     S
N233   Cu237   2.035   .     S
N233   C244    1.373   .     A
N233   C346    1.373   1_455 S
N234   Cu238   2.035   .     S
N234   C243    1.373   .     A
N234   C345    1.373   1_455 S
N235   C246    1.373   .     A
N235   Cu239   2.035   .     S
N236   Cu240   2.035   .     S
N236   C247    1.373   .     A
Cu237  Cu238   2.708   .     S
Cu237  O320    1.971   1_455 S
Cu237  O315    1.971   1_455 S
Cu238  O317    1.971   1_455 S
Cu238  O314    1.971   1_455 S
Cu239  Cu240   2.708   .     S
C241   N338    1.373   .     S
C241   C1180   1.425   1_554 S
C241   N393    1.428   .     S
C242   N292    1.428   .     S
C242   N337    1.373   .     S
C242   C763    1.425   .     S
C243   N295    1.428   .     S
C243   C1178   1.425   1_454 S
C244   C761    1.425   1_455 S
C244   N402    1.428   1_455 S
C245   N301    1.428   .     S
C245   N28     1.373   1_565 S
C245   C1080   1.425   1_554 S
C246   N304    1.428   .     S
C246   C663    1.425   .     S
C247   N307    1.428   .     S
C247   C1078   1.425   1_554 S
C248   N310    1.428   .     S
C248   C661    1.425   .     S
C248   N27     1.373   1_565 S
C249   C282    1.399   .     A
C249   H265    1.078   .     S
C249   C259    1.384   .     A
C250   H266    1.078   .     S
C250   C281    1.400   .     A
C250   C260    1.384   .     A
C251   C281    1.399   .     A
C251   H267    1.077   .     S
C251   C257    1.384   .     A
C252   C282    1.399   .     A
C252   C258    1.384   .     A
C252   H268    1.077   .     S
C253   C284    1.399   .     A
C253   H269    1.078   .     S
C253   C263    1.384   .     A
C254   H270    1.078   .     S
C254   C283    1.400   .     A
C254   C264    1.384   .     A
C255   H271    1.077   .     S
C255   C261    1.384   .     A
C255   C283    1.399   .     A
C256   C284    1.399   .     A
C256   C262    1.384   .     A
C256   H272    1.077   .     S
C257   H273    1.078   .     S
C257   C286    1.399   .     A
C258   H274    1.078   .     S
C258   C285    1.399   .     A
C259   C285    1.399   .     A
C259   H275    1.077   .     S
C260   H276    1.077   .     S
C260   C286    1.399   .     A
C261   H277    1.078   .     S
C261   C288    1.399   .     A
C262   C287    1.399   .     A
C262   H278    1.078   .     S
C263   C287    1.399   .     A
C263   H279    1.077   .     S
C264   H280    1.077   .     S
C264   C288    1.399   .     A
N289   O291    1.298   .     A
N289   C345    1.428   1_455 S
N289   O394    1.298   1_455 S
O290   N393    1.298   .     S
N292   O294    1.298   .     A
N292   O397    1.298   .     S
O293   N396    1.298   1_455 S
N295   O297    1.298   .     A
N295   O400    1.298   1_455 S
O296   N399    1.298   .     S
N298   O300    1.298   .     A
N298   C348    1.428   .     S
N298   O403    1.298   .     S
O299   N402    1.298   1_455 S
N301   O302    1.298   .     A
N301   O303    1.298   .     A
N304   O306    1.298   .     A
N304   O305    1.298   .     A
N307   O308    1.298   .     A
N307   O309    1.298   .     A
N310   O312    1.298   .     A
N310   O311    1.298   .     A
O313   Cu341   1.971   .     S
O313   C329    1.302   .     A
O314   C330    1.302   .     A
O314   Cu238   1.971   1_655 S
O315   C330    1.302   .     A
O315   Cu237   1.971   1_655 S
O316   C329    1.302   .     A
O316   Cu342   1.971   .     S
O317   C331    1.302   .     A
O317   Cu238   1.971   1_655 S
O318   C332    1.302   .     A
O318   Cu341   1.971   .     S
O319   Cu342   1.971   .     S
O319   C332    1.302   .     A
O320   C331    1.302   .     A
O320   Cu237   1.971   1_655 S
O321   C333    1.302   .     A
O321   Cu135   1.971   1_565 S
O322   C334    1.302   .     A
O322   Cu344   1.971   .     S
O323   Cu343   1.971   .     S
O323   C334    1.302   .     A
O324   C333    1.302   .     A
O324   Cu136   1.971   1_565 S
O325   C335    1.302   .     A
O325   Cu136   1.971   1_565 S
O326   Cu343   1.971   .     S
O326   C336    1.302   .     A
O327   Cu344   1.971   .     S
O327   C336    1.302   .     A
O328   C335    1.302   .     A
O328   Cu135   1.971   1_565 S
C329   C388    1.458   .     S
C330   C387    1.458   .     S
C331   C386    1.458   .     S
C332   C385    1.458   .     S
C333   C392    1.458   .     S
C334   C391    1.458   .     S
C335   C390    1.458   .     S
C336   C389    1.458   .     S
N337   Cu341   2.035   .     S
N337   C348    1.373   .     A
N338   Cu342   2.035   .     S
N338   C347    1.373   .     A
N339   C350    1.373   .     A
N339   Cu343   2.035   .     S
N340   Cu344   2.035   .     S
N340   C351    1.373   .     A
Cu341  Cu342   2.708   .     S
Cu343  Cu344   2.708   .     S
C345   N234    1.373   1_655 S
C345   C1076   1.425   1_654 S
C345   N289    1.428   1_655 S
C346   N396    1.428   .     S
C346   N233    1.373   1_655 S
C346   C659    1.425   1_655 S
C347   N399    1.428   .     S
C347   C1074   1.425   1_554 S
C348   C657    1.425   .     S
C349   N405    1.428   .     S
C349   N132    1.373   1_565 S
C349   C1184   1.425   1_554 S
C350   N408    1.428   .     S
C350   C767    1.425   .     S
C351   N411    1.428   .     S
C351   C1182   1.425   1_554 S
C352   N414    1.428   .     S
C352   C765    1.425   .     S
C352   N131    1.373   1_565 S
C353   C386    1.399   .     A
C353   H369    1.078   .     S
C353   C363    1.384   .     A
C354   H370    1.078   .     S
C354   C385    1.400   .     A
C354   C364    1.384   .     A
C355   C385    1.399   .     A
C355   H371    1.077   .     S
C355   C361    1.384   .     A
C356   C386    1.399   .     A
C356   C362    1.384   .     A
C356   H372    1.077   .     S
C357   C388    1.399   .     A
C357   H373    1.078   .     S
C357   C367    1.384   .     A
C358   H374    1.078   .     S
C358   C387    1.400   .     A
C358   C368    1.384   .     A
C359   H375    1.077   .     S
C359   C365    1.384   .     A
C359   C387    1.399   .     A
C360   C388    1.399   .     A
C360   C366    1.384   .     A
C360   H376    1.077   .     S
C361   H377    1.078   .     S
C361   C390    1.399   .     A
C362   H378    1.078   .     S
C362   C389    1.399   .     A
C363   C389    1.399   .     A
C363   H379    1.077   .     S
C364   H380    1.077   .     S
C364   C390    1.399   .     A
C365   H381    1.078   .     S
C365   C392    1.399   .     A
C366   C391    1.399   .     A
C366   H382    1.078   .     S
C367   C391    1.399   .     A
C367   H383    1.077   .     S
C368   H384    1.077   .     S
C368   C392    1.399   .     A
N393   O395    1.298   .     A
O394   N289    1.298   1_655 S
N396   O398    1.298   .     A
N396   O293    1.298   1_655 S
N399   O401    1.298   .     A
O400   N295    1.298   1_655 S
N402   O404    1.298   .     A
N402   C244    1.428   1_655 S
N402   O299    1.298   1_655 S
N405   O406    1.298   .     A
N405   O407    1.298   .     A
N408   O410    1.298   .     A
N408   O409    1.298   .     A
N411   O412    1.298   .     A
N411   O413    1.298   .     A
N414   O416    1.298   .     A
N414   O415    1.298   .     A
O417   Cu445   1.971   .     S
O417   C433    1.302   .     A
O418   C434    1.302   .     A
O418   Cu550   1.971   .     S
O419   C434    1.302   .     A
O419   Cu549   1.971   .     S
O420   C433    1.302   .     A
O420   Cu446   1.971   .     S
O421   C435    1.302   .     A
O421   Cu550   1.971   .     S
O422   C436    1.302   .     A
O422   Cu445   1.971   .     S
O423   Cu446   1.971   .     S
O423   C436    1.302   .     A
O424   C435    1.302   .     A
O424   Cu549   1.971   .     S
O425   C437    1.302   .     A
O425   Cu655   1.971   .     S
O426   C438    1.302   .     A
O426   Cu448   1.971   .     S
O427   Cu447   1.971   .     S
O427   C438    1.302   .     A
O428   C437    1.302   .     A
O428   Cu656   1.971   .     S
O429   C439    1.302   .     A
O429   Cu656   1.971   .     S
O430   Cu447   1.971   .     S
O430   C440    1.302   .     A
O431   Cu448   1.971   .     S
O431   C440    1.302   .     A
O432   C439    1.302   .     A
O432   Cu655   1.971   .     S
C433   C492    1.458   .     S
C434   C491    1.458   .     S
C435   C490    1.458   .     S
C436   C489    1.458   .     S
C437   C496    1.458   .     S
C438   C495    1.458   .     S
C439   C494    1.458   .     S
C440   C493    1.458   .     S
N441   Cu445   2.035   .     S
N441   C452    1.373   .     A
N441   C554    1.373   1_455 S
N442   Cu446   2.035   .     S
N442   C451    1.373   .     A
N442   C553    1.373   1_455 S
N443   C454    1.373   .     A
N443   Cu447   2.035   .     S
N443   C664    1.373   1_545 S
N444   Cu448   2.035   .     S
N444   C455    1.373   .     A
N444   C661    1.373   1_545 S
Cu445  Cu446   2.708   .     S
Cu445  O528    1.971   1_455 S
Cu445  O523    1.971   1_455 S
Cu446  O525    1.971   1_455 S
Cu446  O522    1.971   1_455 S
Cu447  Cu448   2.708   .     S
Cu447  O640    1.971   1_545 S
Cu447  O633    1.971   1_545 S
Cu448  O637    1.971   1_545 S
Cu448  O636    1.971   1_545 S
C449   N546    1.373   .     S
C449   N601    1.428   .     S
C450   N500    1.428   .     S
C450   N545    1.373   .     S
C450   C971    1.425   .     S
C451   N503    1.428   .     S
C451   C138    1.425   1_455 S
C452   C969    1.425   1_455 S
C452   N610    1.428   1_455 S
C453   N509    1.428   .     S
C453   N652    1.373   .     S
C454   N512    1.428   .     S
C454   C871    1.425   .     S
C455   N515    1.428   .     S
C456   N518    1.428   .     S
C456   C869    1.425   .     S
C456   N651    1.373   .     S
C457   C490    1.399   .     A
C457   H473    1.078   .     S
C457   C467    1.384   .     A
C458   H474    1.078   .     S
C458   C489    1.400   .     A
C458   C468    1.384   .     A
C459   C489    1.399   .     A
C459   H475    1.077   .     S
C459   C465    1.384   .     A
C460   C490    1.399   .     A
C460   C466    1.384   .     A
C460   H476    1.077   .     S
C461   C492    1.399   .     A
C461   H477    1.078   .     S
C461   C471    1.384   .     A
C462   H478    1.078   .     S
C462   C491    1.400   .     A
C462   C472    1.384   .     A
C463   H479    1.077   .     S
C463   C469    1.384   .     A
C463   C491    1.399   .     A
C464   C492    1.399   .     A
C464   C470    1.384   .     A
C464   H480    1.077   .     S
C465   H481    1.078   .     S
C465   C494    1.399   .     A
C466   H482    1.078   .     S
C466   C493    1.399   .     A
C467   C493    1.399   .     A
C467   H483    1.077   .     S
C468   H484    1.077   .     S
C468   C494    1.399   .     A
C469   H485    1.078   .     S
C469   C496    1.399   .     A
C470   C495    1.399   .     A
C470   H486    1.078   .     S
C471   C495    1.399   .     A
C471   H487    1.077   .     S
C472   H488    1.077   .     S
C472   C496    1.399   .     A
N497   O499    1.298   .     A
N497   C553    1.428   1_455 S
N497   O602    1.298   1_455 S
O498   N601    1.298   .     S
N500   O502    1.298   .     A
N500   O605    1.298   .     S
O501   N604    1.298   1_455 S
N503   O505    1.298   .     A
N503   O608    1.298   1_455 S
O504   N607    1.298   .     S
N506   O508    1.298   .     A
N506   C556    1.428   .     S
N506   O611    1.298   .     S
O507   N610    1.298   1_455 S
N509   O510    1.298   .     A
N509   O511    1.298   .     A
N512   O514    1.298   .     A
N512   O513    1.298   .     A
N515   O516    1.298   .     A
N515   O517    1.298   .     A
N518   O520    1.298   .     A
N518   O519    1.298   .     A
O521   Cu549   1.971   .     S
O521   C537    1.302   .     A
O522   C538    1.302   .     A
O522   Cu446   1.971   1_655 S
O523   C538    1.302   .     A
O523   Cu445   1.971   1_655 S
O524   C537    1.302   .     A
O524   Cu550   1.971   .     S
O525   C539    1.302   .     A
O525   Cu446   1.971   1_655 S
O526   C540    1.302   .     A
O526   Cu549   1.971   .     S
O527   Cu550   1.971   .     S
O527   C540    1.302   .     A
O528   C539    1.302   .     A
O528   Cu445   1.971   1_655 S
O529   C541    1.302   .     A
O529   Cu759   1.971   .     S
O530   C542    1.302   .     A
O530   Cu552   1.971   .     S
O531   Cu551   1.971   .     S
O531   C542    1.302   .     A
O532   C541    1.302   .     A
O532   Cu760   1.971   .     S
O533   C543    1.302   .     A
O533   Cu760   1.971   .     S
O534   Cu551   1.971   .     S
O534   C544    1.302   .     A
O535   Cu552   1.971   .     S
O535   C544    1.302   .     A
O536   C543    1.302   .     A
O536   Cu759   1.971   .     S
C537   C596    1.458   .     S
C538   C595    1.458   .     S
C539   C594    1.458   .     S
C540   C593    1.458   .     S
C541   C600    1.458   .     S
C542   C599    1.458   .     S
C543   C598    1.458   .     S
C544   C597    1.458   .     S
N545   Cu549   2.035   .     S
N545   C556    1.373   .     A
N546   Cu550   2.035   .     S
N546   C555    1.373   .     A
N547   C558    1.373   .     A
N547   Cu551   2.035   .     S
N547   C768    1.373   1_545 S
N548   Cu552   2.035   .     S
N548   C559    1.373   .     A
N548   C765    1.373   1_545 S
Cu549  Cu550   2.708   .     S
Cu551  Cu552   2.708   .     S
Cu551  O744    1.971   1_545 S
Cu551  O737    1.971   1_545 S
Cu552  O741    1.971   1_545 S
Cu552  O740    1.971   1_545 S
C553   N442    1.373   1_655 S
C553   C36     1.425   1_655 S
C553   N497    1.428   1_655 S
C554   N604    1.428   .     S
C554   N441    1.373   1_655 S
C554   C867    1.425   1_655 S
C555   N607    1.428   .     S
C556   C865    1.425   .     S
C557   N613    1.428   .     S
C557   N756    1.373   .     S
C558   N616    1.428   .     S
C558   C975    1.425   .     S
C559   N619    1.428   .     S
C560   N622    1.428   .     S
C560   C973    1.425   .     S
C560   N755    1.373   .     S
C561   C594    1.399   .     A
C561   H577    1.078   .     S
C561   C571    1.384   .     A
C562   H578    1.078   .     S
C562   C593    1.400   .     A
C562   C572    1.384   .     A
C563   C593    1.399   .     A
C563   H579    1.077   .     S
C563   C569    1.384   .     A
C564   C594    1.399   .     A
C564   C570    1.384   .     A
C564   H580    1.077   .     S
C565   C596    1.399   .     A
C565   H581    1.078   .     S
C565   C575    1.384   .     A
C566   H582    1.078   .     S
C566   C595    1.400   .     A
C566   C576    1.384   .     A
C567   H583    1.077   .     S
C567   C573    1.384   .     A
C567   C595    1.399   .     A
C568   C596    1.399   .     A
C568   C574    1.384   .     A
C568   H584    1.077   .     S
C569   H585    1.078   .     S
C569   C598    1.399   .     A
C570   H586    1.078   .     S
C570   C597    1.399   .     A
C571   C597    1.399   .     A
C571   H587    1.077   .     S
C572   H588    1.077   .     S
C572   C598    1.399   .     A
C573   H589    1.078   .     S
C573   C600    1.399   .     A
C574   C599    1.399   .     A
C574   H590    1.078   .     S
C575   C599    1.399   .     A
C575   H591    1.077   .     S
C576   H592    1.077   .     S
C576   C600    1.399   .     A
N601   O603    1.298   .     A
O602   N497    1.298   1_655 S
N604   O606    1.298   .     A
N604   O501    1.298   1_655 S
N607   O609    1.298   .     A
O608   N503    1.298   1_655 S
N610   O612    1.298   .     A
N610   C452    1.428   1_655 S
N610   O507    1.298   1_655 S
N613   O614    1.298   .     A
N613   O615    1.298   .     A
N616   O618    1.298   .     A
N616   O617    1.298   .     A
N619   O620    1.298   .     A
N619   O621    1.298   .     A
N622   O624    1.298   .     A
N622   O623    1.298   .     A
O625   Cu653   1.971   .     S
O625   C641    1.302   .     A
O626   C642    1.302   .     A
O626   Cu758   1.971   .     S
O627   C642    1.302   .     A
O627   Cu757   1.971   .     S
O628   C641    1.302   .     A
O628   Cu654   1.971   .     S
O629   C643    1.302   .     A
O629   Cu758   1.971   .     S
O630   C644    1.302   .     A
O630   Cu653   1.971   .     S
O631   Cu654   1.971   .     S
O631   C644    1.302   .     A
O632   C643    1.302   .     A
O632   Cu757   1.971   .     S
O633   C645    1.302   .     A
O633   Cu447   1.971   1_565 S
O634   C646    1.302   .     A
O634   Cu656   1.971   .     S
O635   Cu655   1.971   .     S
O635   C646    1.302   .     A
O636   C645    1.302   .     A
O636   Cu448   1.971   1_565 S
O637   C647    1.302   .     A
O637   Cu448   1.971   1_565 S
O638   Cu655   1.971   .     S
O638   C648    1.302   .     A
O639   Cu656   1.971   .     S
O639   C648    1.302   .     A
O640   C647    1.302   .     A
O640   Cu447   1.971   1_565 S
C641   C700    1.458   .     S
C642   C699    1.458   .     S
C643   C698    1.458   .     S
C644   C697    1.458   .     S
C645   C704    1.458   .     S
C646   C703    1.458   .     S
C647   C702    1.458   .     S
C648   C701    1.458   .     S
N649   Cu653   2.035   .     S
N649   C660    1.373   .     A
N649   C762    1.373   1_455 S
N650   Cu654   2.035   .     S
N650   C659    1.373   .     A
N650   C761    1.373   1_455 S
N651   C662    1.373   .     A
N651   Cu655   2.035   .     S
N652   Cu656   2.035   .     S
N652   C663    1.373   .     A
Cu653  Cu654   2.708   .     S
Cu653  O736    1.971   1_455 S
Cu653  O731    1.971   1_455 S
Cu654  O733    1.971   1_455 S
Cu654  O730    1.971   1_455 S
Cu655  Cu656   2.708   .     S
C657   N754    1.373   .     S
C657   N809    1.428   .     S
C658   N708    1.428   .     S
C658   N753    1.373   .     S
C658   C1179   1.425   .     S
C659   N711    1.428   .     S
C659   C346    1.425   1_455 S
C660   C1177   1.425   1_455 S
C660   N818    1.428   1_455 S
C661   N717    1.428   .     S
C661   N444    1.373   1_565 S
C662   N720    1.428   .     S
C662   C1079   1.425   .     S
C663   N723    1.428   .     S
C664   N726    1.428   .     S
C664   C1077   1.425   .     S
C664   N443    1.373   1_565 S
C665   C698    1.399   .     A
C665   H681    1.078   .     S
C665   C675    1.384   .     A
C666   H682    1.078   .     S
C666   C697    1.400   .     A
C666   C676    1.384   .     A
C667   C697    1.399   .     A
C667   H683    1.077   .     S
C667   C673    1.384   .     A
C668   C698    1.399   .     A
C668   C674    1.384   .     A
C668   H684    1.077   .     S
C669   C700    1.399   .     A
C669   H685    1.078   .     S
C669   C679    1.384   .     A
C670   H686    1.078   .     S
C670   C699    1.400   .     A
C670   C680    1.384   .     A
C671   H687    1.077   .     S
C671   C677    1.384   .     A
C671   C699    1.399   .     A
C672   C700    1.399   .     A
C672   C678    1.384   .     A
C672   H688    1.077   .     S
C673   H689    1.078   .     S
C673   C702    1.399   .     A
C674   H690    1.078   .     S
C674   C701    1.399   .     A
C675   C701    1.399   .     A
C675   H691    1.077   .     S
C676   H692    1.077   .     S
C676   C702    1.399   .     A
C677   H693    1.078   .     S
C677   C704    1.399   .     A
C678   C703    1.399   .     A
C678   H694    1.078   .     S
C679   C703    1.399   .     A
C679   H695    1.077   .     S
C680   H696    1.077   .     S
C680   C704    1.399   .     A
N705   O707    1.298   .     A
N705   C761    1.428   1_455 S
N705   O810    1.298   1_455 S
O706   N809    1.298   .     S
N708   O710    1.298   .     A
N708   O813    1.298   .     S
O709   N812    1.298   1_455 S
N711   O713    1.298   .     A
N711   O816    1.298   1_455 S
O712   N815    1.298   .     S
N714   O716    1.298   .     A
N714   C764    1.428   .     S
N714   O819    1.298   .     S
O715   N818    1.298   1_455 S
N717   O718    1.298   .     A
N717   O719    1.298   .     A
N720   O722    1.298   .     A
N720   O721    1.298   .     A
N723   O724    1.298   .     A
N723   O725    1.298   .     A
N726   O728    1.298   .     A
N726   O727    1.298   .     A
O729   Cu757   1.971   .     S
O729   C745    1.302   .     A
O730   C746    1.302   .     A
O730   Cu654   1.971   1_655 S
O731   C746    1.302   .     A
O731   Cu653   1.971   1_655 S
O732   C745    1.302   .     A
O732   Cu758   1.971   .     S
O733   C747    1.302   .     A
O733   Cu654   1.971   1_655 S
O734   C748    1.302   .     A
O734   Cu757   1.971   .     S
O735   Cu758   1.971   .     S
O735   C748    1.302   .     A
O736   C747    1.302   .     A
O736   Cu653   1.971   1_655 S
O737   C749    1.302   .     A
O737   Cu551   1.971   1_565 S
O738   C750    1.302   .     A
O738   Cu760   1.971   .     S
O739   Cu759   1.971   .     S
O739   C750    1.302   .     A
O740   C749    1.302   .     A
O740   Cu552   1.971   1_565 S
O741   C751    1.302   .     A
O741   Cu552   1.971   1_565 S
O742   Cu759   1.971   .     S
O742   C752    1.302   .     A
O743   Cu760   1.971   .     S
O743   C752    1.302   .     A
O744   C751    1.302   .     A
O744   Cu551   1.971   1_565 S
C745   C804    1.458   .     S
C746   C803    1.458   .     S
C747   C802    1.458   .     S
C748   C801    1.458   .     S
C749   C808    1.458   .     S
C750   C807    1.458   .     S
C751   C806    1.458   .     S
C752   C805    1.458   .     S
N753   Cu757   2.035   .     S
N753   C764    1.373   .     A
N754   Cu758   2.035   .     S
N754   C763    1.373   .     A
N755   C766    1.373   .     A
N755   Cu759   2.035   .     S
N756   Cu760   2.035   .     S
N756   C767    1.373   .     A
Cu757  Cu758   2.708   .     S
Cu759  Cu760   2.708   .     S
C761   N650    1.373   1_655 S
C761   C244    1.425   1_655 S
C761   N705    1.428   1_655 S
C762   N812    1.428   .     S
C762   N649    1.373   1_655 S
C762   C1075   1.425   1_655 S
C763   N815    1.428   .     S
C764   C1073   1.425   .     S
C765   N821    1.428   .     S
C765   N548    1.373   1_565 S
C766   N824    1.428   .     S
C766   C1183   1.425   .     S
C767   N827    1.428   .     S
C768   N830    1.428   .     S
C768   C1181   1.425   .     S
C768   N547    1.373   1_565 S
C769   C802    1.399   .     A
C769   H785    1.078   .     S
C769   C779    1.384   .     A
C770   H786    1.078   .     S
C770   C801    1.400   .     A
C770   C780    1.384   .     A
C771   C801    1.399   .     A
C771   H787    1.077   .     S
C771   C777    1.384   .     A
C772   C802    1.399   .     A
C772   C778    1.384   .     A
C772   H788    1.077   .     S
C773   C804    1.399   .     A
C773   H789    1.078   .     S
C773   C783    1.384   .     A
C774   H790    1.078   .     S
C774   C803    1.400   .     A
C774   C784    1.384   .     A
C775   H791    1.077   .     S
C775   C781    1.384   .     A
C775   C803    1.399   .     A
C776   C804    1.399   .     A
C776   C782    1.384   .     A
C776   H792    1.077   .     S
C777   H793    1.078   .     S
C777   C806    1.399   .     A
C778   H794    1.078   .     S
C778   C805    1.399   .     A
C779   C805    1.399   .     A
C779   H795    1.077   .     S
C780   H796    1.077   .     S
C780   C806    1.399   .     A
C781   H797    1.078   .     S
C781   C808    1.399   .     A
C782   C807    1.399   .     A
C782   H798    1.078   .     S
C783   C807    1.399   .     A
C783   H799    1.077   .     S
C784   H800    1.077   .     S
C784   C808    1.399   .     A
N809   O811    1.298   .     A
O810   N705    1.298   1_655 S
N812   O814    1.298   .     A
N812   O709    1.298   1_655 S
N815   O817    1.298   .     A
O816   N711    1.298   1_655 S
N818   O820    1.298   .     A
N818   C660    1.428   1_655 S
N818   O715    1.298   1_655 S
N821   O822    1.298   .     A
N821   O823    1.298   .     A
N824   O826    1.298   .     A
N824   O825    1.298   .     A
N827   O828    1.298   .     A
N827   O829    1.298   .     A
N830   O832    1.298   .     A
N830   O831    1.298   .     A
O833   Cu861   1.971   .     S
O833   C849    1.302   .     A
O834   C850    1.302   .     A
O834   Cu966   1.971   .     S
O835   C850    1.302   .     A
O835   Cu965   1.971   .     S
O836   C849    1.302   .     A
O836   Cu862   1.971   .     S
O837   C851    1.302   .     A
O837   Cu966   1.971   .     S
O838   C852    1.302   .     A
O838   Cu861   1.971   .     S
O839   Cu862   1.971   .     S
O839   C852    1.302   .     A
O840   C851    1.302   .     A
O840   Cu965   1.971   .     S
O841   C853    1.302   .     A
O841   Cu1071  1.971   .     S
O842   C854    1.302   .     A
O842   Cu864   1.971   .     S
O843   Cu863   1.971   .     S
O843   C854    1.302   .     A
O844   C853    1.302   .     A
O844   Cu1072  1.971   .     S
O845   C855    1.302   .     A
O845   Cu1072  1.971   .     S
O846   Cu863   1.971   .     S
O846   C856    1.302   .     A
O847   Cu864   1.971   .     S
O847   C856    1.302   .     A
O848   C855    1.302   .     A
O848   Cu1071  1.971   .     S
C849   C908    1.458   .     S
C850   C907    1.458   .     S
C851   C906    1.458   .     S
C852   C905    1.458   .     S
C853   C912    1.458   .     S
C854   C911    1.458   .     S
C855   C910    1.458   .     S
C856   C909    1.458   .     S
N857   Cu861   2.035   .     S
N857   C868    1.373   .     A
N857   C970    1.373   1_455 S
N858   Cu862   2.035   .     S
N858   C867    1.373   .     A
N858   C969    1.373   1_455 S
N859   C870    1.373   .     A
N859   Cu863   2.035   .     S
N859   C1080   1.373   1_545 S
N860   Cu864   2.035   .     S
N860   C871    1.373   .     A
N860   C1077   1.373   1_545 S
Cu861  Cu862   2.708   .     S
Cu861  O944    1.971   1_455 S
Cu861  O939    1.971   1_455 S
Cu862  O941    1.971   1_455 S
Cu862  O938    1.971   1_455 S
Cu863  Cu864   2.708   .     S
Cu863  O1056   1.971   1_545 S
Cu863  O1049   1.971   1_545 S
Cu864  O1053   1.971   1_545 S
Cu864  O1052   1.971   1_545 S
C865   N962    1.373   .     S
C865   N1017   1.428   .     S
C866   N916    1.428   .     S
C866   N961    1.373   .     S
C866   C139    1.425   1_556 S
C867   N919    1.428   .     S
C867   C554    1.425   1_455 S
C868   C137    1.425   1_456 S
C868   N1026   1.428   1_455 S
C869   N925    1.428   .     S
C869   N1068   1.373   .     S
C870   N928    1.428   .     S
C870   C39     1.425   1_556 S
C871   N931    1.428   .     S
C872   N934    1.428   .     S
C872   C37     1.425   1_556 S
C872   N1067   1.373   .     S
C873   C906    1.399   .     A
C873   H889    1.078   .     S
C873   C883    1.384   .     A
C874   H890    1.078   .     S
C874   C905    1.400   .     A
C874   C884    1.384   .     A
C875   C905    1.399   .     A
C875   H891    1.077   .     S
C875   C881    1.384   .     A
C876   C906    1.399   .     A
C876   C882    1.384   .     A
C876   H892    1.077   .     S
C877   C908    1.399   .     A
C877   H893    1.078   .     S
C877   C887    1.384   .     A
C878   H894    1.078   .     S
C878   C907    1.400   .     A
C878   C888    1.384   .     A
C879   H895    1.077   .     S
C879   C885    1.384   .     A
C879   C907    1.399   .     A
C880   C908    1.399   .     A
C880   C886    1.384   .     A
C880   H896    1.077   .     S
C881   H897    1.078   .     S
C881   C910    1.399   .     A
C882   H898    1.078   .     S
C882   C909    1.399   .     A
C883   C909    1.399   .     A
C883   H899    1.077   .     S
C884   H900    1.077   .     S
C884   C910    1.399   .     A
C885   H901    1.078   .     S
C885   C912    1.399   .     A
C886   C911    1.399   .     A
C886   H902    1.078   .     S
C887   C911    1.399   .     A
C887   H903    1.077   .     S
C888   H904    1.077   .     S
C888   C912    1.399   .     A
N913   O915    1.298   .     A
N913   C969    1.428   1_455 S
N913   O1018   1.298   1_455 S
O914   N1017   1.298   .     S
N916   O918    1.298   .     A
N916   O1021   1.298   .     S
O917   N1020   1.298   1_455 S
N919   O921    1.298   .     A
N919   O1024   1.298   1_455 S
O920   N1023   1.298   .     S
N922   O924    1.298   .     A
N922   C972    1.428   .     S
N922   O1027   1.298   .     S
O923   N1026   1.298   1_455 S
N925   O926    1.298   .     A
N925   O927    1.298   .     A
N928   O930    1.298   .     A
N928   O929    1.298   .     A
N931   O932    1.298   .     A
N931   O933    1.298   .     A
N934   O936    1.298   .     A
N934   O935    1.298   .     A
O937   Cu965   1.971   .     S
O937   C953    1.302   .     A
O938   C954    1.302   .     A
O938   Cu862   1.971   1_655 S
O939   C954    1.302   .     A
O939   Cu861   1.971   1_655 S
O940   C953    1.302   .     A
O940   Cu966   1.971   .     S
O941   C955    1.302   .     A
O941   Cu862   1.971   1_655 S
O942   C956    1.302   .     A
O942   Cu965   1.971   .     S
O943   Cu966   1.971   .     S
O943   C956    1.302   .     A
O944   C955    1.302   .     A
O944   Cu861   1.971   1_655 S
O945   C957    1.302   .     A
O945   Cu1175  1.971   .     S
O946   C958    1.302   .     A
O946   Cu968   1.971   .     S
O947   Cu967   1.971   .     S
O947   C958    1.302   .     A
O948   C957    1.302   .     A
O948   Cu1176  1.971   .     S
O949   C959    1.302   .     A
O949   Cu1176  1.971   .     S
O950   Cu967   1.971   .     S
O950   C960    1.302   .     A
O951   Cu968   1.971   .     S
O951   C960    1.302   .     A
O952   C959    1.302   .     A
O952   Cu1175  1.971   .     S
C953   C1012   1.458   .     S
C954   C1011   1.458   .     S
C955   C1010   1.458   .     S
C956   C1009   1.458   .     S
C957   C1016   1.458   .     S
C958   C1015   1.458   .     S
C959   C1014   1.458   .     S
C960   C1013   1.458   .     S
N961   Cu965   2.035   .     S
N961   C972    1.373   .     A
N962   Cu966   2.035   .     S
N962   C971    1.373   .     A
N963   C974    1.373   .     A
N963   Cu967   2.035   .     S
N963   C1184   1.373   1_545 S
N964   Cu968   2.035   .     S
N964   C975    1.373   .     A
N964   C1181   1.373   1_545 S
Cu965  Cu966   2.708   .     S
Cu967  Cu968   2.708   .     S
Cu967  O1160   1.971   1_545 S
Cu967  O1153   1.971   1_545 S
Cu968  O1157   1.971   1_545 S
Cu968  O1156   1.971   1_545 S
C969   N858    1.373   1_655 S
C969   C452    1.425   1_655 S
C969   N913    1.428   1_655 S
C970   N1020   1.428   .     S
C970   N857    1.373   1_655 S
C970   C35     1.425   1_656 S
C971   N1023   1.428   .     S
C972   C33     1.425   1_556 S
C973   N1029   1.428   .     S
C973   N1172   1.373   .     S
C974   N1032   1.428   .     S
C974   C143    1.425   1_556 S
C975   N1035   1.428   .     S
C976   N1038   1.428   .     S
C976   C141    1.425   1_556 S
C976   N1171   1.373   .     S
C977   C1010   1.399   .     A
C977   H993    1.078   .     S
C977   C987    1.384   .     A
C978   H994    1.078   .     S
C978   C1009   1.400   .     A
C978   C988    1.384   .     A
C979   C1009   1.399   .     A
C979   H995    1.077   .     S
C979   C985    1.384   .     A
C980   C1010   1.399   .     A
C980   C986    1.384   .     A
C980   H996    1.077   .     S
C981   C1012   1.399   .     A
C981   H997    1.078   .     S
C981   C991    1.384   .     A
C982   H998    1.078   .     S
C982   C1011   1.400   .     A
C982   C992    1.384   .     A
C983   H999    1.077   .     S
C983   C989    1.384   .     A
C983   C1011   1.399   .     A
C984   C1012   1.399   .     A
C984   C990    1.384   .     A
C984   H1000   1.077   .     S
C985   H1001   1.078   .     S
C985   C1014   1.399   .     A
C986   H1002   1.078   .     S
C986   C1013   1.399   .     A
C987   C1013   1.399   .     A
C987   H1003   1.077   .     S
C988   H1004   1.077   .     S
C988   C1014   1.399   .     A
C989   H1005   1.078   .     S
C989   C1016   1.399   .     A
C990   C1015   1.399   .     A
C990   H1006   1.078   .     S
C991   C1015   1.399   .     A
C991   H1007   1.077   .     S
C992   H1008   1.077   .     S
C992   C1016   1.399   .     A
N1017  O1019   1.298   .     A
O1018  N913    1.298   1_655 S
N1020  O1022   1.298   .     A
N1020  O917    1.298   1_655 S
N1023  O1025   1.298   .     A
O1024  N919    1.298   1_655 S
N1026  O1028   1.298   .     A
N1026  C868    1.428   1_655 S
N1026  O923    1.298   1_655 S
N1029  O1030   1.298   .     A
N1029  O1031   1.298   .     A
N1032  O1034   1.298   .     A
N1032  O1033   1.298   .     A
N1035  O1036   1.298   .     A
N1035  O1037   1.298   .     A
N1038  O1040   1.298   .     A
N1038  O1039   1.298   .     A
O1041  Cu1069  1.971   .     S
O1041  C1057   1.302   .     A
O1042  C1058   1.302   .     A
O1042  Cu1174  1.971   .     S
O1043  C1058   1.302   .     A
O1043  Cu1173  1.971   .     S
O1044  C1057   1.302   .     A
O1044  Cu1070  1.971   .     S
O1045  C1059   1.302   .     A
O1045  Cu1174  1.971   .     S
O1046  C1060   1.302   .     A
O1046  Cu1069  1.971   .     S
O1047  Cu1070  1.971   .     S
O1047  C1060   1.302   .     A
O1048  C1059   1.302   .     A
O1048  Cu1173  1.971   .     S
O1049  C1061   1.302   .     A
O1049  Cu863   1.971   1_565 S
O1050  C1062   1.302   .     A
O1050  Cu1072  1.971   .     S
O1051  Cu1071  1.971   .     S
O1051  C1062   1.302   .     A
O1052  C1061   1.302   .     A
O1052  Cu864   1.971   1_565 S
O1053  C1063   1.302   .     A
O1053  Cu864   1.971   1_565 S
O1054  Cu1071  1.971   .     S
O1054  C1064   1.302   .     A
O1055  Cu1072  1.971   .     S
O1055  C1064   1.302   .     A
O1056  C1063   1.302   .     A
O1056  Cu863   1.971   1_565 S
C1057  C1116   1.458   .     S
C1058  C1115   1.458   .     S
C1059  C1114   1.458   .     S
C1060  C1113   1.458   .     S
C1061  C1120   1.458   .     S
C1062  C1119   1.458   .     S
C1063  C1118   1.458   .     S
C1064  C1117   1.458   .     S
N1065  Cu1069  2.035   .     S
N1065  C1076   1.373   .     A
N1065  C1178   1.373   1_455 S
N1066  Cu1070  2.035   .     S
N1066  C1075   1.373   .     A
N1066  C1177   1.373   1_455 S
N1067  C1078   1.373   .     A
N1067  Cu1071  2.035   .     S
N1068  Cu1072  2.035   .     S
N1068  C1079   1.373   .     A
Cu1069 Cu1070  2.708   .     S
Cu1069 O1152   1.971   1_455 S
Cu1069 O1147   1.971   1_455 S
Cu1070 O1149   1.971   1_455 S
Cu1070 O1146   1.971   1_455 S
Cu1071 Cu1072  2.708   .     S
C1073  N1170   1.373   .     S
C1073  N1225   1.428   .     S
C1074  N1124   1.428   .     S
C1074  N1169   1.373   .     S
C1074  C347    1.425   1_556 S
C1075  N1127   1.428   .     S
C1075  C762    1.425   1_455 S
C1076  C345    1.425   1_456 S
C1076  N1234   1.428   1_455 S
C1077  N1133   1.428   .     S
C1077  N860    1.373   1_565 S
C1078  N1136   1.428   .     S
C1078  C247    1.425   1_556 S
C1079  N1139   1.428   .     S
C1080  N1142   1.428   .     S
C1080  C245    1.425   1_556 S
C1080  N859    1.373   1_565 S
C1081  C1114   1.399   .     A
C1081  H1097   1.078   .     S
C1081  C1091   1.384   .     A
C1082  H1098   1.078   .     S
C1082  C1113   1.400   .     A
C1082  C1092   1.384   .     A
C1083  C1113   1.399   .     A
C1083  H1099   1.077   .     S
C1083  C1089   1.384   .     A
C1084  C1114   1.399   .     A
C1084  C1090   1.384   .     A
C1084  H1100   1.077   .     S
C1085  C1116   1.399   .     A
C1085  H1101   1.078   .     S
C1085  C1095   1.384   .     A
C1086  H1102   1.078   .     S
C1086  C1115   1.400   .     A
C1086  C1096   1.384   .     A
C1087  H1103   1.077   .     S
C1087  C1093   1.384   .     A
C1087  C1115   1.399   .     A
C1088  C1116   1.399   .     A
C1088  C1094   1.384   .     A
C1088  H1104   1.077   .     S
C1089  H1105   1.078   .     S
C1089  C1118   1.399   .     A
C1090  H1106   1.078   .     S
C1090  C1117   1.399   .     A
C1091  C1117   1.399   .     A
C1091  H1107   1.077   .     S
C1092  H1108   1.077   .     S
C1092  C1118   1.399   .     A
C1093  H1109   1.078   .     S
C1093  C1120   1.399   .     A
C1094  C1119   1.399   .     A
C1094  H1110   1.078   .     S
C1095  C1119   1.399   .     A
C1095  H1111   1.077   .     S
C1096  H1112   1.077   .     S
C1096  C1120   1.399   .     A
N1121  O1123   1.298   .     A
N1121  C1177   1.428   1_455 S
N1121  O1226   1.298   1_455 S
O1122  N1225   1.298   .     S
N1124  O1126   1.298   .     A
N1124  O1229   1.298   .     S
O1125  N1228   1.298   1_455 S
N1127  O1129   1.298   .     A
N1127  O1232   1.298   1_455 S
O1128  N1231   1.298   .     S
N1130  O1132   1.298   .     A
N1130  C1180   1.428   .     S
N1130  O1235   1.298   .     S
O1131  N1234   1.298   1_455 S
N1133  O1134   1.298   .     A
N1133  O1135   1.298   .     A
N1136  O1138   1.298   .     A
N1136  O1137   1.298   .     A
N1139  O1140   1.298   .     A
N1139  O1141   1.298   .     A
N1142  O1144   1.298   .     A
N1142  O1143   1.298   .     A
O1145  Cu1173  1.971   .     S
O1145  C1161   1.302   .     A
O1146  C1162   1.302   .     A
O1146  Cu1070  1.971   1_655 S
O1147  C1162   1.302   .     A
O1147  Cu1069  1.971   1_655 S
O1148  C1161   1.302   .     A
O1148  Cu1174  1.971   .     S
O1149  C1163   1.302   .     A
O1149  Cu1070  1.971   1_655 S
O1150  C1164   1.302   .     A
O1150  Cu1173  1.971   .     S
O1151  Cu1174  1.971   .     S
O1151  C1164   1.302   .     A
O1152  C1163   1.302   .     A
O1152  Cu1069  1.971   1_655 S
O1153  C1165   1.302   .     A
O1153  Cu967   1.971   1_565 S
O1154  C1166   1.302   .     A
O1154  Cu1176  1.971   .     S
O1155  Cu1175  1.971   .     S
O1155  C1166   1.302   .     A
O1156  C1165   1.302   .     A
O1156  Cu968   1.971   1_565 S
O1157  C1167   1.302   .     A
O1157  Cu968   1.971   1_565 S
O1158  Cu1175  1.971   .     S
O1158  C1168   1.302   .     A
O1159  Cu1176  1.971   .     S
O1159  C1168   1.302   .     A
O1160  C1167   1.302   .     A
O1160  Cu967   1.971   1_565 S
C1161  C1220   1.458   .     S
C1162  C1219   1.458   .     S
C1163  C1218   1.458   .     S
C1164  C1217   1.458   .     S
C1165  C1224   1.458   .     S
C1166  C1223   1.458   .     S
C1167  C1222   1.458   .     S
C1168  C1221   1.458   .     S
N1169  Cu1173  2.035   .     S
N1169  C1180   1.373   .     A
N1170  Cu1174  2.035   .     S
N1170  C1179   1.373   .     A
N1171  C1182   1.373   .     A
N1171  Cu1175  2.035   .     S
N1172  Cu1176  2.035   .     S
N1172  C1183   1.373   .     A
Cu1173 Cu1174  2.708   .     S
Cu1175 Cu1176  2.708   .     S
C1177  N1066   1.373   1_655 S
C1177  C660    1.425   1_655 S
C1177  N1121   1.428   1_655 S
C1178  N1228   1.428   .     S
C1178  N1065   1.373   1_655 S
C1178  C243    1.425   1_656 S
C1179  N1231   1.428   .     S
C1180  C241    1.425   1_556 S
C1181  N1237   1.428   .     S
C1181  N964    1.373   1_565 S
C1182  N1240   1.428   .     S
C1182  C351    1.425   1_556 S
C1183  N1243   1.428   .     S
C1184  N1246   1.428   .     S
C1184  C349    1.425   1_556 S
C1184  N963    1.373   1_565 S
C1185  C1218   1.399   .     A
C1185  H1201   1.078   .     S
C1185  C1195   1.384   .     A
C1186  H1202   1.078   .     S
C1186  C1217   1.400   .     A
C1186  C1196   1.384   .     A
C1187  C1217   1.399   .     A
C1187  H1203   1.077   .     S
C1187  C1193   1.384   .     A
C1188  C1218   1.399   .     A
C1188  C1194   1.384   .     A
C1188  H1204   1.077   .     S
C1189  C1220   1.399   .     A
C1189  H1205   1.078   .     S
C1189  C1199   1.384   .     A
C1190  H1206   1.078   .     S
C1190  C1219   1.400   .     A
C1190  C1200   1.384   .     A
C1191  H1207   1.077   .     S
C1191  C1197   1.384   .     A
C1191  C1219   1.399   .     A
C1192  C1220   1.399   .     A
C1192  C1198   1.384   .     A
C1192  H1208   1.077   .     S
C1193  H1209   1.078   .     S
C1193  C1222   1.399   .     A
C1194  H1210   1.078   .     S
C1194  C1221   1.399   .     A
C1195  C1221   1.399   .     A
C1195  H1211   1.077   .     S
C1196  H1212   1.077   .     S
C1196  C1222   1.399   .     A
C1197  H1213   1.078   .     S
C1197  C1224   1.399   .     A
C1198  C1223   1.399   .     A
C1198  H1214   1.078   .     S
C1199  C1223   1.399   .     A
C1199  H1215   1.077   .     S
C1200  H1216   1.077   .     S
C1200  C1224   1.399   .     A
N1225  O1227   1.298   .     A
O1226  N1121   1.298   1_655 S
N1228  O1230   1.298   .     A
N1228  O1125   1.298   1_655 S
N1231  O1233   1.298   .     A
O1232  N1127   1.298   1_655 S
N1234  O1236   1.298   .     A
N1234  C1076   1.428   1_655 S
N1234  O1131   1.298   1_655 S
N1237  O1238   1.298   .     A
N1237  O1239   1.298   .     A
N1240  O1242   1.298   .     A
N1240  O1241   1.298   .     A
N1243  O1244   1.298   .     A
N1243  O1245   1.298   .     A
N1246  O1248   1.298   .     A
N1246  O1247   1.298   .     A
