data_str_m2_o1_o17_pcu_sym.106
_audit_creation_date              2020-01-03
_audit_creation_method            'Materials Studio'
_symmetry_space_group_name_H-M    'P1'
_symmetry_Int_Tables_number       1
_symmetry_cell_setting            triclinic
loop_
_symmetry_equiv_pos_as_xyz
  x,y,z
_cell_length_a                    32.4968
_cell_length_b                    28.5333
_cell_length_c                    30.1700
_cell_angle_alpha                 89.9877
_cell_angle_beta                  90.1769
_cell_angle_gamma                 90.0054
loop_
_atom_site_label
_atom_site_type_symbol
_atom_site_fract_x
_atom_site_fract_y
_atom_site_fract_z
_atom_site_U_iso_or_equiv
_atom_site_adp_type
_atom_site_occupancy
C1     C     0.08738   0.16667   0.24997   0.00000  Uiso   1.00
C2     C     0.24596   0.16667   0.25003   0.00000  Uiso   1.00
C3     C     0.15604   0.25139   0.02288   0.00000  Uiso   1.00
C4     C     0.17729   0.08195   0.47712   0.00000  Uiso   1.00
C5     C     0.02124   0.12886   0.23128   0.00000  Uiso   1.00
C6     C     0.31209   0.20447   0.26872   0.00000  Uiso   1.00
C7     C     0.31197   0.12886   0.23131   0.00000  Uiso   1.00
C8     C     0.02137   0.20447   0.26869   0.00000  Uiso   1.00
C9     C     0.29055   0.16666   0.25003   0.00000  Uiso   1.00
C10    C     0.04278   0.16667   0.24997   0.00000  Uiso   1.00
C11    C     0.14176   0.02482   0.22170   0.00000  Uiso   1.00
C12    C     0.19157   0.30852   0.27830   0.00000  Uiso   1.00
C13    C     0.19158   0.02481   0.27830   0.00000  Uiso   1.00
C14    C     0.14176   0.30852   0.22170   0.00000  Uiso   1.00
C15    C     0.16661   0.16667   0.16427   0.00000  Uiso   1.00
C16    C     0.16672   0.16666   0.33573   0.00000  Uiso   1.00
C17    C     0.17192   0.12442   0.40734   0.00000  Uiso   1.00
C18    C     0.16141   0.20892   0.09266   0.00000  Uiso   1.00
C19    C     0.16678   0.16664   0.38416   0.00000  Uiso   1.00
C20    C     0.16656   0.16669   0.11584   0.00000  Uiso   1.00
C21    C     0.16165   0.20883   0.40730   0.00000  Uiso   1.00
C22    C     0.17168   0.12450   0.09270   0.00000  Uiso   1.00
C23    C     0.16149   0.20910   0.45347   0.00000  Uiso   1.00
C24    C     0.17184   0.12423   0.04653   0.00000  Uiso   1.00
C25    C     0.16671   0.16661   0.47675   0.00000  Uiso   1.00
C26    C     0.16662   0.16673   0.02325   0.00000  Uiso   1.00
C27    C     0.17200   0.12402   0.45359   0.00000  Uiso   1.00
C28    C     0.16133   0.20931   0.04641   0.00000  Uiso   1.00
C29    C     0.15614   0.25117   0.47668   0.00000  Uiso   1.00
C30    C     0.17719   0.08216   0.02332   0.00000  Uiso   1.00
Cu31   Cu    0.16667   0.21355   0.25000   0.00000  Uiso   1.00
Cu32   Cu    0.16667   0.11978   0.25000   0.00000  Uiso   1.00
H33    H     0.15756   0.24149   0.38944   0.00000  Uiso   1.00
H34    H     0.17577   0.09184   0.11056   0.00000  Uiso   1.00
N35    N     0.16667   0.28402   0.25000   0.00000  Uiso   1.00
N36    N     0.16667   0.04931   0.25000   0.00000  Uiso   1.00
O37    O     0.10655   0.20625   0.25000   0.00000  Uiso   1.00
O38    O     0.22679   0.12709   0.25001   0.00000  Uiso   1.00
O39    O     0.22679   0.20625   0.25001   0.00000  Uiso   1.00
O40    O     0.10655   0.12709   0.25000   0.00000  Uiso   1.00
O41    O     0.16666   0.20627   0.18513   0.00000  Uiso   1.00
O42    O     0.16668   0.12707   0.31487   0.00000  Uiso   1.00
O43    O     0.16668   0.20627   0.31487   0.00000  Uiso   1.00
O44    O     0.16666   0.12707   0.18513   0.00000  Uiso   1.00
H45    H     0.17603   0.09189   0.38934   0.00000  Uiso   1.00
H46    H     0.15730   0.24144   0.11066   0.00000  Uiso   1.00
H47    H     0.15196   0.28391   0.45903   0.00000  Uiso   1.00
H48    H     0.18138   0.04943   0.04097   0.00000  Uiso   1.00
F49    F     0.15069   0.29266   0.04450   0.00000  Uiso   1.00
F50    F     0.18264   0.04067   0.45550   0.00000  Uiso   1.00
F51    F     0.04131   0.09249   0.21193   0.00000  Uiso   1.00
F52    F     0.29203   0.24084   0.28807   0.00000  Uiso   1.00
F53    F     0.29176   0.09247   0.21200   0.00000  Uiso   1.00
F54    F     0.04157   0.24086   0.28800   0.00000  Uiso   1.00
H55    H     0.12182   0.04354   0.19903   0.00000  Uiso   1.00
H56    H     0.21151   0.28979   0.30097   0.00000  Uiso   1.00
H57    H     0.21153   0.04353   0.30095   0.00000  Uiso   1.00
H58    H     0.12180   0.28980   0.19905   0.00000  Uiso   1.00
C59    C     0.42071   0.16667   0.24997   0.00000  Uiso   1.00
C60    C     0.57929   0.16667   0.25003   0.00000  Uiso   1.00
C61    C     0.48938   0.25139   0.02288   0.00000  Uiso   1.00
C62    C     0.51062   0.08195   0.47712   0.00000  Uiso   1.00
C63    C     0.35457   0.12886   0.23128   0.00000  Uiso   1.00
C64    C     0.64543   0.20447   0.26872   0.00000  Uiso   1.00
C65    C     0.64530   0.12886   0.23131   0.00000  Uiso   1.00
C66    C     0.35470   0.20447   0.26869   0.00000  Uiso   1.00
C67    C     0.62389   0.16666   0.25003   0.00000  Uiso   1.00
C68    C     0.37611   0.16667   0.24997   0.00000  Uiso   1.00
C69    C     0.47509   0.02482   0.22170   0.00000  Uiso   1.00
C70    C     0.52490   0.30852   0.27830   0.00000  Uiso   1.00
C71    C     0.52491   0.02481   0.27830   0.00000  Uiso   1.00
C72    C     0.47509   0.30852   0.22170   0.00000  Uiso   1.00
C73    C     0.49994   0.16667   0.16427   0.00000  Uiso   1.00
C74    C     0.50006   0.16666   0.33573   0.00000  Uiso   1.00
C75    C     0.50525   0.12442   0.40734   0.00000  Uiso   1.00
C76    C     0.49475   0.20892   0.09266   0.00000  Uiso   1.00
C77    C     0.50011   0.16664   0.38416   0.00000  Uiso   1.00
C78    C     0.49989   0.16669   0.11584   0.00000  Uiso   1.00
C79    C     0.49498   0.20883   0.40730   0.00000  Uiso   1.00
C80    C     0.50502   0.12450   0.09270   0.00000  Uiso   1.00
C81    C     0.49483   0.20910   0.45347   0.00000  Uiso   1.00
C82    C     0.50517   0.12423   0.04653   0.00000  Uiso   1.00
C83    C     0.50004   0.16661   0.47675   0.00000  Uiso   1.00
C84    C     0.49996   0.16673   0.02325   0.00000  Uiso   1.00
C85    C     0.50533   0.12402   0.45359   0.00000  Uiso   1.00
C86    C     0.49467   0.20931   0.04641   0.00000  Uiso   1.00
C87    C     0.48947   0.25117   0.47668   0.00000  Uiso   1.00
C88    C     0.51053   0.08216   0.02332   0.00000  Uiso   1.00
Cu89   Cu    0.50000   0.21355   0.25000   0.00000  Uiso   1.00
Cu90   Cu    0.50000   0.11978   0.25000   0.00000  Uiso   1.00
H91    H     0.49090   0.24149   0.38944   0.00000  Uiso   1.00
H92    H     0.50910   0.09184   0.11056   0.00000  Uiso   1.00
N93    N     0.50000   0.28402   0.25000   0.00000  Uiso   1.00
N94    N     0.50000   0.04931   0.25000   0.00000  Uiso   1.00
O95    O     0.43988   0.20625   0.25000   0.00000  Uiso   1.00
O96    O     0.56012   0.12709   0.25001   0.00000  Uiso   1.00
O97    O     0.56012   0.20625   0.25001   0.00000  Uiso   1.00
O98    O     0.43988   0.12709   0.25000   0.00000  Uiso   1.00
O99    O     0.49999   0.20627   0.18513   0.00000  Uiso   1.00
O100   O     0.50001   0.12707   0.31487   0.00000  Uiso   1.00
O101   O     0.50001   0.20627   0.31487   0.00000  Uiso   1.00
O102   O     0.49999   0.12707   0.18513   0.00000  Uiso   1.00
H103   H     0.50936   0.09189   0.38934   0.00000  Uiso   1.00
H104   H     0.49064   0.24144   0.11066   0.00000  Uiso   1.00
H105   H     0.48529   0.28391   0.45903   0.00000  Uiso   1.00
H106   H     0.51471   0.04943   0.04097   0.00000  Uiso   1.00
F107   F     0.48403   0.29266   0.04450   0.00000  Uiso   1.00
F108   F     0.51597   0.04067   0.45550   0.00000  Uiso   1.00
F109   F     0.37464   0.09249   0.21193   0.00000  Uiso   1.00
F110   F     0.62536   0.24084   0.28807   0.00000  Uiso   1.00
F111   F     0.62510   0.09247   0.21200   0.00000  Uiso   1.00
F112   F     0.37490   0.24086   0.28800   0.00000  Uiso   1.00
H113   H     0.45516   0.04354   0.19903   0.00000  Uiso   1.00
H114   H     0.54484   0.28979   0.30097   0.00000  Uiso   1.00
H115   H     0.54486   0.04353   0.30095   0.00000  Uiso   1.00
H116   H     0.45514   0.28980   0.19905   0.00000  Uiso   1.00
C117   C     0.75404   0.16667   0.24997   0.00000  Uiso   1.00
C118   C     0.91262   0.16667   0.25003   0.00000  Uiso   1.00
C119   C     0.82271   0.25139   0.02288   0.00000  Uiso   1.00
C120   C     0.84396   0.08195   0.47712   0.00000  Uiso   1.00
C121   C     0.68791   0.12886   0.23128   0.00000  Uiso   1.00
C122   C     0.97876   0.20447   0.26872   0.00000  Uiso   1.00
C123   C     0.97863   0.12886   0.23131   0.00000  Uiso   1.00
C124   C     0.68803   0.20447   0.26869   0.00000  Uiso   1.00
C125   C     0.95722   0.16666   0.25003   0.00000  Uiso   1.00
C126   C     0.70945   0.16667   0.24997   0.00000  Uiso   1.00
C127   C     0.80843   0.02482   0.22170   0.00000  Uiso   1.00
C128   C     0.85824   0.30852   0.27830   0.00000  Uiso   1.00
C129   C     0.85824   0.02481   0.27830   0.00000  Uiso   1.00
C130   C     0.80842   0.30852   0.22170   0.00000  Uiso   1.00
C131   C     0.83327   0.16667   0.16427   0.00000  Uiso   1.00
C132   C     0.83339   0.16666   0.33573   0.00000  Uiso   1.00
C133   C     0.83859   0.12442   0.40734   0.00000  Uiso   1.00
C134   C     0.82808   0.20892   0.09266   0.00000  Uiso   1.00
C135   C     0.83344   0.16664   0.38416   0.00000  Uiso   1.00
C136   C     0.83322   0.16669   0.11584   0.00000  Uiso   1.00
C137   C     0.82832   0.20883   0.40730   0.00000  Uiso   1.00
C138   C     0.83835   0.12450   0.09270   0.00000  Uiso   1.00
C139   C     0.82816   0.20910   0.45347   0.00000  Uiso   1.00
C140   C     0.83851   0.12423   0.04653   0.00000  Uiso   1.00
C141   C     0.83338   0.16661   0.47675   0.00000  Uiso   1.00
C142   C     0.83329   0.16673   0.02325   0.00000  Uiso   1.00
C143   C     0.83867   0.12402   0.45359   0.00000  Uiso   1.00
C144   C     0.82800   0.20931   0.04641   0.00000  Uiso   1.00
C145   C     0.82281   0.25117   0.47668   0.00000  Uiso   1.00
C146   C     0.84386   0.08216   0.02332   0.00000  Uiso   1.00
Cu147  Cu    0.83333   0.21355   0.25000   0.00000  Uiso   1.00
Cu148  Cu    0.83333   0.11978   0.25000   0.00000  Uiso   1.00
H149   H     0.82423   0.24149   0.38944   0.00000  Uiso   1.00
H150   H     0.84244   0.09184   0.11056   0.00000  Uiso   1.00
N151   N     0.83333   0.28402   0.25000   0.00000  Uiso   1.00
N152   N     0.83333   0.04931   0.25000   0.00000  Uiso   1.00
O153   O     0.77321   0.20625   0.25000   0.00000  Uiso   1.00
O154   O     0.89345   0.12709   0.25001   0.00000  Uiso   1.00
O155   O     0.89345   0.20625   0.25001   0.00000  Uiso   1.00
O156   O     0.77321   0.12709   0.25000   0.00000  Uiso   1.00
O157   O     0.83332   0.20627   0.18513   0.00000  Uiso   1.00
O158   O     0.83334   0.12707   0.31487   0.00000  Uiso   1.00
O159   O     0.83334   0.20627   0.31487   0.00000  Uiso   1.00
O160   O     0.83332   0.12707   0.18513   0.00000  Uiso   1.00
H161   H     0.84270   0.09189   0.38934   0.00000  Uiso   1.00
H162   H     0.82397   0.24144   0.11066   0.00000  Uiso   1.00
H163   H     0.81862   0.28391   0.45903   0.00000  Uiso   1.00
H164   H     0.84804   0.04943   0.04097   0.00000  Uiso   1.00
F165   F     0.81736   0.29266   0.04450   0.00000  Uiso   1.00
F166   F     0.84931   0.04067   0.45550   0.00000  Uiso   1.00
F167   F     0.70797   0.09249   0.21193   0.00000  Uiso   1.00
F168   F     0.95869   0.24084   0.28807   0.00000  Uiso   1.00
F169   F     0.95843   0.09247   0.21200   0.00000  Uiso   1.00
F170   F     0.70824   0.24086   0.28800   0.00000  Uiso   1.00
H171   H     0.78849   0.04354   0.19903   0.00000  Uiso   1.00
H172   H     0.87817   0.28979   0.30097   0.00000  Uiso   1.00
H173   H     0.87820   0.04353   0.30095   0.00000  Uiso   1.00
H174   H     0.78847   0.28980   0.19905   0.00000  Uiso   1.00
C175   C     0.08738   0.50000   0.24997   0.00000  Uiso   1.00
C176   C     0.24596   0.50000   0.25003   0.00000  Uiso   1.00
C177   C     0.15604   0.58472   0.02288   0.00000  Uiso   1.00
C178   C     0.17729   0.41528   0.47712   0.00000  Uiso   1.00
C179   C     0.02124   0.46220   0.23128   0.00000  Uiso   1.00
C180   C     0.31209   0.53780   0.26872   0.00000  Uiso   1.00
C181   C     0.31197   0.46219   0.23131   0.00000  Uiso   1.00
C182   C     0.02137   0.53781   0.26869   0.00000  Uiso   1.00
C183   C     0.29055   0.50000   0.25003   0.00000  Uiso   1.00
C184   C     0.04278   0.50000   0.24997   0.00000  Uiso   1.00
C185   C     0.14176   0.35815   0.22170   0.00000  Uiso   1.00
C186   C     0.19157   0.64185   0.27830   0.00000  Uiso   1.00
C187   C     0.19158   0.35814   0.27830   0.00000  Uiso   1.00
C188   C     0.14176   0.64185   0.22170   0.00000  Uiso   1.00
C189   C     0.16661   0.50001   0.16427   0.00000  Uiso   1.00
C190   C     0.16672   0.49999   0.33573   0.00000  Uiso   1.00
C191   C     0.17192   0.45775   0.40734   0.00000  Uiso   1.00
C192   C     0.16141   0.54225   0.09266   0.00000  Uiso   1.00
C193   C     0.16678   0.49997   0.38416   0.00000  Uiso   1.00
C194   C     0.16656   0.50003   0.11584   0.00000  Uiso   1.00
C195   C     0.16165   0.54216   0.40730   0.00000  Uiso   1.00
C196   C     0.17168   0.45784   0.09270   0.00000  Uiso   1.00
C197   C     0.16149   0.54243   0.45347   0.00000  Uiso   1.00
C198   C     0.17184   0.45757   0.04653   0.00000  Uiso   1.00
C199   C     0.16671   0.49994   0.47675   0.00000  Uiso   1.00
C200   C     0.16662   0.50006   0.02325   0.00000  Uiso   1.00
C201   C     0.17200   0.45735   0.45359   0.00000  Uiso   1.00
C202   C     0.16133   0.54265   0.04641   0.00000  Uiso   1.00
C203   C     0.15614   0.58450   0.47668   0.00000  Uiso   1.00
C204   C     0.17719   0.41550   0.02332   0.00000  Uiso   1.00
Cu205  Cu    0.16667   0.54689   0.25000   0.00000  Uiso   1.00
Cu206  Cu    0.16667   0.45311   0.25000   0.00000  Uiso   1.00
H207   H     0.15756   0.57483   0.38944   0.00000  Uiso   1.00
H208   H     0.17577   0.42517   0.11056   0.00000  Uiso   1.00
N209   N     0.16667   0.61736   0.25000   0.00000  Uiso   1.00
N210   N     0.16667   0.38264   0.25000   0.00000  Uiso   1.00
O211   O     0.10655   0.53958   0.25000   0.00000  Uiso   1.00
O212   O     0.22679   0.46042   0.25001   0.00000  Uiso   1.00
O213   O     0.22679   0.53958   0.25001   0.00000  Uiso   1.00
O214   O     0.10655   0.46042   0.25000   0.00000  Uiso   1.00
O215   O     0.16666   0.53960   0.18513   0.00000  Uiso   1.00
O216   O     0.16668   0.46040   0.31487   0.00000  Uiso   1.00
O217   O     0.16668   0.53960   0.31487   0.00000  Uiso   1.00
O218   O     0.16666   0.46040   0.18513   0.00000  Uiso   1.00
H219   H     0.17603   0.42522   0.38934   0.00000  Uiso   1.00
H220   H     0.15730   0.57478   0.11066   0.00000  Uiso   1.00
H221   H     0.15196   0.61724   0.45903   0.00000  Uiso   1.00
H222   H     0.18138   0.38276   0.04097   0.00000  Uiso   1.00
F223   F     0.15069   0.62600   0.04450   0.00000  Uiso   1.00
F224   F     0.18264   0.37400   0.45550   0.00000  Uiso   1.00
F225   F     0.04131   0.42582   0.21193   0.00000  Uiso   1.00
F226   F     0.29203   0.57418   0.28807   0.00000  Uiso   1.00
F227   F     0.29176   0.42580   0.21200   0.00000  Uiso   1.00
F228   F     0.04157   0.57420   0.28800   0.00000  Uiso   1.00
H229   H     0.12182   0.37687   0.19903   0.00000  Uiso   1.00
H230   H     0.21151   0.62313   0.30097   0.00000  Uiso   1.00
H231   H     0.21153   0.37687   0.30095   0.00000  Uiso   1.00
H232   H     0.12180   0.62313   0.19905   0.00000  Uiso   1.00
C233   C     0.42071   0.50000   0.24997   0.00000  Uiso   1.00
C234   C     0.57929   0.50000   0.25003   0.00000  Uiso   1.00
C235   C     0.48938   0.58472   0.02288   0.00000  Uiso   1.00
C236   C     0.51062   0.41528   0.47712   0.00000  Uiso   1.00
C237   C     0.35457   0.46220   0.23128   0.00000  Uiso   1.00
C238   C     0.64543   0.53780   0.26872   0.00000  Uiso   1.00
C239   C     0.64530   0.46219   0.23131   0.00000  Uiso   1.00
C240   C     0.35470   0.53781   0.26869   0.00000  Uiso   1.00
C241   C     0.62389   0.50000   0.25003   0.00000  Uiso   1.00
C242   C     0.37611   0.50000   0.24997   0.00000  Uiso   1.00
C243   C     0.47509   0.35815   0.22170   0.00000  Uiso   1.00
C244   C     0.52490   0.64185   0.27830   0.00000  Uiso   1.00
C245   C     0.52491   0.35814   0.27830   0.00000  Uiso   1.00
C246   C     0.47509   0.64185   0.22170   0.00000  Uiso   1.00
C247   C     0.49994   0.50001   0.16427   0.00000  Uiso   1.00
C248   C     0.50006   0.49999   0.33573   0.00000  Uiso   1.00
C249   C     0.50525   0.45775   0.40734   0.00000  Uiso   1.00
C250   C     0.49475   0.54225   0.09266   0.00000  Uiso   1.00
C251   C     0.50011   0.49997   0.38416   0.00000  Uiso   1.00
C252   C     0.49989   0.50003   0.11584   0.00000  Uiso   1.00
C253   C     0.49498   0.54216   0.40730   0.00000  Uiso   1.00
C254   C     0.50502   0.45784   0.09270   0.00000  Uiso   1.00
C255   C     0.49483   0.54243   0.45347   0.00000  Uiso   1.00
C256   C     0.50517   0.45757   0.04653   0.00000  Uiso   1.00
C257   C     0.50004   0.49994   0.47675   0.00000  Uiso   1.00
C258   C     0.49996   0.50006   0.02325   0.00000  Uiso   1.00
C259   C     0.50533   0.45735   0.45359   0.00000  Uiso   1.00
C260   C     0.49467   0.54265   0.04641   0.00000  Uiso   1.00
C261   C     0.48947   0.58450   0.47668   0.00000  Uiso   1.00
C262   C     0.51053   0.41550   0.02332   0.00000  Uiso   1.00
Cu263  Cu    0.50000   0.54689   0.25000   0.00000  Uiso   1.00
Cu264  Cu    0.50000   0.45311   0.25000   0.00000  Uiso   1.00
H265   H     0.49090   0.57483   0.38944   0.00000  Uiso   1.00
H266   H     0.50910   0.42517   0.11056   0.00000  Uiso   1.00
N267   N     0.50000   0.61736   0.25000   0.00000  Uiso   1.00
N268   N     0.50000   0.38264   0.25000   0.00000  Uiso   1.00
O269   O     0.43988   0.53958   0.25000   0.00000  Uiso   1.00
O270   O     0.56012   0.46042   0.25001   0.00000  Uiso   1.00
O271   O     0.56012   0.53958   0.25001   0.00000  Uiso   1.00
O272   O     0.43988   0.46042   0.25000   0.00000  Uiso   1.00
O273   O     0.49999   0.53960   0.18513   0.00000  Uiso   1.00
O274   O     0.50001   0.46040   0.31487   0.00000  Uiso   1.00
O275   O     0.50001   0.53960   0.31487   0.00000  Uiso   1.00
O276   O     0.49999   0.46040   0.18513   0.00000  Uiso   1.00
H277   H     0.50936   0.42522   0.38934   0.00000  Uiso   1.00
H278   H     0.49064   0.57478   0.11066   0.00000  Uiso   1.00
H279   H     0.48529   0.61724   0.45903   0.00000  Uiso   1.00
H280   H     0.51471   0.38276   0.04097   0.00000  Uiso   1.00
F281   F     0.48403   0.62600   0.04450   0.00000  Uiso   1.00
F282   F     0.51597   0.37400   0.45550   0.00000  Uiso   1.00
F283   F     0.37464   0.42582   0.21193   0.00000  Uiso   1.00
F284   F     0.62536   0.57418   0.28807   0.00000  Uiso   1.00
F285   F     0.62510   0.42580   0.21200   0.00000  Uiso   1.00
F286   F     0.37490   0.57420   0.28800   0.00000  Uiso   1.00
H287   H     0.45516   0.37687   0.19903   0.00000  Uiso   1.00
H288   H     0.54484   0.62313   0.30097   0.00000  Uiso   1.00
H289   H     0.54486   0.37687   0.30095   0.00000  Uiso   1.00
H290   H     0.45514   0.62313   0.19905   0.00000  Uiso   1.00
C291   C     0.75404   0.50000   0.24997   0.00000  Uiso   1.00
C292   C     0.91262   0.50000   0.25003   0.00000  Uiso   1.00
C293   C     0.82271   0.58472   0.02288   0.00000  Uiso   1.00
C294   C     0.84396   0.41528   0.47712   0.00000  Uiso   1.00
C295   C     0.68791   0.46220   0.23128   0.00000  Uiso   1.00
C296   C     0.97876   0.53780   0.26872   0.00000  Uiso   1.00
C297   C     0.97863   0.46219   0.23131   0.00000  Uiso   1.00
C298   C     0.68803   0.53781   0.26869   0.00000  Uiso   1.00
C299   C     0.95722   0.50000   0.25003   0.00000  Uiso   1.00
C300   C     0.70945   0.50000   0.24997   0.00000  Uiso   1.00
C301   C     0.80843   0.35815   0.22170   0.00000  Uiso   1.00
C302   C     0.85824   0.64185   0.27830   0.00000  Uiso   1.00
C303   C     0.85824   0.35814   0.27830   0.00000  Uiso   1.00
C304   C     0.80842   0.64185   0.22170   0.00000  Uiso   1.00
C305   C     0.83327   0.50001   0.16427   0.00000  Uiso   1.00
C306   C     0.83339   0.49999   0.33573   0.00000  Uiso   1.00
C307   C     0.83859   0.45775   0.40734   0.00000  Uiso   1.00
C308   C     0.82808   0.54225   0.09266   0.00000  Uiso   1.00
C309   C     0.83344   0.49997   0.38416   0.00000  Uiso   1.00
C310   C     0.83322   0.50003   0.11584   0.00000  Uiso   1.00
C311   C     0.82832   0.54216   0.40730   0.00000  Uiso   1.00
C312   C     0.83835   0.45784   0.09270   0.00000  Uiso   1.00
C313   C     0.82816   0.54243   0.45347   0.00000  Uiso   1.00
C314   C     0.83851   0.45757   0.04653   0.00000  Uiso   1.00
C315   C     0.83338   0.49994   0.47675   0.00000  Uiso   1.00
C316   C     0.83329   0.50006   0.02325   0.00000  Uiso   1.00
C317   C     0.83867   0.45735   0.45359   0.00000  Uiso   1.00
C318   C     0.82800   0.54265   0.04641   0.00000  Uiso   1.00
C319   C     0.82281   0.58450   0.47668   0.00000  Uiso   1.00
C320   C     0.84386   0.41550   0.02332   0.00000  Uiso   1.00
Cu321  Cu    0.83333   0.54689   0.25000   0.00000  Uiso   1.00
Cu322  Cu    0.83333   0.45311   0.25000   0.00000  Uiso   1.00
H323   H     0.82423   0.57483   0.38944   0.00000  Uiso   1.00
H324   H     0.84244   0.42517   0.11056   0.00000  Uiso   1.00
N325   N     0.83333   0.61736   0.25000   0.00000  Uiso   1.00
N326   N     0.83333   0.38264   0.25000   0.00000  Uiso   1.00
O327   O     0.77321   0.53958   0.25000   0.00000  Uiso   1.00
O328   O     0.89345   0.46042   0.25001   0.00000  Uiso   1.00
O329   O     0.89345   0.53958   0.25001   0.00000  Uiso   1.00
O330   O     0.77321   0.46042   0.25000   0.00000  Uiso   1.00
O331   O     0.83332   0.53960   0.18513   0.00000  Uiso   1.00
O332   O     0.83334   0.46040   0.31487   0.00000  Uiso   1.00
O333   O     0.83334   0.53960   0.31487   0.00000  Uiso   1.00
O334   O     0.83332   0.46040   0.18513   0.00000  Uiso   1.00
H335   H     0.84270   0.42522   0.38934   0.00000  Uiso   1.00
H336   H     0.82397   0.57478   0.11066   0.00000  Uiso   1.00
H337   H     0.81862   0.61724   0.45903   0.00000  Uiso   1.00
H338   H     0.84804   0.38276   0.04097   0.00000  Uiso   1.00
F339   F     0.81736   0.62600   0.04450   0.00000  Uiso   1.00
F340   F     0.84931   0.37400   0.45550   0.00000  Uiso   1.00
F341   F     0.70797   0.42582   0.21193   0.00000  Uiso   1.00
F342   F     0.95869   0.57418   0.28807   0.00000  Uiso   1.00
F343   F     0.95843   0.42580   0.21200   0.00000  Uiso   1.00
F344   F     0.70824   0.57420   0.28800   0.00000  Uiso   1.00
H345   H     0.78849   0.37687   0.19903   0.00000  Uiso   1.00
H346   H     0.87817   0.62313   0.30097   0.00000  Uiso   1.00
H347   H     0.87820   0.37687   0.30095   0.00000  Uiso   1.00
H348   H     0.78847   0.62313   0.19905   0.00000  Uiso   1.00
C349   C     0.08738   0.83333   0.24997   0.00000  Uiso   1.00
C350   C     0.24596   0.83333   0.25003   0.00000  Uiso   1.00
C351   C     0.15604   0.91805   0.02288   0.00000  Uiso   1.00
C352   C     0.17729   0.74861   0.47712   0.00000  Uiso   1.00
C353   C     0.02124   0.79553   0.23128   0.00000  Uiso   1.00
C354   C     0.31209   0.87114   0.26872   0.00000  Uiso   1.00
C355   C     0.31197   0.79552   0.23131   0.00000  Uiso   1.00
C356   C     0.02137   0.87114   0.26869   0.00000  Uiso   1.00
C357   C     0.29055   0.83333   0.25003   0.00000  Uiso   1.00
C358   C     0.04278   0.83334   0.24997   0.00000  Uiso   1.00
C359   C     0.14176   0.69148   0.22170   0.00000  Uiso   1.00
C360   C     0.19157   0.97518   0.27830   0.00000  Uiso   1.00
C361   C     0.19158   0.69148   0.27830   0.00000  Uiso   1.00
C362   C     0.14176   0.97519   0.22170   0.00000  Uiso   1.00
C363   C     0.16661   0.83334   0.16427   0.00000  Uiso   1.00
C364   C     0.16672   0.83333   0.33573   0.00000  Uiso   1.00
C365   C     0.17192   0.79108   0.40734   0.00000  Uiso   1.00
C366   C     0.16141   0.87558   0.09266   0.00000  Uiso   1.00
C367   C     0.16678   0.83331   0.38416   0.00000  Uiso   1.00
C368   C     0.16656   0.83336   0.11584   0.00000  Uiso   1.00
C369   C     0.16165   0.87550   0.40730   0.00000  Uiso   1.00
C370   C     0.17168   0.79117   0.09270   0.00000  Uiso   1.00
C371   C     0.16149   0.87577   0.45347   0.00000  Uiso   1.00
C372   C     0.17184   0.79090   0.04653   0.00000  Uiso   1.00
C373   C     0.16671   0.83327   0.47675   0.00000  Uiso   1.00
C374   C     0.16662   0.83339   0.02325   0.00000  Uiso   1.00
C375   C     0.17200   0.79069   0.45359   0.00000  Uiso   1.00
C376   C     0.16133   0.87598   0.04641   0.00000  Uiso   1.00
C377   C     0.15614   0.91784   0.47668   0.00000  Uiso   1.00
C378   C     0.17719   0.74883   0.02332   0.00000  Uiso   1.00
Cu379  Cu    0.16667   0.88022   0.25000   0.00000  Uiso   1.00
Cu380  Cu    0.16667   0.78645   0.25000   0.00000  Uiso   1.00
H381   H     0.15756   0.90816   0.38944   0.00000  Uiso   1.00
H382   H     0.17577   0.75851   0.11056   0.00000  Uiso   1.00
N383   N     0.16667   0.95069   0.25000   0.00000  Uiso   1.00
N384   N     0.16667   0.71598   0.25000   0.00000  Uiso   1.00
O385   O     0.10655   0.87291   0.25000   0.00000  Uiso   1.00
O386   O     0.22679   0.79375   0.25001   0.00000  Uiso   1.00
O387   O     0.22679   0.87291   0.25001   0.00000  Uiso   1.00
O388   O     0.10655   0.79375   0.25000   0.00000  Uiso   1.00
O389   O     0.16666   0.87293   0.18513   0.00000  Uiso   1.00
O390   O     0.16668   0.79373   0.31487   0.00000  Uiso   1.00
O391   O     0.16668   0.87293   0.31487   0.00000  Uiso   1.00
O392   O     0.16666   0.79373   0.18513   0.00000  Uiso   1.00
H393   H     0.17603   0.75856   0.38934   0.00000  Uiso   1.00
H394   H     0.15730   0.90811   0.11066   0.00000  Uiso   1.00
H395   H     0.15196   0.95057   0.45903   0.00000  Uiso   1.00
H396   H     0.18138   0.71609   0.04097   0.00000  Uiso   1.00
F397   F     0.15069   0.95933   0.04450   0.00000  Uiso   1.00
F398   F     0.18264   0.70734   0.45550   0.00000  Uiso   1.00
F399   F     0.04131   0.75916   0.21193   0.00000  Uiso   1.00
F400   F     0.29203   0.90751   0.28807   0.00000  Uiso   1.00
F401   F     0.29176   0.75914   0.21200   0.00000  Uiso   1.00
F402   F     0.04157   0.90753   0.28800   0.00000  Uiso   1.00
H403   H     0.12182   0.71021   0.19903   0.00000  Uiso   1.00
H404   H     0.21151   0.95646   0.30097   0.00000  Uiso   1.00
H405   H     0.21153   0.71020   0.30095   0.00000  Uiso   1.00
H406   H     0.12180   0.95647   0.19905   0.00000  Uiso   1.00
C407   C     0.42071   0.83333   0.24997   0.00000  Uiso   1.00
C408   C     0.57929   0.83333   0.25003   0.00000  Uiso   1.00
C409   C     0.48938   0.91805   0.02288   0.00000  Uiso   1.00
C410   C     0.51062   0.74861   0.47712   0.00000  Uiso   1.00
C411   C     0.35457   0.79553   0.23128   0.00000  Uiso   1.00
C412   C     0.64543   0.87114   0.26872   0.00000  Uiso   1.00
C413   C     0.64530   0.79552   0.23131   0.00000  Uiso   1.00
C414   C     0.35470   0.87114   0.26869   0.00000  Uiso   1.00
C415   C     0.62389   0.83333   0.25003   0.00000  Uiso   1.00
C416   C     0.37611   0.83334   0.24997   0.00000  Uiso   1.00
C417   C     0.47509   0.69148   0.22170   0.00000  Uiso   1.00
C418   C     0.52490   0.97518   0.27830   0.00000  Uiso   1.00
C419   C     0.52491   0.69148   0.27830   0.00000  Uiso   1.00
C420   C     0.47509   0.97519   0.22170   0.00000  Uiso   1.00
C421   C     0.49994   0.83334   0.16427   0.00000  Uiso   1.00
C422   C     0.50006   0.83333   0.33573   0.00000  Uiso   1.00
C423   C     0.50525   0.79108   0.40734   0.00000  Uiso   1.00
C424   C     0.49475   0.87558   0.09266   0.00000  Uiso   1.00
C425   C     0.50011   0.83331   0.38416   0.00000  Uiso   1.00
C426   C     0.49989   0.83336   0.11584   0.00000  Uiso   1.00
C427   C     0.49498   0.87550   0.40730   0.00000  Uiso   1.00
C428   C     0.50502   0.79117   0.09270   0.00000  Uiso   1.00
C429   C     0.49483   0.87577   0.45347   0.00000  Uiso   1.00
C430   C     0.50517   0.79090   0.04653   0.00000  Uiso   1.00
C431   C     0.50004   0.83327   0.47675   0.00000  Uiso   1.00
C432   C     0.49996   0.83339   0.02325   0.00000  Uiso   1.00
C433   C     0.50533   0.79069   0.45359   0.00000  Uiso   1.00
C434   C     0.49467   0.87598   0.04641   0.00000  Uiso   1.00
C435   C     0.48947   0.91784   0.47668   0.00000  Uiso   1.00
C436   C     0.51053   0.74883   0.02332   0.00000  Uiso   1.00
Cu437  Cu    0.50000   0.88022   0.25000   0.00000  Uiso   1.00
Cu438  Cu    0.50000   0.78645   0.25000   0.00000  Uiso   1.00
H439   H     0.49090   0.90816   0.38944   0.00000  Uiso   1.00
H440   H     0.50910   0.75851   0.11056   0.00000  Uiso   1.00
N441   N     0.50000   0.95069   0.25000   0.00000  Uiso   1.00
N442   N     0.50000   0.71598   0.25000   0.00000  Uiso   1.00
O443   O     0.43988   0.87291   0.25000   0.00000  Uiso   1.00
O444   O     0.56012   0.79375   0.25001   0.00000  Uiso   1.00
O445   O     0.56012   0.87291   0.25001   0.00000  Uiso   1.00
O446   O     0.43988   0.79375   0.25000   0.00000  Uiso   1.00
O447   O     0.49999   0.87293   0.18513   0.00000  Uiso   1.00
O448   O     0.50001   0.79373   0.31487   0.00000  Uiso   1.00
O449   O     0.50001   0.87293   0.31487   0.00000  Uiso   1.00
O450   O     0.49999   0.79373   0.18513   0.00000  Uiso   1.00
H451   H     0.50936   0.75856   0.38934   0.00000  Uiso   1.00
H452   H     0.49064   0.90811   0.11066   0.00000  Uiso   1.00
H453   H     0.48529   0.95057   0.45903   0.00000  Uiso   1.00
H454   H     0.51471   0.71609   0.04097   0.00000  Uiso   1.00
F455   F     0.48403   0.95933   0.04450   0.00000  Uiso   1.00
F456   F     0.51597   0.70734   0.45550   0.00000  Uiso   1.00
F457   F     0.37464   0.75916   0.21193   0.00000  Uiso   1.00
F458   F     0.62536   0.90751   0.28807   0.00000  Uiso   1.00
F459   F     0.62510   0.75914   0.21200   0.00000  Uiso   1.00
F460   F     0.37490   0.90753   0.28800   0.00000  Uiso   1.00
H461   H     0.45516   0.71021   0.19903   0.00000  Uiso   1.00
H462   H     0.54484   0.95646   0.30097   0.00000  Uiso   1.00
H463   H     0.54486   0.71020   0.30095   0.00000  Uiso   1.00
H464   H     0.45514   0.95647   0.19905   0.00000  Uiso   1.00
C465   C     0.75404   0.83333   0.24997   0.00000  Uiso   1.00
C466   C     0.91262   0.83333   0.25003   0.00000  Uiso   1.00
C467   C     0.82271   0.91805   0.02288   0.00000  Uiso   1.00
C468   C     0.84396   0.74861   0.47712   0.00000  Uiso   1.00
C469   C     0.68791   0.79553   0.23128   0.00000  Uiso   1.00
C470   C     0.97876   0.87114   0.26872   0.00000  Uiso   1.00
C471   C     0.97863   0.79552   0.23131   0.00000  Uiso   1.00
C472   C     0.68803   0.87114   0.26869   0.00000  Uiso   1.00
C473   C     0.95722   0.83333   0.25003   0.00000  Uiso   1.00
C474   C     0.70945   0.83334   0.24997   0.00000  Uiso   1.00
C475   C     0.80843   0.69148   0.22170   0.00000  Uiso   1.00
C476   C     0.85824   0.97518   0.27830   0.00000  Uiso   1.00
C477   C     0.85824   0.69148   0.27830   0.00000  Uiso   1.00
C478   C     0.80842   0.97519   0.22170   0.00000  Uiso   1.00
C479   C     0.83327   0.83334   0.16427   0.00000  Uiso   1.00
C480   C     0.83339   0.83333   0.33573   0.00000  Uiso   1.00
C481   C     0.83859   0.79108   0.40734   0.00000  Uiso   1.00
C482   C     0.82808   0.87558   0.09266   0.00000  Uiso   1.00
C483   C     0.83344   0.83331   0.38416   0.00000  Uiso   1.00
C484   C     0.83322   0.83336   0.11584   0.00000  Uiso   1.00
C485   C     0.82832   0.87550   0.40730   0.00000  Uiso   1.00
C486   C     0.83835   0.79117   0.09270   0.00000  Uiso   1.00
C487   C     0.82816   0.87577   0.45347   0.00000  Uiso   1.00
C488   C     0.83851   0.79090   0.04653   0.00000  Uiso   1.00
C489   C     0.83338   0.83327   0.47675   0.00000  Uiso   1.00
C490   C     0.83329   0.83339   0.02325   0.00000  Uiso   1.00
C491   C     0.83867   0.79069   0.45359   0.00000  Uiso   1.00
C492   C     0.82800   0.87598   0.04641   0.00000  Uiso   1.00
C493   C     0.82281   0.91784   0.47668   0.00000  Uiso   1.00
C494   C     0.84386   0.74883   0.02332   0.00000  Uiso   1.00
Cu495  Cu    0.83333   0.88022   0.25000   0.00000  Uiso   1.00
Cu496  Cu    0.83333   0.78645   0.25000   0.00000  Uiso   1.00
H497   H     0.82423   0.90816   0.38944   0.00000  Uiso   1.00
H498   H     0.84244   0.75851   0.11056   0.00000  Uiso   1.00
N499   N     0.83333   0.95069   0.25000   0.00000  Uiso   1.00
N500   N     0.83333   0.71598   0.25000   0.00000  Uiso   1.00
O501   O     0.77321   0.87291   0.25000   0.00000  Uiso   1.00
O502   O     0.89345   0.79375   0.25001   0.00000  Uiso   1.00
O503   O     0.89345   0.87291   0.25001   0.00000  Uiso   1.00
O504   O     0.77321   0.79375   0.25000   0.00000  Uiso   1.00
O505   O     0.83332   0.87293   0.18513   0.00000  Uiso   1.00
O506   O     0.83334   0.79373   0.31487   0.00000  Uiso   1.00
O507   O     0.83334   0.87293   0.31487   0.00000  Uiso   1.00
O508   O     0.83332   0.79373   0.18513   0.00000  Uiso   1.00
H509   H     0.84270   0.75856   0.38934   0.00000  Uiso   1.00
H510   H     0.82397   0.90811   0.11066   0.00000  Uiso   1.00
H511   H     0.81862   0.95057   0.45903   0.00000  Uiso   1.00
H512   H     0.84804   0.71609   0.04097   0.00000  Uiso   1.00
F513   F     0.81736   0.95933   0.04450   0.00000  Uiso   1.00
F514   F     0.84931   0.70734   0.45550   0.00000  Uiso   1.00
F515   F     0.70797   0.75916   0.21193   0.00000  Uiso   1.00
F516   F     0.95869   0.90751   0.28807   0.00000  Uiso   1.00
F517   F     0.95843   0.75914   0.21200   0.00000  Uiso   1.00
F518   F     0.70824   0.90753   0.28800   0.00000  Uiso   1.00
H519   H     0.78849   0.71021   0.19903   0.00000  Uiso   1.00
H520   H     0.87817   0.95646   0.30097   0.00000  Uiso   1.00
H521   H     0.87820   0.71020   0.30095   0.00000  Uiso   1.00
H522   H     0.78847   0.95647   0.19905   0.00000  Uiso   1.00
C523   C     0.08738   0.16667   0.74997   0.00000  Uiso   1.00
C524   C     0.24596   0.16667   0.75003   0.00000  Uiso   1.00
C525   C     0.15604   0.25139   0.52288   0.00000  Uiso   1.00
C526   C     0.17729   0.08195   0.97712   0.00000  Uiso   1.00
C527   C     0.02124   0.12886   0.73128   0.00000  Uiso   1.00
C528   C     0.31209   0.20447   0.76872   0.00000  Uiso   1.00
C529   C     0.31197   0.12886   0.73131   0.00000  Uiso   1.00
C530   C     0.02137   0.20447   0.76869   0.00000  Uiso   1.00
C531   C     0.29055   0.16666   0.75003   0.00000  Uiso   1.00
C532   C     0.04278   0.16667   0.74997   0.00000  Uiso   1.00
C533   C     0.14176   0.02482   0.72170   0.00000  Uiso   1.00
C534   C     0.19157   0.30852   0.77830   0.00000  Uiso   1.00
C535   C     0.19158   0.02481   0.77830   0.00000  Uiso   1.00
C536   C     0.14176   0.30852   0.72170   0.00000  Uiso   1.00
C537   C     0.16661   0.16667   0.66427   0.00000  Uiso   1.00
C538   C     0.16672   0.16666   0.83573   0.00000  Uiso   1.00
C539   C     0.17192   0.12442   0.90734   0.00000  Uiso   1.00
C540   C     0.16141   0.20892   0.59266   0.00000  Uiso   1.00
C541   C     0.16678   0.16664   0.88416   0.00000  Uiso   1.00
C542   C     0.16656   0.16669   0.61584   0.00000  Uiso   1.00
C543   C     0.16165   0.20883   0.90730   0.00000  Uiso   1.00
C544   C     0.17168   0.12450   0.59270   0.00000  Uiso   1.00
C545   C     0.16149   0.20910   0.95347   0.00000  Uiso   1.00
C546   C     0.17184   0.12423   0.54653   0.00000  Uiso   1.00
C547   C     0.16671   0.16661   0.97675   0.00000  Uiso   1.00
C548   C     0.16662   0.16673   0.52325   0.00000  Uiso   1.00
C549   C     0.17200   0.12402   0.95359   0.00000  Uiso   1.00
C550   C     0.16133   0.20931   0.54641   0.00000  Uiso   1.00
C551   C     0.15614   0.25117   0.97668   0.00000  Uiso   1.00
C552   C     0.17719   0.08216   0.52332   0.00000  Uiso   1.00
Cu553  Cu    0.16667   0.21355   0.75000   0.00000  Uiso   1.00
Cu554  Cu    0.16667   0.11978   0.75000   0.00000  Uiso   1.00
H555   H     0.15756   0.24149   0.88944   0.00000  Uiso   1.00
H556   H     0.17577   0.09184   0.61056   0.00000  Uiso   1.00
N557   N     0.16667   0.28402   0.75000   0.00000  Uiso   1.00
N558   N     0.16667   0.04931   0.75000   0.00000  Uiso   1.00
O559   O     0.10655   0.20625   0.75000   0.00000  Uiso   1.00
O560   O     0.22679   0.12709   0.75001   0.00000  Uiso   1.00
O561   O     0.22679   0.20625   0.75001   0.00000  Uiso   1.00
O562   O     0.10655   0.12709   0.75000   0.00000  Uiso   1.00
O563   O     0.16666   0.20627   0.68513   0.00000  Uiso   1.00
O564   O     0.16668   0.12707   0.81487   0.00000  Uiso   1.00
O565   O     0.16668   0.20627   0.81487   0.00000  Uiso   1.00
O566   O     0.16666   0.12707   0.68513   0.00000  Uiso   1.00
H567   H     0.17603   0.09189   0.88934   0.00000  Uiso   1.00
H568   H     0.15730   0.24144   0.61066   0.00000  Uiso   1.00
H569   H     0.15196   0.28391   0.95903   0.00000  Uiso   1.00
H570   H     0.18138   0.04943   0.54097   0.00000  Uiso   1.00
F571   F     0.15069   0.29266   0.54450   0.00000  Uiso   1.00
F572   F     0.18264   0.04067   0.95550   0.00000  Uiso   1.00
F573   F     0.04131   0.09249   0.71193   0.00000  Uiso   1.00
F574   F     0.29203   0.24084   0.78807   0.00000  Uiso   1.00
F575   F     0.29176   0.09247   0.71200   0.00000  Uiso   1.00
F576   F     0.04157   0.24086   0.78800   0.00000  Uiso   1.00
H577   H     0.12182   0.04354   0.69903   0.00000  Uiso   1.00
H578   H     0.21151   0.28979   0.80097   0.00000  Uiso   1.00
H579   H     0.21153   0.04353   0.80095   0.00000  Uiso   1.00
H580   H     0.12180   0.28980   0.69905   0.00000  Uiso   1.00
C581   C     0.42071   0.16667   0.74997   0.00000  Uiso   1.00
C582   C     0.57929   0.16667   0.75003   0.00000  Uiso   1.00
C583   C     0.48938   0.25139   0.52288   0.00000  Uiso   1.00
C584   C     0.51062   0.08195   0.97712   0.00000  Uiso   1.00
C585   C     0.35457   0.12886   0.73128   0.00000  Uiso   1.00
C586   C     0.64543   0.20447   0.76872   0.00000  Uiso   1.00
C587   C     0.64530   0.12886   0.73131   0.00000  Uiso   1.00
C588   C     0.35470   0.20447   0.76869   0.00000  Uiso   1.00
C589   C     0.62389   0.16666   0.75003   0.00000  Uiso   1.00
C590   C     0.37611   0.16667   0.74997   0.00000  Uiso   1.00
C591   C     0.47509   0.02482   0.72170   0.00000  Uiso   1.00
C592   C     0.52490   0.30852   0.77830   0.00000  Uiso   1.00
C593   C     0.52491   0.02481   0.77830   0.00000  Uiso   1.00
C594   C     0.47509   0.30852   0.72170   0.00000  Uiso   1.00
C595   C     0.49994   0.16667   0.66427   0.00000  Uiso   1.00
C596   C     0.50006   0.16666   0.83573   0.00000  Uiso   1.00
C597   C     0.50525   0.12442   0.90734   0.00000  Uiso   1.00
C598   C     0.49475   0.20892   0.59266   0.00000  Uiso   1.00
C599   C     0.50011   0.16664   0.88416   0.00000  Uiso   1.00
C600   C     0.49989   0.16669   0.61584   0.00000  Uiso   1.00
C601   C     0.49498   0.20883   0.90730   0.00000  Uiso   1.00
C602   C     0.50502   0.12450   0.59270   0.00000  Uiso   1.00
C603   C     0.49483   0.20910   0.95347   0.00000  Uiso   1.00
C604   C     0.50517   0.12423   0.54653   0.00000  Uiso   1.00
C605   C     0.50004   0.16661   0.97675   0.00000  Uiso   1.00
C606   C     0.49996   0.16673   0.52325   0.00000  Uiso   1.00
C607   C     0.50533   0.12402   0.95359   0.00000  Uiso   1.00
C608   C     0.49467   0.20931   0.54641   0.00000  Uiso   1.00
C609   C     0.48947   0.25117   0.97668   0.00000  Uiso   1.00
C610   C     0.51053   0.08216   0.52332   0.00000  Uiso   1.00
Cu611  Cu    0.50000   0.21355   0.75000   0.00000  Uiso   1.00
Cu612  Cu    0.50000   0.11978   0.75000   0.00000  Uiso   1.00
H613   H     0.49090   0.24149   0.88944   0.00000  Uiso   1.00
H614   H     0.50910   0.09184   0.61056   0.00000  Uiso   1.00
N615   N     0.50000   0.28402   0.75000   0.00000  Uiso   1.00
N616   N     0.50000   0.04931   0.75000   0.00000  Uiso   1.00
O617   O     0.43988   0.20625   0.75000   0.00000  Uiso   1.00
O618   O     0.56012   0.12709   0.75001   0.00000  Uiso   1.00
O619   O     0.56012   0.20625   0.75001   0.00000  Uiso   1.00
O620   O     0.43988   0.12709   0.75000   0.00000  Uiso   1.00
O621   O     0.49999   0.20627   0.68513   0.00000  Uiso   1.00
O622   O     0.50001   0.12707   0.81487   0.00000  Uiso   1.00
O623   O     0.50001   0.20627   0.81487   0.00000  Uiso   1.00
O624   O     0.49999   0.12707   0.68513   0.00000  Uiso   1.00
H625   H     0.50936   0.09189   0.88934   0.00000  Uiso   1.00
H626   H     0.49064   0.24144   0.61066   0.00000  Uiso   1.00
H627   H     0.48529   0.28391   0.95903   0.00000  Uiso   1.00
H628   H     0.51471   0.04943   0.54097   0.00000  Uiso   1.00
F629   F     0.48403   0.29266   0.54450   0.00000  Uiso   1.00
F630   F     0.51597   0.04067   0.95550   0.00000  Uiso   1.00
F631   F     0.37464   0.09249   0.71193   0.00000  Uiso   1.00
F632   F     0.62536   0.24084   0.78807   0.00000  Uiso   1.00
F633   F     0.62510   0.09247   0.71200   0.00000  Uiso   1.00
F634   F     0.37490   0.24086   0.78800   0.00000  Uiso   1.00
H635   H     0.45516   0.04354   0.69903   0.00000  Uiso   1.00
H636   H     0.54484   0.28979   0.80097   0.00000  Uiso   1.00
H637   H     0.54486   0.04353   0.80095   0.00000  Uiso   1.00
H638   H     0.45514   0.28980   0.69905   0.00000  Uiso   1.00
C639   C     0.75404   0.16667   0.74997   0.00000  Uiso   1.00
C640   C     0.91262   0.16667   0.75003   0.00000  Uiso   1.00
C641   C     0.82271   0.25139   0.52288   0.00000  Uiso   1.00
C642   C     0.84396   0.08195   0.97712   0.00000  Uiso   1.00
C643   C     0.68791   0.12886   0.73128   0.00000  Uiso   1.00
C644   C     0.97876   0.20447   0.76872   0.00000  Uiso   1.00
C645   C     0.97863   0.12886   0.73131   0.00000  Uiso   1.00
C646   C     0.68803   0.20447   0.76869   0.00000  Uiso   1.00
C647   C     0.95722   0.16666   0.75003   0.00000  Uiso   1.00
C648   C     0.70945   0.16667   0.74997   0.00000  Uiso   1.00
C649   C     0.80843   0.02482   0.72170   0.00000  Uiso   1.00
C650   C     0.85824   0.30852   0.77830   0.00000  Uiso   1.00
C651   C     0.85824   0.02481   0.77830   0.00000  Uiso   1.00
C652   C     0.80842   0.30852   0.72170   0.00000  Uiso   1.00
C653   C     0.83327   0.16667   0.66427   0.00000  Uiso   1.00
C654   C     0.83339   0.16666   0.83573   0.00000  Uiso   1.00
C655   C     0.83859   0.12442   0.90734   0.00000  Uiso   1.00
C656   C     0.82808   0.20892   0.59266   0.00000  Uiso   1.00
C657   C     0.83344   0.16664   0.88416   0.00000  Uiso   1.00
C658   C     0.83322   0.16669   0.61584   0.00000  Uiso   1.00
C659   C     0.82832   0.20883   0.90730   0.00000  Uiso   1.00
C660   C     0.83835   0.12450   0.59270   0.00000  Uiso   1.00
C661   C     0.82816   0.20910   0.95347   0.00000  Uiso   1.00
C662   C     0.83851   0.12423   0.54653   0.00000  Uiso   1.00
C663   C     0.83338   0.16661   0.97675   0.00000  Uiso   1.00
C664   C     0.83329   0.16673   0.52325   0.00000  Uiso   1.00
C665   C     0.83867   0.12402   0.95359   0.00000  Uiso   1.00
C666   C     0.82800   0.20931   0.54641   0.00000  Uiso   1.00
C667   C     0.82281   0.25117   0.97668   0.00000  Uiso   1.00
C668   C     0.84386   0.08216   0.52332   0.00000  Uiso   1.00
Cu669  Cu    0.83333   0.21355   0.75000   0.00000  Uiso   1.00
Cu670  Cu    0.83333   0.11978   0.75000   0.00000  Uiso   1.00
H671   H     0.82423   0.24149   0.88944   0.00000  Uiso   1.00
H672   H     0.84244   0.09184   0.61056   0.00000  Uiso   1.00
N673   N     0.83333   0.28402   0.75000   0.00000  Uiso   1.00
N674   N     0.83333   0.04931   0.75000   0.00000  Uiso   1.00
O675   O     0.77321   0.20625   0.75000   0.00000  Uiso   1.00
O676   O     0.89345   0.12709   0.75001   0.00000  Uiso   1.00
O677   O     0.89345   0.20625   0.75001   0.00000  Uiso   1.00
O678   O     0.77321   0.12709   0.75000   0.00000  Uiso   1.00
O679   O     0.83332   0.20627   0.68513   0.00000  Uiso   1.00
O680   O     0.83334   0.12707   0.81487   0.00000  Uiso   1.00
O681   O     0.83334   0.20627   0.81487   0.00000  Uiso   1.00
O682   O     0.83332   0.12707   0.68513   0.00000  Uiso   1.00
H683   H     0.84270   0.09189   0.88934   0.00000  Uiso   1.00
H684   H     0.82397   0.24144   0.61066   0.00000  Uiso   1.00
H685   H     0.81862   0.28391   0.95903   0.00000  Uiso   1.00
H686   H     0.84804   0.04943   0.54097   0.00000  Uiso   1.00
F687   F     0.81736   0.29266   0.54450   0.00000  Uiso   1.00
F688   F     0.84931   0.04067   0.95550   0.00000  Uiso   1.00
F689   F     0.70797   0.09249   0.71193   0.00000  Uiso   1.00
F690   F     0.95869   0.24084   0.78807   0.00000  Uiso   1.00
F691   F     0.95843   0.09247   0.71200   0.00000  Uiso   1.00
F692   F     0.70824   0.24086   0.78800   0.00000  Uiso   1.00
H693   H     0.78849   0.04354   0.69903   0.00000  Uiso   1.00
H694   H     0.87817   0.28979   0.80097   0.00000  Uiso   1.00
H695   H     0.87820   0.04353   0.80095   0.00000  Uiso   1.00
H696   H     0.78847   0.28980   0.69905   0.00000  Uiso   1.00
C697   C     0.08738   0.50000   0.74997   0.00000  Uiso   1.00
C698   C     0.24596   0.50000   0.75003   0.00000  Uiso   1.00
C699   C     0.15604   0.58472   0.52288   0.00000  Uiso   1.00
C700   C     0.17729   0.41528   0.97712   0.00000  Uiso   1.00
C701   C     0.02124   0.46220   0.73128   0.00000  Uiso   1.00
C702   C     0.31209   0.53780   0.76872   0.00000  Uiso   1.00
C703   C     0.31197   0.46219   0.73131   0.00000  Uiso   1.00
C704   C     0.02137   0.53781   0.76869   0.00000  Uiso   1.00
C705   C     0.29055   0.50000   0.75003   0.00000  Uiso   1.00
C706   C     0.04278   0.50000   0.74997   0.00000  Uiso   1.00
C707   C     0.14176   0.35815   0.72170   0.00000  Uiso   1.00
C708   C     0.19157   0.64185   0.77830   0.00000  Uiso   1.00
C709   C     0.19158   0.35814   0.77830   0.00000  Uiso   1.00
C710   C     0.14176   0.64185   0.72170   0.00000  Uiso   1.00
C711   C     0.16661   0.50001   0.66427   0.00000  Uiso   1.00
C712   C     0.16672   0.49999   0.83573   0.00000  Uiso   1.00
C713   C     0.17192   0.45775   0.90734   0.00000  Uiso   1.00
C714   C     0.16141   0.54225   0.59266   0.00000  Uiso   1.00
C715   C     0.16678   0.49997   0.88416   0.00000  Uiso   1.00
C716   C     0.16656   0.50003   0.61584   0.00000  Uiso   1.00
C717   C     0.16165   0.54216   0.90730   0.00000  Uiso   1.00
C718   C     0.17168   0.45784   0.59270   0.00000  Uiso   1.00
C719   C     0.16149   0.54243   0.95347   0.00000  Uiso   1.00
C720   C     0.17184   0.45757   0.54653   0.00000  Uiso   1.00
C721   C     0.16671   0.49994   0.97675   0.00000  Uiso   1.00
C722   C     0.16662   0.50006   0.52325   0.00000  Uiso   1.00
C723   C     0.17200   0.45735   0.95359   0.00000  Uiso   1.00
C724   C     0.16133   0.54265   0.54641   0.00000  Uiso   1.00
C725   C     0.15614   0.58450   0.97668   0.00000  Uiso   1.00
C726   C     0.17719   0.41550   0.52332   0.00000  Uiso   1.00
Cu727  Cu    0.16667   0.54689   0.75000   0.00000  Uiso   1.00
Cu728  Cu    0.16667   0.45311   0.75000   0.00000  Uiso   1.00
H729   H     0.15756   0.57483   0.88944   0.00000  Uiso   1.00
H730   H     0.17577   0.42517   0.61056   0.00000  Uiso   1.00
N731   N     0.16667   0.61736   0.75000   0.00000  Uiso   1.00
N732   N     0.16667   0.38264   0.75000   0.00000  Uiso   1.00
O733   O     0.10655   0.53958   0.75000   0.00000  Uiso   1.00
O734   O     0.22679   0.46042   0.75001   0.00000  Uiso   1.00
O735   O     0.22679   0.53958   0.75001   0.00000  Uiso   1.00
O736   O     0.10655   0.46042   0.75000   0.00000  Uiso   1.00
O737   O     0.16666   0.53960   0.68513   0.00000  Uiso   1.00
O738   O     0.16668   0.46040   0.81487   0.00000  Uiso   1.00
O739   O     0.16668   0.53960   0.81487   0.00000  Uiso   1.00
O740   O     0.16666   0.46040   0.68513   0.00000  Uiso   1.00
H741   H     0.17603   0.42522   0.88934   0.00000  Uiso   1.00
H742   H     0.15730   0.57478   0.61066   0.00000  Uiso   1.00
H743   H     0.15196   0.61724   0.95903   0.00000  Uiso   1.00
H744   H     0.18138   0.38276   0.54097   0.00000  Uiso   1.00
F745   F     0.15069   0.62600   0.54450   0.00000  Uiso   1.00
F746   F     0.18264   0.37400   0.95550   0.00000  Uiso   1.00
F747   F     0.04131   0.42582   0.71193   0.00000  Uiso   1.00
F748   F     0.29203   0.57418   0.78807   0.00000  Uiso   1.00
F749   F     0.29176   0.42580   0.71200   0.00000  Uiso   1.00
F750   F     0.04157   0.57420   0.78800   0.00000  Uiso   1.00
H751   H     0.12182   0.37687   0.69903   0.00000  Uiso   1.00
H752   H     0.21151   0.62313   0.80097   0.00000  Uiso   1.00
H753   H     0.21153   0.37687   0.80095   0.00000  Uiso   1.00
H754   H     0.12180   0.62313   0.69905   0.00000  Uiso   1.00
C755   C     0.42071   0.50000   0.74997   0.00000  Uiso   1.00
C756   C     0.57929   0.50000   0.75003   0.00000  Uiso   1.00
C757   C     0.48938   0.58472   0.52288   0.00000  Uiso   1.00
C758   C     0.51062   0.41528   0.97712   0.00000  Uiso   1.00
C759   C     0.35457   0.46220   0.73128   0.00000  Uiso   1.00
C760   C     0.64543   0.53780   0.76872   0.00000  Uiso   1.00
C761   C     0.64530   0.46219   0.73131   0.00000  Uiso   1.00
C762   C     0.35470   0.53781   0.76869   0.00000  Uiso   1.00
C763   C     0.62389   0.50000   0.75003   0.00000  Uiso   1.00
C764   C     0.37611   0.50000   0.74997   0.00000  Uiso   1.00
C765   C     0.47509   0.35815   0.72170   0.00000  Uiso   1.00
C766   C     0.52490   0.64185   0.77830   0.00000  Uiso   1.00
C767   C     0.52491   0.35814   0.77830   0.00000  Uiso   1.00
C768   C     0.47509   0.64185   0.72170   0.00000  Uiso   1.00
C769   C     0.49994   0.50001   0.66427   0.00000  Uiso   1.00
C770   C     0.50006   0.49999   0.83573   0.00000  Uiso   1.00
C771   C     0.50525   0.45775   0.90734   0.00000  Uiso   1.00
C772   C     0.49475   0.54225   0.59266   0.00000  Uiso   1.00
C773   C     0.50011   0.49997   0.88416   0.00000  Uiso   1.00
C774   C     0.49989   0.50003   0.61584   0.00000  Uiso   1.00
C775   C     0.49498   0.54216   0.90730   0.00000  Uiso   1.00
C776   C     0.50502   0.45784   0.59270   0.00000  Uiso   1.00
C777   C     0.49483   0.54243   0.95347   0.00000  Uiso   1.00
C778   C     0.50517   0.45757   0.54653   0.00000  Uiso   1.00
C779   C     0.50004   0.49994   0.97675   0.00000  Uiso   1.00
C780   C     0.49996   0.50006   0.52325   0.00000  Uiso   1.00
C781   C     0.50533   0.45735   0.95359   0.00000  Uiso   1.00
C782   C     0.49467   0.54265   0.54641   0.00000  Uiso   1.00
C783   C     0.48947   0.58450   0.97668   0.00000  Uiso   1.00
C784   C     0.51053   0.41550   0.52332   0.00000  Uiso   1.00
Cu785  Cu    0.50000   0.54689   0.75000   0.00000  Uiso   1.00
Cu786  Cu    0.50000   0.45311   0.75000   0.00000  Uiso   1.00
H787   H     0.49090   0.57483   0.88944   0.00000  Uiso   1.00
H788   H     0.50910   0.42517   0.61056   0.00000  Uiso   1.00
N789   N     0.50000   0.61736   0.75000   0.00000  Uiso   1.00
N790   N     0.50000   0.38264   0.75000   0.00000  Uiso   1.00
O791   O     0.43988   0.53958   0.75000   0.00000  Uiso   1.00
O792   O     0.56012   0.46042   0.75001   0.00000  Uiso   1.00
O793   O     0.56012   0.53958   0.75001   0.00000  Uiso   1.00
O794   O     0.43988   0.46042   0.75000   0.00000  Uiso   1.00
O795   O     0.49999   0.53960   0.68513   0.00000  Uiso   1.00
O796   O     0.50001   0.46040   0.81487   0.00000  Uiso   1.00
O797   O     0.50001   0.53960   0.81487   0.00000  Uiso   1.00
O798   O     0.49999   0.46040   0.68513   0.00000  Uiso   1.00
H799   H     0.50936   0.42522   0.88934   0.00000  Uiso   1.00
H800   H     0.49064   0.57478   0.61066   0.00000  Uiso   1.00
H801   H     0.48529   0.61724   0.95903   0.00000  Uiso   1.00
H802   H     0.51471   0.38276   0.54097   0.00000  Uiso   1.00
F803   F     0.48403   0.62600   0.54450   0.00000  Uiso   1.00
F804   F     0.51597   0.37400   0.95550   0.00000  Uiso   1.00
F805   F     0.37464   0.42582   0.71193   0.00000  Uiso   1.00
F806   F     0.62536   0.57418   0.78807   0.00000  Uiso   1.00
F807   F     0.62510   0.42580   0.71200   0.00000  Uiso   1.00
F808   F     0.37490   0.57420   0.78800   0.00000  Uiso   1.00
H809   H     0.45516   0.37687   0.69903   0.00000  Uiso   1.00
H810   H     0.54484   0.62313   0.80097   0.00000  Uiso   1.00
H811   H     0.54486   0.37687   0.80095   0.00000  Uiso   1.00
H812   H     0.45514   0.62313   0.69905   0.00000  Uiso   1.00
C813   C     0.75404   0.50000   0.74997   0.00000  Uiso   1.00
C814   C     0.91262   0.50000   0.75003   0.00000  Uiso   1.00
C815   C     0.82271   0.58472   0.52288   0.00000  Uiso   1.00
C816   C     0.84396   0.41528   0.97712   0.00000  Uiso   1.00
C817   C     0.68791   0.46220   0.73128   0.00000  Uiso   1.00
C818   C     0.97876   0.53780   0.76872   0.00000  Uiso   1.00
C819   C     0.97863   0.46219   0.73131   0.00000  Uiso   1.00
C820   C     0.68803   0.53781   0.76869   0.00000  Uiso   1.00
C821   C     0.95722   0.50000   0.75003   0.00000  Uiso   1.00
C822   C     0.70945   0.50000   0.74997   0.00000  Uiso   1.00
C823   C     0.80843   0.35815   0.72170   0.00000  Uiso   1.00
C824   C     0.85824   0.64185   0.77830   0.00000  Uiso   1.00
C825   C     0.85824   0.35814   0.77830   0.00000  Uiso   1.00
C826   C     0.80842   0.64185   0.72170   0.00000  Uiso   1.00
C827   C     0.83327   0.50001   0.66427   0.00000  Uiso   1.00
C828   C     0.83339   0.49999   0.83573   0.00000  Uiso   1.00
C829   C     0.83859   0.45775   0.90734   0.00000  Uiso   1.00
C830   C     0.82808   0.54225   0.59266   0.00000  Uiso   1.00
C831   C     0.83344   0.49997   0.88416   0.00000  Uiso   1.00
C832   C     0.83322   0.50003   0.61584   0.00000  Uiso   1.00
C833   C     0.82832   0.54216   0.90730   0.00000  Uiso   1.00
C834   C     0.83835   0.45784   0.59270   0.00000  Uiso   1.00
C835   C     0.82816   0.54243   0.95347   0.00000  Uiso   1.00
C836   C     0.83851   0.45757   0.54653   0.00000  Uiso   1.00
C837   C     0.83338   0.49994   0.97675   0.00000  Uiso   1.00
C838   C     0.83329   0.50006   0.52325   0.00000  Uiso   1.00
C839   C     0.83867   0.45735   0.95359   0.00000  Uiso   1.00
C840   C     0.82800   0.54265   0.54641   0.00000  Uiso   1.00
C841   C     0.82281   0.58450   0.97668   0.00000  Uiso   1.00
C842   C     0.84386   0.41550   0.52332   0.00000  Uiso   1.00
Cu843  Cu    0.83333   0.54689   0.75000   0.00000  Uiso   1.00
Cu844  Cu    0.83333   0.45311   0.75000   0.00000  Uiso   1.00
H845   H     0.82423   0.57483   0.88944   0.00000  Uiso   1.00
H846   H     0.84244   0.42517   0.61056   0.00000  Uiso   1.00
N847   N     0.83333   0.61736   0.75000   0.00000  Uiso   1.00
N848   N     0.83333   0.38264   0.75000   0.00000  Uiso   1.00
O849   O     0.77321   0.53958   0.75000   0.00000  Uiso   1.00
O850   O     0.89345   0.46042   0.75001   0.00000  Uiso   1.00
O851   O     0.89345   0.53958   0.75001   0.00000  Uiso   1.00
O852   O     0.77321   0.46042   0.75000   0.00000  Uiso   1.00
O853   O     0.83332   0.53960   0.68513   0.00000  Uiso   1.00
O854   O     0.83334   0.46040   0.81487   0.00000  Uiso   1.00
O855   O     0.83334   0.53960   0.81487   0.00000  Uiso   1.00
O856   O     0.83332   0.46040   0.68513   0.00000  Uiso   1.00
H857   H     0.84270   0.42522   0.88934   0.00000  Uiso   1.00
H858   H     0.82397   0.57478   0.61066   0.00000  Uiso   1.00
H859   H     0.81862   0.61724   0.95903   0.00000  Uiso   1.00
H860   H     0.84804   0.38276   0.54097   0.00000  Uiso   1.00
F861   F     0.81736   0.62600   0.54450   0.00000  Uiso   1.00
F862   F     0.84931   0.37400   0.95550   0.00000  Uiso   1.00
F863   F     0.70797   0.42582   0.71193   0.00000  Uiso   1.00
F864   F     0.95869   0.57418   0.78807   0.00000  Uiso   1.00
F865   F     0.95843   0.42580   0.71200   0.00000  Uiso   1.00
F866   F     0.70824   0.57420   0.78800   0.00000  Uiso   1.00
H867   H     0.78849   0.37687   0.69903   0.00000  Uiso   1.00
H868   H     0.87817   0.62313   0.80097   0.00000  Uiso   1.00
H869   H     0.87820   0.37687   0.80095   0.00000  Uiso   1.00
H870   H     0.78847   0.62313   0.69905   0.00000  Uiso   1.00
C871   C     0.08738   0.83333   0.74997   0.00000  Uiso   1.00
C872   C     0.24596   0.83333   0.75003   0.00000  Uiso   1.00
C873   C     0.15604   0.91805   0.52288   0.00000  Uiso   1.00
C874   C     0.17729   0.74861   0.97712   0.00000  Uiso   1.00
C875   C     0.02124   0.79553   0.73128   0.00000  Uiso   1.00
C876   C     0.31209   0.87114   0.76872   0.00000  Uiso   1.00
C877   C     0.31197   0.79552   0.73131   0.00000  Uiso   1.00
C878   C     0.02137   0.87114   0.76869   0.00000  Uiso   1.00
C879   C     0.29055   0.83333   0.75003   0.00000  Uiso   1.00
C880   C     0.04278   0.83334   0.74997   0.00000  Uiso   1.00
C881   C     0.14176   0.69148   0.72170   0.00000  Uiso   1.00
C882   C     0.19157   0.97518   0.77830   0.00000  Uiso   1.00
C883   C     0.19158   0.69148   0.77830   0.00000  Uiso   1.00
C884   C     0.14176   0.97519   0.72170   0.00000  Uiso   1.00
C885   C     0.16661   0.83334   0.66427   0.00000  Uiso   1.00
C886   C     0.16672   0.83333   0.83573   0.00000  Uiso   1.00
C887   C     0.17192   0.79108   0.90734   0.00000  Uiso   1.00
C888   C     0.16141   0.87558   0.59266   0.00000  Uiso   1.00
C889   C     0.16678   0.83331   0.88416   0.00000  Uiso   1.00
C890   C     0.16656   0.83336   0.61584   0.00000  Uiso   1.00
C891   C     0.16165   0.87550   0.90730   0.00000  Uiso   1.00
C892   C     0.17168   0.79117   0.59270   0.00000  Uiso   1.00
C893   C     0.16149   0.87577   0.95347   0.00000  Uiso   1.00
C894   C     0.17184   0.79090   0.54653   0.00000  Uiso   1.00
C895   C     0.16671   0.83327   0.97675   0.00000  Uiso   1.00
C896   C     0.16662   0.83339   0.52325   0.00000  Uiso   1.00
C897   C     0.17200   0.79069   0.95359   0.00000  Uiso   1.00
C898   C     0.16133   0.87598   0.54641   0.00000  Uiso   1.00
C899   C     0.15614   0.91784   0.97668   0.00000  Uiso   1.00
C900   C     0.17719   0.74883   0.52332   0.00000  Uiso   1.00
Cu901  Cu    0.16667   0.88022   0.75000   0.00000  Uiso   1.00
Cu902  Cu    0.16667   0.78645   0.75000   0.00000  Uiso   1.00
H903   H     0.15756   0.90816   0.88944   0.00000  Uiso   1.00
H904   H     0.17577   0.75851   0.61056   0.00000  Uiso   1.00
N905   N     0.16667   0.95069   0.75000   0.00000  Uiso   1.00
N906   N     0.16667   0.71598   0.75000   0.00000  Uiso   1.00
O907   O     0.10655   0.87291   0.75000   0.00000  Uiso   1.00
O908   O     0.22679   0.79375   0.75001   0.00000  Uiso   1.00
O909   O     0.22679   0.87291   0.75001   0.00000  Uiso   1.00
O910   O     0.10655   0.79375   0.75000   0.00000  Uiso   1.00
O911   O     0.16666   0.87293   0.68513   0.00000  Uiso   1.00
O912   O     0.16668   0.79373   0.81487   0.00000  Uiso   1.00
O913   O     0.16668   0.87293   0.81487   0.00000  Uiso   1.00
O914   O     0.16666   0.79373   0.68513   0.00000  Uiso   1.00
H915   H     0.17603   0.75856   0.88934   0.00000  Uiso   1.00
H916   H     0.15730   0.90811   0.61066   0.00000  Uiso   1.00
H917   H     0.15196   0.95057   0.95903   0.00000  Uiso   1.00
H918   H     0.18138   0.71609   0.54097   0.00000  Uiso   1.00
F919   F     0.15069   0.95933   0.54450   0.00000  Uiso   1.00
F920   F     0.18264   0.70734   0.95550   0.00000  Uiso   1.00
F921   F     0.04131   0.75916   0.71193   0.00000  Uiso   1.00
F922   F     0.29203   0.90751   0.78807   0.00000  Uiso   1.00
F923   F     0.29176   0.75914   0.71200   0.00000  Uiso   1.00
F924   F     0.04157   0.90753   0.78800   0.00000  Uiso   1.00
H925   H     0.12182   0.71021   0.69903   0.00000  Uiso   1.00
H926   H     0.21151   0.95646   0.80097   0.00000  Uiso   1.00
H927   H     0.21153   0.71020   0.80095   0.00000  Uiso   1.00
H928   H     0.12180   0.95647   0.69905   0.00000  Uiso   1.00
C929   C     0.42071   0.83333   0.74997   0.00000  Uiso   1.00
C930   C     0.57929   0.83333   0.75003   0.00000  Uiso   1.00
C931   C     0.48938   0.91805   0.52288   0.00000  Uiso   1.00
C932   C     0.51062   0.74861   0.97712   0.00000  Uiso   1.00
C933   C     0.35457   0.79553   0.73128   0.00000  Uiso   1.00
C934   C     0.64543   0.87114   0.76872   0.00000  Uiso   1.00
C935   C     0.64530   0.79552   0.73131   0.00000  Uiso   1.00
C936   C     0.35470   0.87114   0.76869   0.00000  Uiso   1.00
C937   C     0.62389   0.83333   0.75003   0.00000  Uiso   1.00
C938   C     0.37611   0.83334   0.74997   0.00000  Uiso   1.00
C939   C     0.47509   0.69148   0.72170   0.00000  Uiso   1.00
C940   C     0.52490   0.97518   0.77830   0.00000  Uiso   1.00
C941   C     0.52491   0.69148   0.77830   0.00000  Uiso   1.00
C942   C     0.47509   0.97519   0.72170   0.00000  Uiso   1.00
C943   C     0.49994   0.83334   0.66427   0.00000  Uiso   1.00
C944   C     0.50006   0.83333   0.83573   0.00000  Uiso   1.00
C945   C     0.50525   0.79108   0.90734   0.00000  Uiso   1.00
C946   C     0.49475   0.87558   0.59266   0.00000  Uiso   1.00
C947   C     0.50011   0.83331   0.88416   0.00000  Uiso   1.00
C948   C     0.49989   0.83336   0.61584   0.00000  Uiso   1.00
C949   C     0.49498   0.87550   0.90730   0.00000  Uiso   1.00
C950   C     0.50502   0.79117   0.59270   0.00000  Uiso   1.00
C951   C     0.49483   0.87577   0.95347   0.00000  Uiso   1.00
C952   C     0.50517   0.79090   0.54653   0.00000  Uiso   1.00
C953   C     0.50004   0.83327   0.97675   0.00000  Uiso   1.00
C954   C     0.49996   0.83339   0.52325   0.00000  Uiso   1.00
C955   C     0.50533   0.79069   0.95359   0.00000  Uiso   1.00
C956   C     0.49467   0.87598   0.54641   0.00000  Uiso   1.00
C957   C     0.48947   0.91784   0.97668   0.00000  Uiso   1.00
C958   C     0.51053   0.74883   0.52332   0.00000  Uiso   1.00
Cu959  Cu    0.50000   0.88022   0.75000   0.00000  Uiso   1.00
Cu960  Cu    0.50000   0.78645   0.75000   0.00000  Uiso   1.00
H961   H     0.49090   0.90816   0.88944   0.00000  Uiso   1.00
H962   H     0.50910   0.75851   0.61056   0.00000  Uiso   1.00
N963   N     0.50000   0.95069   0.75000   0.00000  Uiso   1.00
N964   N     0.50000   0.71598   0.75000   0.00000  Uiso   1.00
O965   O     0.43988   0.87291   0.75000   0.00000  Uiso   1.00
O966   O     0.56012   0.79375   0.75001   0.00000  Uiso   1.00
O967   O     0.56012   0.87291   0.75001   0.00000  Uiso   1.00
O968   O     0.43988   0.79375   0.75000   0.00000  Uiso   1.00
O969   O     0.49999   0.87293   0.68513   0.00000  Uiso   1.00
O970   O     0.50001   0.79373   0.81487   0.00000  Uiso   1.00
O971   O     0.50001   0.87293   0.81487   0.00000  Uiso   1.00
O972   O     0.49999   0.79373   0.68513   0.00000  Uiso   1.00
H973   H     0.50936   0.75856   0.88934   0.00000  Uiso   1.00
H974   H     0.49064   0.90811   0.61066   0.00000  Uiso   1.00
H975   H     0.48529   0.95057   0.95903   0.00000  Uiso   1.00
H976   H     0.51471   0.71609   0.54097   0.00000  Uiso   1.00
F977   F     0.48403   0.95933   0.54450   0.00000  Uiso   1.00
F978   F     0.51597   0.70734   0.95550   0.00000  Uiso   1.00
F979   F     0.37464   0.75916   0.71193   0.00000  Uiso   1.00
F980   F     0.62536   0.90751   0.78807   0.00000  Uiso   1.00
F981   F     0.62510   0.75914   0.71200   0.00000  Uiso   1.00
F982   F     0.37490   0.90753   0.78800   0.00000  Uiso   1.00
H983   H     0.45516   0.71021   0.69903   0.00000  Uiso   1.00
H984   H     0.54484   0.95646   0.80097   0.00000  Uiso   1.00
H985   H     0.54486   0.71020   0.80095   0.00000  Uiso   1.00
H986   H     0.45514   0.95647   0.69905   0.00000  Uiso   1.00
C987   C     0.75404   0.83333   0.74997   0.00000  Uiso   1.00
C988   C     0.91262   0.83333   0.75003   0.00000  Uiso   1.00
C989   C     0.82271   0.91805   0.52288   0.00000  Uiso   1.00
C990   C     0.84396   0.74861   0.97712   0.00000  Uiso   1.00
C991   C     0.68791   0.79553   0.73128   0.00000  Uiso   1.00
C992   C     0.97876   0.87114   0.76872   0.00000  Uiso   1.00
C993   C     0.97863   0.79552   0.73131   0.00000  Uiso   1.00
C994   C     0.68803   0.87114   0.76869   0.00000  Uiso   1.00
C995   C     0.95722   0.83333   0.75003   0.00000  Uiso   1.00
C996   C     0.70945   0.83334   0.74997   0.00000  Uiso   1.00
C997   C     0.80843   0.69148   0.72170   0.00000  Uiso   1.00
C998   C     0.85824   0.97518   0.77830   0.00000  Uiso   1.00
C999   C     0.85824   0.69148   0.77830   0.00000  Uiso   1.00
C1000  C     0.80842   0.97519   0.72170   0.00000  Uiso   1.00
C1001  C     0.83327   0.83334   0.66427   0.00000  Uiso   1.00
C1002  C     0.83339   0.83333   0.83573   0.00000  Uiso   1.00
C1003  C     0.83859   0.79108   0.90734   0.00000  Uiso   1.00
C1004  C     0.82808   0.87558   0.59266   0.00000  Uiso   1.00
C1005  C     0.83344   0.83331   0.88416   0.00000  Uiso   1.00
C1006  C     0.83322   0.83336   0.61584   0.00000  Uiso   1.00
C1007  C     0.82832   0.87550   0.90730   0.00000  Uiso   1.00
C1008  C     0.83835   0.79117   0.59270   0.00000  Uiso   1.00
C1009  C     0.82816   0.87577   0.95347   0.00000  Uiso   1.00
C1010  C     0.83851   0.79090   0.54653   0.00000  Uiso   1.00
C1011  C     0.83338   0.83327   0.97675   0.00000  Uiso   1.00
C1012  C     0.83329   0.83339   0.52325   0.00000  Uiso   1.00
C1013  C     0.83867   0.79069   0.95359   0.00000  Uiso   1.00
C1014  C     0.82800   0.87598   0.54641   0.00000  Uiso   1.00
C1015  C     0.82281   0.91784   0.97668   0.00000  Uiso   1.00
C1016  C     0.84386   0.74883   0.52332   0.00000  Uiso   1.00
Cu1017 Cu    0.83333   0.88022   0.75000   0.00000  Uiso   1.00
Cu1018 Cu    0.83333   0.78645   0.75000   0.00000  Uiso   1.00
H1019  H     0.82423   0.90816   0.88944   0.00000  Uiso   1.00
H1020  H     0.84244   0.75851   0.61056   0.00000  Uiso   1.00
N1021  N     0.83333   0.95069   0.75000   0.00000  Uiso   1.00
N1022  N     0.83333   0.71598   0.75000   0.00000  Uiso   1.00
O1023  O     0.77321   0.87291   0.75000   0.00000  Uiso   1.00
O1024  O     0.89345   0.79375   0.75001   0.00000  Uiso   1.00
O1025  O     0.89345   0.87291   0.75001   0.00000  Uiso   1.00
O1026  O     0.77321   0.79375   0.75000   0.00000  Uiso   1.00
O1027  O     0.83332   0.87293   0.68513   0.00000  Uiso   1.00
O1028  O     0.83334   0.79373   0.81487   0.00000  Uiso   1.00
O1029  O     0.83334   0.87293   0.81487   0.00000  Uiso   1.00
O1030  O     0.83332   0.79373   0.68513   0.00000  Uiso   1.00
H1031  H     0.84270   0.75856   0.88934   0.00000  Uiso   1.00
H1032  H     0.82397   0.90811   0.61066   0.00000  Uiso   1.00
H1033  H     0.81862   0.95057   0.95903   0.00000  Uiso   1.00
H1034  H     0.84804   0.71609   0.54097   0.00000  Uiso   1.00
F1035  F     0.81736   0.95933   0.54450   0.00000  Uiso   1.00
F1036  F     0.84931   0.70734   0.95550   0.00000  Uiso   1.00
F1037  F     0.70797   0.75916   0.71193   0.00000  Uiso   1.00
F1038  F     0.95869   0.90751   0.78807   0.00000  Uiso   1.00
F1039  F     0.95843   0.75914   0.71200   0.00000  Uiso   1.00
F1040  F     0.70824   0.90753   0.78800   0.00000  Uiso   1.00
H1041  H     0.78849   0.71021   0.69903   0.00000  Uiso   1.00
H1042  H     0.87817   0.95646   0.80097   0.00000  Uiso   1.00
H1043  H     0.87820   0.71020   0.80095   0.00000  Uiso   1.00
H1044  H     0.78847   0.95647   0.69905   0.00000  Uiso   1.00
loop_
_geom_bond_atom_site_label_1
_geom_bond_atom_site_label_2
_geom_bond_distance
_geom_bond_site_symmetry_2
_ccdc_geom_bond_type
C1     O37     1.290   .     A
C1     O40     1.290   .     A
C1     C10     1.449   .     S
C2     O38     1.290   .     A
C2     C9      1.449   .     S
C2     O39     1.290   .     A
C3     F49     1.358   .     S
C3     C28     1.405   .     A
C3     C551    1.394   1_554 S
C4     C27     1.405   .     A
C4     F50     1.358   .     S
C4     C552    1.394   .     S
C5     C10     1.403   .     A
C5     F51     1.359   .     S
C5     C123    1.385   1_455 S
C6     C9      1.403   .     A
C6     F52     1.359   .     S
C6     C66     1.385   .     S
C7     C9      1.403   .     A
C7     F53     1.359   .     S
C7     C63     1.385   .     S
C8     C10     1.403   .     A
C8     F54     1.359   .     S
C8     C122    1.385   1_455 S
C11    N36     1.367   .     A
C11    H55     1.082   .     S
C11    C362    1.416   1_545 S
C12    N35     1.367   .     A
C12    H56     1.082   .     S
C12    C187    1.416   .     S
C13    H57     1.082   .     S
C13    N36     1.367   .     A
C13    C360    1.416   1_545 S
C14    H58     1.082   .     S
C14    N35     1.367   .     A
C14    C185    1.416   .     S
C15    O44     1.293   .     A
C15    C20     1.461   .     S
C15    O41     1.293   .     A
C16    O43     1.293   .     A
C16    C19     1.461   .     S
C16    O42     1.293   .     A
C17    C19     1.403   .     A
C17    H45     1.084   .     S
C17    C27     1.395   .     A
C18    C28     1.395   .     A
C18    H46     1.084   .     S
C18    C20     1.403   .     A
C19    C21     1.402   .     A
C20    C22     1.402   .     A
C21    C23     1.393   .     A
C21    H33     1.084   .     S
C22    H34     1.084   .     S
C22    C24     1.393   .     A
C23    C29     1.401   .     A
C23    C25     1.411   .     A
C24    C30     1.401   .     A
C24    C26     1.411   .     A
C25    C27     1.413   .     A
C25    C548    1.403   .     S
C26    C28     1.413   .     A
C26    C547    1.403   1_554 S
C29    H47     1.084   .     S
C29    C525    1.394   .     S
C30    H48     1.084   .     S
C30    C526    1.394   1_554 S
Cu31   Cu32    2.676   .     S
Cu31   O39     1.965   .     S
Cu31   O43     1.968   .     S
Cu31   N35     2.011   .     S
Cu31   O41     1.968   .     S
Cu31   O37     1.965   .     S
Cu32   N36     2.011   .     S
Cu32   O38     1.965   .     S
Cu32   O40     1.965   .     S
Cu32   O44     1.968   .     S
Cu32   O42     1.968   .     S
C59    O95     1.290   .     A
C59    O98     1.290   .     A
C59    C68     1.449   .     S
C60    O96     1.290   .     A
C60    C67     1.449   .     S
C60    O97     1.290   .     A
C61    F107    1.358   .     S
C61    C86     1.405   .     A
C61    C609    1.394   1_554 S
C62    C85     1.405   .     A
C62    F108    1.358   .     S
C62    C610    1.394   .     S
C63    C68     1.403   .     A
C63    F109    1.359   .     S
C64    C67     1.403   .     A
C64    F110    1.359   .     S
C64    C124    1.385   .     S
C65    C67     1.403   .     A
C65    F111    1.359   .     S
C65    C121    1.385   .     S
C66    C68     1.403   .     A
C66    F112    1.359   .     S
C69    N94     1.367   .     A
C69    H113    1.082   .     S
C69    C420    1.416   1_545 S
C70    N93     1.367   .     A
C70    H114    1.082   .     S
C70    C245    1.416   .     S
C71    H115    1.082   .     S
C71    N94     1.367   .     A
C71    C418    1.416   1_545 S
C72    H116    1.082   .     S
C72    N93     1.367   .     A
C72    C243    1.416   .     S
C73    O102    1.293   .     A
C73    C78     1.461   .     S
C73    O99     1.293   .     A
C74    O101    1.293   .     A
C74    C77     1.461   .     S
C74    O100    1.293   .     A
C75    C77     1.403   .     A
C75    H103    1.084   .     S
C75    C85     1.395   .     A
C76    C86     1.395   .     A
C76    H104    1.084   .     S
C76    C78     1.403   .     A
C77    C79     1.402   .     A
C78    C80     1.402   .     A
C79    C81     1.393   .     A
C79    H91     1.084   .     S
C80    H92     1.084   .     S
C80    C82     1.393   .     A
C81    C87     1.401   .     A
C81    C83     1.411   .     A
C82    C88     1.401   .     A
C82    C84     1.411   .     A
C83    C85     1.413   .     A
C83    C606    1.403   .     S
C84    C86     1.413   .     A
C84    C605    1.403   1_554 S
C87    H105    1.084   .     S
C87    C583    1.394   .     S
C88    H106    1.084   .     S
C88    C584    1.394   1_554 S
Cu89   Cu90    2.676   .     S
Cu89   O97     1.965   .     S
Cu89   O101    1.968   .     S
Cu89   N93     2.011   .     S
Cu89   O99     1.968   .     S
Cu89   O95     1.965   .     S
Cu90   N94     2.011   .     S
Cu90   O96     1.965   .     S
Cu90   O98     1.965   .     S
Cu90   O102    1.968   .     S
Cu90   O100    1.968   .     S
C117   O153    1.290   .     A
C117   O156    1.290   .     A
C117   C126    1.449   .     S
C118   O154    1.290   .     A
C118   C125    1.449   .     S
C118   O155    1.290   .     A
C119   F165    1.358   .     S
C119   C144    1.405   .     A
C119   C667    1.394   1_554 S
C120   C143    1.405   .     A
C120   F166    1.358   .     S
C120   C668    1.394   .     S
C121   C126    1.403   .     A
C121   F167    1.359   .     S
C122   C125    1.403   .     A
C122   F168    1.359   .     S
C122   C8      1.385   1_655 S
C123   C125    1.403   .     A
C123   F169    1.359   .     S
C123   C5      1.385   1_655 S
C124   C126    1.403   .     A
C124   F170    1.359   .     S
C127   N152    1.367   .     A
C127   H171    1.082   .     S
C127   C478    1.416   1_545 S
C128   N151    1.367   .     A
C128   H172    1.082   .     S
C128   C303    1.416   .     S
C129   H173    1.082   .     S
C129   N152    1.367   .     A
C129   C476    1.416   1_545 S
C130   H174    1.082   .     S
C130   N151    1.367   .     A
C130   C301    1.416   .     S
C131   O160    1.293   .     A
C131   C136    1.461   .     S
C131   O157    1.293   .     A
C132   O159    1.293   .     A
C132   C135    1.461   .     S
C132   O158    1.293   .     A
C133   C135    1.403   .     A
C133   H161    1.084   .     S
C133   C143    1.395   .     A
C134   C144    1.395   .     A
C134   H162    1.084   .     S
C134   C136    1.403   .     A
C135   C137    1.402   .     A
C136   C138    1.402   .     A
C137   C139    1.393   .     A
C137   H149    1.084   .     S
C138   H150    1.084   .     S
C138   C140    1.393   .     A
C139   C145    1.401   .     A
C139   C141    1.411   .     A
C140   C146    1.401   .     A
C140   C142    1.411   .     A
C141   C143    1.413   .     A
C141   C664    1.403   .     S
C142   C144    1.413   .     A
C142   C663    1.403   1_554 S
C145   H163    1.084   .     S
C145   C641    1.394   .     S
C146   H164    1.084   .     S
C146   C642    1.394   1_554 S
Cu147  Cu148   2.676   .     S
Cu147  O155    1.965   .     S
Cu147  O159    1.968   .     S
Cu147  N151    2.011   .     S
Cu147  O157    1.968   .     S
Cu147  O153    1.965   .     S
Cu148  N152    2.011   .     S
Cu148  O154    1.965   .     S
Cu148  O156    1.965   .     S
Cu148  O160    1.968   .     S
Cu148  O158    1.968   .     S
C175   O211    1.290   .     A
C175   O214    1.290   .     A
C175   C184    1.449   .     S
C176   O212    1.290   .     A
C176   C183    1.449   .     S
C176   O213    1.290   .     A
C177   F223    1.358   .     S
C177   C202    1.405   .     A
C177   C725    1.394   1_554 S
C178   C201    1.405   .     A
C178   F224    1.358   .     S
C178   C726    1.394   .     S
C179   C184    1.403   .     A
C179   F225    1.359   .     S
C179   C297    1.385   1_455 S
C180   C183    1.403   .     A
C180   F226    1.359   .     S
C180   C240    1.385   .     S
C181   C183    1.403   .     A
C181   F227    1.359   .     S
C181   C237    1.385   .     S
C182   C184    1.403   .     A
C182   F228    1.359   .     S
C182   C296    1.385   1_455 S
C185   N210    1.367   .     A
C185   H229    1.082   .     S
C186   N209    1.367   .     A
C186   H230    1.082   .     S
C186   C361    1.416   .     S
C187   H231    1.082   .     S
C187   N210    1.367   .     A
C188   H232    1.082   .     S
C188   N209    1.367   .     A
C188   C359    1.416   .     S
C189   O218    1.293   .     A
C189   C194    1.461   .     S
C189   O215    1.293   .     A
C190   O217    1.293   .     A
C190   C193    1.461   .     S
C190   O216    1.293   .     A
C191   C193    1.403   .     A
C191   H219    1.084   .     S
C191   C201    1.395   .     A
C192   C202    1.395   .     A
C192   H220    1.084   .     S
C192   C194    1.403   .     A
C193   C195    1.402   .     A
C194   C196    1.402   .     A
C195   C197    1.393   .     A
C195   H207    1.084   .     S
C196   H208    1.084   .     S
C196   C198    1.393   .     A
C197   C203    1.401   .     A
C197   C199    1.411   .     A
C198   C204    1.401   .     A
C198   C200    1.411   .     A
C199   C201    1.413   .     A
C199   C722    1.403   .     S
C200   C202    1.413   .     A
C200   C721    1.403   1_554 S
C203   H221    1.084   .     S
C203   C699    1.394   .     S
C204   H222    1.084   .     S
C204   C700    1.394   1_554 S
Cu205  Cu206   2.676   .     S
Cu205  O213    1.965   .     S
Cu205  O217    1.968   .     S
Cu205  N209    2.011   .     S
Cu205  O215    1.968   .     S
Cu205  O211    1.965   .     S
Cu206  N210    2.011   .     S
Cu206  O212    1.965   .     S
Cu206  O214    1.965   .     S
Cu206  O218    1.968   .     S
Cu206  O216    1.968   .     S
C233   O269    1.290   .     A
C233   O272    1.290   .     A
C233   C242    1.449   .     S
C234   O270    1.290   .     A
C234   C241    1.449   .     S
C234   O271    1.290   .     A
C235   F281    1.358   .     S
C235   C260    1.405   .     A
C235   C783    1.394   1_554 S
C236   C259    1.405   .     A
C236   F282    1.358   .     S
C236   C784    1.394   .     S
C237   C242    1.403   .     A
C237   F283    1.359   .     S
C238   C241    1.403   .     A
C238   F284    1.359   .     S
C238   C298    1.385   .     S
C239   C241    1.403   .     A
C239   F285    1.359   .     S
C239   C295    1.385   .     S
C240   C242    1.403   .     A
C240   F286    1.359   .     S
C243   N268    1.367   .     A
C243   H287    1.082   .     S
C244   N267    1.367   .     A
C244   H288    1.082   .     S
C244   C419    1.416   .     S
C245   H289    1.082   .     S
C245   N268    1.367   .     A
C246   H290    1.082   .     S
C246   N267    1.367   .     A
C246   C417    1.416   .     S
C247   O276    1.293   .     A
C247   C252    1.461   .     S
C247   O273    1.293   .     A
C248   O275    1.293   .     A
C248   C251    1.461   .     S
C248   O274    1.293   .     A
C249   C251    1.403   .     A
C249   H277    1.084   .     S
C249   C259    1.395   .     A
C250   C260    1.395   .     A
C250   H278    1.084   .     S
C250   C252    1.403   .     A
C251   C253    1.402   .     A
C252   C254    1.402   .     A
C253   C255    1.393   .     A
C253   H265    1.084   .     S
C254   H266    1.084   .     S
C254   C256    1.393   .     A
C255   C261    1.401   .     A
C255   C257    1.411   .     A
C256   C262    1.401   .     A
C256   C258    1.411   .     A
C257   C259    1.413   .     A
C257   C780    1.403   .     S
C258   C260    1.413   .     A
C258   C779    1.403   1_554 S
C261   H279    1.084   .     S
C261   C757    1.394   .     S
C262   H280    1.084   .     S
C262   C758    1.394   1_554 S
Cu263  Cu264   2.676   .     S
Cu263  O271    1.965   .     S
Cu263  O275    1.968   .     S
Cu263  N267    2.011   .     S
Cu263  O273    1.968   .     S
Cu263  O269    1.965   .     S
Cu264  N268    2.011   .     S
Cu264  O270    1.965   .     S
Cu264  O272    1.965   .     S
Cu264  O276    1.968   .     S
Cu264  O274    1.968   .     S
C291   O327    1.290   .     A
C291   O330    1.290   .     A
C291   C300    1.449   .     S
C292   O328    1.290   .     A
C292   C299    1.449   .     S
C292   O329    1.290   .     A
C293   F339    1.358   .     S
C293   C318    1.405   .     A
C293   C841    1.394   1_554 S
C294   C317    1.405   .     A
C294   F340    1.358   .     S
C294   C842    1.394   .     S
C295   C300    1.403   .     A
C295   F341    1.359   .     S
C296   C299    1.403   .     A
C296   F342    1.359   .     S
C296   C182    1.385   1_655 S
C297   C299    1.403   .     A
C297   F343    1.359   .     S
C297   C179    1.385   1_655 S
C298   C300    1.403   .     A
C298   F344    1.359   .     S
C301   N326    1.367   .     A
C301   H345    1.082   .     S
C302   N325    1.367   .     A
C302   H346    1.082   .     S
C302   C477    1.416   .     S
C303   H347    1.082   .     S
C303   N326    1.367   .     A
C304   H348    1.082   .     S
C304   N325    1.367   .     A
C304   C475    1.416   .     S
C305   O334    1.293   .     A
C305   C310    1.461   .     S
C305   O331    1.293   .     A
C306   O333    1.293   .     A
C306   C309    1.461   .     S
C306   O332    1.293   .     A
C307   C309    1.403   .     A
C307   H335    1.084   .     S
C307   C317    1.395   .     A
C308   C318    1.395   .     A
C308   H336    1.084   .     S
C308   C310    1.403   .     A
C309   C311    1.402   .     A
C310   C312    1.402   .     A
C311   C313    1.393   .     A
C311   H323    1.084   .     S
C312   H324    1.084   .     S
C312   C314    1.393   .     A
C313   C319    1.401   .     A
C313   C315    1.411   .     A
C314   C320    1.401   .     A
C314   C316    1.411   .     A
C315   C317    1.413   .     A
C315   C838    1.403   .     S
C316   C318    1.413   .     A
C316   C837    1.403   1_554 S
C319   H337    1.084   .     S
C319   C815    1.394   .     S
C320   H338    1.084   .     S
C320   C816    1.394   1_554 S
Cu321  Cu322   2.676   .     S
Cu321  O329    1.965   .     S
Cu321  O333    1.968   .     S
Cu321  N325    2.011   .     S
Cu321  O331    1.968   .     S
Cu321  O327    1.965   .     S
Cu322  N326    2.011   .     S
Cu322  O328    1.965   .     S
Cu322  O330    1.965   .     S
Cu322  O334    1.968   .     S
Cu322  O332    1.968   .     S
C349   O385    1.290   .     A
C349   O388    1.290   .     A
C349   C358    1.449   .     S
C350   O386    1.290   .     A
C350   C357    1.449   .     S
C350   O387    1.290   .     A
C351   F397    1.358   .     S
C351   C376    1.405   .     A
C351   C899    1.394   1_554 S
C352   C375    1.405   .     A
C352   F398    1.358   .     S
C352   C900    1.394   .     S
C353   C358    1.403   .     A
C353   F399    1.359   .     S
C353   C471    1.385   1_455 S
C354   C357    1.403   .     A
C354   F400    1.359   .     S
C354   C414    1.385   .     S
C355   C357    1.403   .     A
C355   F401    1.359   .     S
C355   C411    1.385   .     S
C356   C358    1.403   .     A
C356   F402    1.359   .     S
C356   C470    1.385   1_455 S
C359   N384    1.367   .     A
C359   H403    1.082   .     S
C360   N383    1.367   .     A
C360   H404    1.082   .     S
C360   C13     1.416   1_565 S
C361   H405    1.082   .     S
C361   N384    1.367   .     A
C362   H406    1.082   .     S
C362   N383    1.367   .     A
C362   C11     1.416   1_565 S
C363   O392    1.293   .     A
C363   C368    1.461   .     S
C363   O389    1.293   .     A
C364   O391    1.293   .     A
C364   C367    1.461   .     S
C364   O390    1.293   .     A
C365   C367    1.403   .     A
C365   H393    1.084   .     S
C365   C375    1.395   .     A
C366   C376    1.395   .     A
C366   H394    1.084   .     S
C366   C368    1.403   .     A
C367   C369    1.402   .     A
C368   C370    1.402   .     A
C369   C371    1.393   .     A
C369   H381    1.084   .     S
C370   H382    1.084   .     S
C370   C372    1.393   .     A
C371   C377    1.401   .     A
C371   C373    1.411   .     A
C372   C378    1.401   .     A
C372   C374    1.411   .     A
C373   C375    1.413   .     A
C373   C896    1.403   .     S
C374   C376    1.413   .     A
C374   C895    1.403   1_554 S
C377   H395    1.084   .     S
C377   C873    1.394   .     S
C378   H396    1.084   .     S
C378   C874    1.394   1_554 S
Cu379  Cu380   2.676   .     S
Cu379  O387    1.965   .     S
Cu379  O391    1.968   .     S
Cu379  N383    2.011   .     S
Cu379  O389    1.968   .     S
Cu379  O385    1.965   .     S
Cu380  N384    2.011   .     S
Cu380  O386    1.965   .     S
Cu380  O388    1.965   .     S
Cu380  O392    1.968   .     S
Cu380  O390    1.968   .     S
C407   O443    1.290   .     A
C407   O446    1.290   .     A
C407   C416    1.449   .     S
C408   O444    1.290   .     A
C408   C415    1.449   .     S
C408   O445    1.290   .     A
C409   F455    1.358   .     S
C409   C434    1.405   .     A
C409   C957    1.394   1_554 S
C410   C433    1.405   .     A
C410   F456    1.358   .     S
C410   C958    1.394   .     S
C411   C416    1.403   .     A
C411   F457    1.359   .     S
C412   C415    1.403   .     A
C412   F458    1.359   .     S
C412   C472    1.385   .     S
C413   C415    1.403   .     A
C413   F459    1.359   .     S
C413   C469    1.385   .     S
C414   C416    1.403   .     A
C414   F460    1.359   .     S
C417   N442    1.367   .     A
C417   H461    1.082   .     S
C418   N441    1.367   .     A
C418   H462    1.082   .     S
C418   C71     1.416   1_565 S
C419   H463    1.082   .     S
C419   N442    1.367   .     A
C420   H464    1.082   .     S
C420   N441    1.367   .     A
C420   C69     1.416   1_565 S
C421   O450    1.293   .     A
C421   C426    1.461   .     S
C421   O447    1.293   .     A
C422   O449    1.293   .     A
C422   C425    1.461   .     S
C422   O448    1.293   .     A
C423   C425    1.403   .     A
C423   H451    1.084   .     S
C423   C433    1.395   .     A
C424   C434    1.395   .     A
C424   H452    1.084   .     S
C424   C426    1.403   .     A
C425   C427    1.402   .     A
C426   C428    1.402   .     A
C427   C429    1.393   .     A
C427   H439    1.084   .     S
C428   H440    1.084   .     S
C428   C430    1.393   .     A
C429   C435    1.401   .     A
C429   C431    1.411   .     A
C430   C436    1.401   .     A
C430   C432    1.411   .     A
C431   C433    1.413   .     A
C431   C954    1.403   .     S
C432   C434    1.413   .     A
C432   C953    1.403   1_554 S
C435   H453    1.084   .     S
C435   C931    1.394   .     S
C436   H454    1.084   .     S
C436   C932    1.394   1_554 S
Cu437  Cu438   2.676   .     S
Cu437  O445    1.965   .     S
Cu437  O449    1.968   .     S
Cu437  N441    2.011   .     S
Cu437  O447    1.968   .     S
Cu437  O443    1.965   .     S
Cu438  N442    2.011   .     S
Cu438  O444    1.965   .     S
Cu438  O446    1.965   .     S
Cu438  O450    1.968   .     S
Cu438  O448    1.968   .     S
C465   O501    1.290   .     A
C465   O504    1.290   .     A
C465   C474    1.449   .     S
C466   O502    1.290   .     A
C466   C473    1.449   .     S
C466   O503    1.290   .     A
C467   F513    1.358   .     S
C467   C492    1.405   .     A
C467   C1015   1.394   1_554 S
C468   C491    1.405   .     A
C468   F514    1.358   .     S
C468   C1016   1.394   .     S
C469   C474    1.403   .     A
C469   F515    1.359   .     S
C470   C473    1.403   .     A
C470   F516    1.359   .     S
C470   C356    1.385   1_655 S
C471   C473    1.403   .     A
C471   F517    1.359   .     S
C471   C353    1.385   1_655 S
C472   C474    1.403   .     A
C472   F518    1.359   .     S
C475   N500    1.367   .     A
C475   H519    1.082   .     S
C476   N499    1.367   .     A
C476   H520    1.082   .     S
C476   C129    1.416   1_565 S
C477   H521    1.082   .     S
C477   N500    1.367   .     A
C478   H522    1.082   .     S
C478   N499    1.367   .     A
C478   C127    1.416   1_565 S
C479   O508    1.293   .     A
C479   C484    1.461   .     S
C479   O505    1.293   .     A
C480   O507    1.293   .     A
C480   C483    1.461   .     S
C480   O506    1.293   .     A
C481   C483    1.403   .     A
C481   H509    1.084   .     S
C481   C491    1.395   .     A
C482   C492    1.395   .     A
C482   H510    1.084   .     S
C482   C484    1.403   .     A
C483   C485    1.402   .     A
C484   C486    1.402   .     A
C485   C487    1.393   .     A
C485   H497    1.084   .     S
C486   H498    1.084   .     S
C486   C488    1.393   .     A
C487   C493    1.401   .     A
C487   C489    1.411   .     A
C488   C494    1.401   .     A
C488   C490    1.411   .     A
C489   C491    1.413   .     A
C489   C1012   1.403   .     S
C490   C492    1.413   .     A
C490   C1011   1.403   1_554 S
C493   H511    1.084   .     S
C493   C989    1.394   .     S
C494   H512    1.084   .     S
C494   C990    1.394   1_554 S
Cu495  Cu496   2.676   .     S
Cu495  O503    1.965   .     S
Cu495  O507    1.968   .     S
Cu495  N499    2.011   .     S
Cu495  O505    1.968   .     S
Cu495  O501    1.965   .     S
Cu496  N500    2.011   .     S
Cu496  O502    1.965   .     S
Cu496  O504    1.965   .     S
Cu496  O508    1.968   .     S
Cu496  O506    1.968   .     S
C523   O559    1.290   .     A
C523   O562    1.290   .     A
C523   C532    1.449   .     S
C524   O560    1.290   .     A
C524   C531    1.449   .     S
C524   O561    1.290   .     A
C525   F571    1.358   .     S
C525   C550    1.405   .     A
C526   C549    1.405   .     A
C526   F572    1.358   .     S
C526   C30     1.394   1_556 S
C527   C532    1.403   .     A
C527   F573    1.359   .     S
C527   C645    1.385   1_455 S
C528   C531    1.403   .     A
C528   F574    1.359   .     S
C528   C588    1.385   .     S
C529   C531    1.403   .     A
C529   F575    1.359   .     S
C529   C585    1.385   .     S
C530   C532    1.403   .     A
C530   F576    1.359   .     S
C530   C644    1.385   1_455 S
C533   N558    1.367   .     A
C533   H577    1.082   .     S
C533   C884    1.416   1_545 S
C534   N557    1.367   .     A
C534   H578    1.082   .     S
C534   C709    1.416   .     S
C535   H579    1.082   .     S
C535   N558    1.367   .     A
C535   C882    1.416   1_545 S
C536   H580    1.082   .     S
C536   N557    1.367   .     A
C536   C707    1.416   .     S
C537   O566    1.293   .     A
C537   C542    1.461   .     S
C537   O563    1.293   .     A
C538   O565    1.293   .     A
C538   C541    1.461   .     S
C538   O564    1.293   .     A
C539   C541    1.403   .     A
C539   H567    1.084   .     S
C539   C549    1.395   .     A
C540   C550    1.395   .     A
C540   H568    1.084   .     S
C540   C542    1.403   .     A
C541   C543    1.402   .     A
C542   C544    1.402   .     A
C543   C545    1.393   .     A
C543   H555    1.084   .     S
C544   H556    1.084   .     S
C544   C546    1.393   .     A
C545   C551    1.401   .     A
C545   C547    1.411   .     A
C546   C552    1.401   .     A
C546   C548    1.411   .     A
C547   C549    1.413   .     A
C547   C26     1.403   1_556 S
C548   C550    1.413   .     A
C551   H569    1.084   .     S
C551   C3      1.394   1_556 S
C552   H570    1.084   .     S
Cu553  Cu554   2.676   .     S
Cu553  O561    1.965   .     S
Cu553  O565    1.968   .     S
Cu553  N557    2.011   .     S
Cu553  O563    1.968   .     S
Cu553  O559    1.965   .     S
Cu554  N558    2.011   .     S
Cu554  O560    1.965   .     S
Cu554  O562    1.965   .     S
Cu554  O566    1.968   .     S
Cu554  O564    1.968   .     S
C581   O617    1.290   .     A
C581   O620    1.290   .     A
C581   C590    1.449   .     S
C582   O618    1.290   .     A
C582   C589    1.449   .     S
C582   O619    1.290   .     A
C583   F629    1.358   .     S
C583   C608    1.405   .     A
C584   C607    1.405   .     A
C584   F630    1.358   .     S
C584   C88     1.394   1_556 S
C585   C590    1.403   .     A
C585   F631    1.359   .     S
C586   C589    1.403   .     A
C586   F632    1.359   .     S
C586   C646    1.385   .     S
C587   C589    1.403   .     A
C587   F633    1.359   .     S
C587   C643    1.385   .     S
C588   C590    1.403   .     A
C588   F634    1.359   .     S
C591   N616    1.367   .     A
C591   H635    1.082   .     S
C591   C942    1.416   1_545 S
C592   N615    1.367   .     A
C592   H636    1.082   .     S
C592   C767    1.416   .     S
C593   H637    1.082   .     S
C593   N616    1.367   .     A
C593   C940    1.416   1_545 S
C594   H638    1.082   .     S
C594   N615    1.367   .     A
C594   C765    1.416   .     S
C595   O624    1.293   .     A
C595   C600    1.461   .     S
C595   O621    1.293   .     A
C596   O623    1.293   .     A
C596   C599    1.461   .     S
C596   O622    1.293   .     A
C597   C599    1.403   .     A
C597   H625    1.084   .     S
C597   C607    1.395   .     A
C598   C608    1.395   .     A
C598   H626    1.084   .     S
C598   C600    1.403   .     A
C599   C601    1.402   .     A
C600   C602    1.402   .     A
C601   C603    1.393   .     A
C601   H613    1.084   .     S
C602   H614    1.084   .     S
C602   C604    1.393   .     A
C603   C609    1.401   .     A
C603   C605    1.411   .     A
C604   C610    1.401   .     A
C604   C606    1.411   .     A
C605   C607    1.413   .     A
C605   C84     1.403   1_556 S
C606   C608    1.413   .     A
C609   H627    1.084   .     S
C609   C61     1.394   1_556 S
C610   H628    1.084   .     S
Cu611  Cu612   2.676   .     S
Cu611  O619    1.965   .     S
Cu611  O623    1.968   .     S
Cu611  N615    2.011   .     S
Cu611  O621    1.968   .     S
Cu611  O617    1.965   .     S
Cu612  N616    2.011   .     S
Cu612  O618    1.965   .     S
Cu612  O620    1.965   .     S
Cu612  O624    1.968   .     S
Cu612  O622    1.968   .     S
C639   O675    1.290   .     A
C639   O678    1.290   .     A
C639   C648    1.449   .     S
C640   O676    1.290   .     A
C640   C647    1.449   .     S
C640   O677    1.290   .     A
C641   F687    1.358   .     S
C641   C666    1.405   .     A
C642   C665    1.405   .     A
C642   F688    1.358   .     S
C642   C146    1.394   1_556 S
C643   C648    1.403   .     A
C643   F689    1.359   .     S
C644   C647    1.403   .     A
C644   F690    1.359   .     S
C644   C530    1.385   1_655 S
C645   C647    1.403   .     A
C645   F691    1.359   .     S
C645   C527    1.385   1_655 S
C646   C648    1.403   .     A
C646   F692    1.359   .     S
C649   N674    1.367   .     A
C649   H693    1.082   .     S
C649   C1000   1.416   1_545 S
C650   N673    1.367   .     A
C650   H694    1.082   .     S
C650   C825    1.416   .     S
C651   H695    1.082   .     S
C651   N674    1.367   .     A
C651   C998    1.416   1_545 S
C652   H696    1.082   .     S
C652   N673    1.367   .     A
C652   C823    1.416   .     S
C653   O682    1.293   .     A
C653   C658    1.461   .     S
C653   O679    1.293   .     A
C654   O681    1.293   .     A
C654   C657    1.461   .     S
C654   O680    1.293   .     A
C655   C657    1.403   .     A
C655   H683    1.084   .     S
C655   C665    1.395   .     A
C656   C666    1.395   .     A
C656   H684    1.084   .     S
C656   C658    1.403   .     A
C657   C659    1.402   .     A
C658   C660    1.402   .     A
C659   C661    1.393   .     A
C659   H671    1.084   .     S
C660   H672    1.084   .     S
C660   C662    1.393   .     A
C661   C667    1.401   .     A
C661   C663    1.411   .     A
C662   C668    1.401   .     A
C662   C664    1.411   .     A
C663   C665    1.413   .     A
C663   C142    1.403   1_556 S
C664   C666    1.413   .     A
C667   H685    1.084   .     S
C667   C119    1.394   1_556 S
C668   H686    1.084   .     S
Cu669  Cu670   2.676   .     S
Cu669  O677    1.965   .     S
Cu669  O681    1.968   .     S
Cu669  N673    2.011   .     S
Cu669  O679    1.968   .     S
Cu669  O675    1.965   .     S
Cu670  N674    2.011   .     S
Cu670  O676    1.965   .     S
Cu670  O678    1.965   .     S
Cu670  O682    1.968   .     S
Cu670  O680    1.968   .     S
C697   O733    1.290   .     A
C697   O736    1.290   .     A
C697   C706    1.449   .     S
C698   O734    1.290   .     A
C698   C705    1.449   .     S
C698   O735    1.290   .     A
C699   F745    1.358   .     S
C699   C724    1.405   .     A
C700   C723    1.405   .     A
C700   F746    1.358   .     S
C700   C204    1.394   1_556 S
C701   C706    1.403   .     A
C701   F747    1.359   .     S
C701   C819    1.385   1_455 S
C702   C705    1.403   .     A
C702   F748    1.359   .     S
C702   C762    1.385   .     S
C703   C705    1.403   .     A
C703   F749    1.359   .     S
C703   C759    1.385   .     S
C704   C706    1.403   .     A
C704   F750    1.359   .     S
C704   C818    1.385   1_455 S
C707   N732    1.367   .     A
C707   H751    1.082   .     S
C708   N731    1.367   .     A
C708   H752    1.082   .     S
C708   C883    1.416   .     S
C709   H753    1.082   .     S
C709   N732    1.367   .     A
C710   H754    1.082   .     S
C710   N731    1.367   .     A
C710   C881    1.416   .     S
C711   O740    1.293   .     A
C711   C716    1.461   .     S
C711   O737    1.293   .     A
C712   O739    1.293   .     A
C712   C715    1.461   .     S
C712   O738    1.293   .     A
C713   C715    1.403   .     A
C713   H741    1.084   .     S
C713   C723    1.395   .     A
C714   C724    1.395   .     A
C714   H742    1.084   .     S
C714   C716    1.403   .     A
C715   C717    1.402   .     A
C716   C718    1.402   .     A
C717   C719    1.393   .     A
C717   H729    1.084   .     S
C718   H730    1.084   .     S
C718   C720    1.393   .     A
C719   C725    1.401   .     A
C719   C721    1.411   .     A
C720   C726    1.401   .     A
C720   C722    1.411   .     A
C721   C723    1.413   .     A
C721   C200    1.403   1_556 S
C722   C724    1.413   .     A
C725   H743    1.084   .     S
C725   C177    1.394   1_556 S
C726   H744    1.084   .     S
Cu727  Cu728   2.676   .     S
Cu727  O735    1.965   .     S
Cu727  O739    1.968   .     S
Cu727  N731    2.011   .     S
Cu727  O737    1.968   .     S
Cu727  O733    1.965   .     S
Cu728  N732    2.011   .     S
Cu728  O734    1.965   .     S
Cu728  O736    1.965   .     S
Cu728  O740    1.968   .     S
Cu728  O738    1.968   .     S
C755   O791    1.290   .     A
C755   O794    1.290   .     A
C755   C764    1.449   .     S
C756   O792    1.290   .     A
C756   C763    1.449   .     S
C756   O793    1.290   .     A
C757   F803    1.358   .     S
C757   C782    1.405   .     A
C758   C781    1.405   .     A
C758   F804    1.358   .     S
C758   C262    1.394   1_556 S
C759   C764    1.403   .     A
C759   F805    1.359   .     S
C760   C763    1.403   .     A
C760   F806    1.359   .     S
C760   C820    1.385   .     S
C761   C763    1.403   .     A
C761   F807    1.359   .     S
C761   C817    1.385   .     S
C762   C764    1.403   .     A
C762   F808    1.359   .     S
C765   N790    1.367   .     A
C765   H809    1.082   .     S
C766   N789    1.367   .     A
C766   H810    1.082   .     S
C766   C941    1.416   .     S
C767   H811    1.082   .     S
C767   N790    1.367   .     A
C768   H812    1.082   .     S
C768   N789    1.367   .     A
C768   C939    1.416   .     S
C769   O798    1.293   .     A
C769   C774    1.461   .     S
C769   O795    1.293   .     A
C770   O797    1.293   .     A
C770   C773    1.461   .     S
C770   O796    1.293   .     A
C771   C773    1.403   .     A
C771   H799    1.084   .     S
C771   C781    1.395   .     A
C772   C782    1.395   .     A
C772   H800    1.084   .     S
C772   C774    1.403   .     A
C773   C775    1.402   .     A
C774   C776    1.402   .     A
C775   C777    1.393   .     A
C775   H787    1.084   .     S
C776   H788    1.084   .     S
C776   C778    1.393   .     A
C777   C783    1.401   .     A
C777   C779    1.411   .     A
C778   C784    1.401   .     A
C778   C780    1.411   .     A
C779   C781    1.413   .     A
C779   C258    1.403   1_556 S
C780   C782    1.413   .     A
C783   H801    1.084   .     S
C783   C235    1.394   1_556 S
C784   H802    1.084   .     S
Cu785  Cu786   2.676   .     S
Cu785  O793    1.965   .     S
Cu785  O797    1.968   .     S
Cu785  N789    2.011   .     S
Cu785  O795    1.968   .     S
Cu785  O791    1.965   .     S
Cu786  N790    2.011   .     S
Cu786  O792    1.965   .     S
Cu786  O794    1.965   .     S
Cu786  O798    1.968   .     S
Cu786  O796    1.968   .     S
C813   O849    1.290   .     A
C813   O852    1.290   .     A
C813   C822    1.449   .     S
C814   O850    1.290   .     A
C814   C821    1.449   .     S
C814   O851    1.290   .     A
C815   F861    1.358   .     S
C815   C840    1.405   .     A
C816   C839    1.405   .     A
C816   F862    1.358   .     S
C816   C320    1.394   1_556 S
C817   C822    1.403   .     A
C817   F863    1.359   .     S
C818   C821    1.403   .     A
C818   F864    1.359   .     S
C818   C704    1.385   1_655 S
C819   C821    1.403   .     A
C819   F865    1.359   .     S
C819   C701    1.385   1_655 S
C820   C822    1.403   .     A
C820   F866    1.359   .     S
C823   N848    1.367   .     A
C823   H867    1.082   .     S
C824   N847    1.367   .     A
C824   H868    1.082   .     S
C824   C999    1.416   .     S
C825   H869    1.082   .     S
C825   N848    1.367   .     A
C826   H870    1.082   .     S
C826   N847    1.367   .     A
C826   C997    1.416   .     S
C827   O856    1.293   .     A
C827   C832    1.461   .     S
C827   O853    1.293   .     A
C828   O855    1.293   .     A
C828   C831    1.461   .     S
C828   O854    1.293   .     A
C829   C831    1.403   .     A
C829   H857    1.084   .     S
C829   C839    1.395   .     A
C830   C840    1.395   .     A
C830   H858    1.084   .     S
C830   C832    1.403   .     A
C831   C833    1.402   .     A
C832   C834    1.402   .     A
C833   C835    1.393   .     A
C833   H845    1.084   .     S
C834   H846    1.084   .     S
C834   C836    1.393   .     A
C835   C841    1.401   .     A
C835   C837    1.411   .     A
C836   C842    1.401   .     A
C836   C838    1.411   .     A
C837   C839    1.413   .     A
C837   C316    1.403   1_556 S
C838   C840    1.413   .     A
C841   H859    1.084   .     S
C841   C293    1.394   1_556 S
C842   H860    1.084   .     S
Cu843  Cu844   2.676   .     S
Cu843  O851    1.965   .     S
Cu843  O855    1.968   .     S
Cu843  N847    2.011   .     S
Cu843  O853    1.968   .     S
Cu843  O849    1.965   .     S
Cu844  N848    2.011   .     S
Cu844  O850    1.965   .     S
Cu844  O852    1.965   .     S
Cu844  O856    1.968   .     S
Cu844  O854    1.968   .     S
C871   O907    1.290   .     A
C871   O910    1.290   .     A
C871   C880    1.449   .     S
C872   O908    1.290   .     A
C872   C879    1.449   .     S
C872   O909    1.290   .     A
C873   F919    1.358   .     S
C873   C898    1.405   .     A
C874   C897    1.405   .     A
C874   F920    1.358   .     S
C874   C378    1.394   1_556 S
C875   C880    1.403   .     A
C875   F921    1.359   .     S
C875   C993    1.385   1_455 S
C876   C879    1.403   .     A
C876   F922    1.359   .     S
C876   C936    1.385   .     S
C877   C879    1.403   .     A
C877   F923    1.359   .     S
C877   C933    1.385   .     S
C878   C880    1.403   .     A
C878   F924    1.359   .     S
C878   C992    1.385   1_455 S
C881   N906    1.367   .     A
C881   H925    1.082   .     S
C882   N905    1.367   .     A
C882   H926    1.082   .     S
C882   C535    1.416   1_565 S
C883   H927    1.082   .     S
C883   N906    1.367   .     A
C884   H928    1.082   .     S
C884   N905    1.367   .     A
C884   C533    1.416   1_565 S
C885   O914    1.293   .     A
C885   C890    1.461   .     S
C885   O911    1.293   .     A
C886   O913    1.293   .     A
C886   C889    1.461   .     S
C886   O912    1.293   .     A
C887   C889    1.403   .     A
C887   H915    1.084   .     S
C887   C897    1.395   .     A
C888   C898    1.395   .     A
C888   H916    1.084   .     S
C888   C890    1.403   .     A
C889   C891    1.402   .     A
C890   C892    1.402   .     A
C891   C893    1.393   .     A
C891   H903    1.084   .     S
C892   H904    1.084   .     S
C892   C894    1.393   .     A
C893   C899    1.401   .     A
C893   C895    1.411   .     A
C894   C900    1.401   .     A
C894   C896    1.411   .     A
C895   C897    1.413   .     A
C895   C374    1.403   1_556 S
C896   C898    1.413   .     A
C899   H917    1.084   .     S
C899   C351    1.394   1_556 S
C900   H918    1.084   .     S
Cu901  Cu902   2.676   .     S
Cu901  O909    1.965   .     S
Cu901  O913    1.968   .     S
Cu901  N905    2.011   .     S
Cu901  O911    1.968   .     S
Cu901  O907    1.965   .     S
Cu902  N906    2.011   .     S
Cu902  O908    1.965   .     S
Cu902  O910    1.965   .     S
Cu902  O914    1.968   .     S
Cu902  O912    1.968   .     S
C929   O965    1.290   .     A
C929   O968    1.290   .     A
C929   C938    1.449   .     S
C930   O966    1.290   .     A
C930   C937    1.449   .     S
C930   O967    1.290   .     A
C931   F977    1.358   .     S
C931   C956    1.405   .     A
C932   C955    1.405   .     A
C932   F978    1.358   .     S
C932   C436    1.394   1_556 S
C933   C938    1.403   .     A
C933   F979    1.359   .     S
C934   C937    1.403   .     A
C934   F980    1.359   .     S
C934   C994    1.385   .     S
C935   C937    1.403   .     A
C935   F981    1.359   .     S
C935   C991    1.385   .     S
C936   C938    1.403   .     A
C936   F982    1.359   .     S
C939   N964    1.367   .     A
C939   H983    1.082   .     S
C940   N963    1.367   .     A
C940   H984    1.082   .     S
C940   C593    1.416   1_565 S
C941   H985    1.082   .     S
C941   N964    1.367   .     A
C942   H986    1.082   .     S
C942   N963    1.367   .     A
C942   C591    1.416   1_565 S
C943   O972    1.293   .     A
C943   C948    1.461   .     S
C943   O969    1.293   .     A
C944   O971    1.293   .     A
C944   C947    1.461   .     S
C944   O970    1.293   .     A
C945   C947    1.403   .     A
C945   H973    1.084   .     S
C945   C955    1.395   .     A
C946   C956    1.395   .     A
C946   H974    1.084   .     S
C946   C948    1.403   .     A
C947   C949    1.402   .     A
C948   C950    1.402   .     A
C949   C951    1.393   .     A
C949   H961    1.084   .     S
C950   H962    1.084   .     S
C950   C952    1.393   .     A
C951   C957    1.401   .     A
C951   C953    1.411   .     A
C952   C958    1.401   .     A
C952   C954    1.411   .     A
C953   C955    1.413   .     A
C953   C432    1.403   1_556 S
C954   C956    1.413   .     A
C957   H975    1.084   .     S
C957   C409    1.394   1_556 S
C958   H976    1.084   .     S
Cu959  Cu960   2.676   .     S
Cu959  O967    1.965   .     S
Cu959  O971    1.968   .     S
Cu959  N963    2.011   .     S
Cu959  O969    1.968   .     S
Cu959  O965    1.965   .     S
Cu960  N964    2.011   .     S
Cu960  O966    1.965   .     S
Cu960  O968    1.965   .     S
Cu960  O972    1.968   .     S
Cu960  O970    1.968   .     S
C987   O1023   1.290   .     A
C987   O1026   1.290   .     A
C987   C996    1.449   .     S
C988   O1024   1.290   .     A
C988   C995    1.449   .     S
C988   O1025   1.290   .     A
C989   F1035   1.358   .     S
C989   C1014   1.405   .     A
C990   C1013   1.405   .     A
C990   F1036   1.358   .     S
C990   C494    1.394   1_556 S
C991   C996    1.403   .     A
C991   F1037   1.359   .     S
C992   C995    1.403   .     A
C992   F1038   1.359   .     S
C992   C878    1.385   1_655 S
C993   C995    1.403   .     A
C993   F1039   1.359   .     S
C993   C875    1.385   1_655 S
C994   C996    1.403   .     A
C994   F1040   1.359   .     S
C997   N1022   1.367   .     A
C997   H1041   1.082   .     S
C998   N1021   1.367   .     A
C998   H1042   1.082   .     S
C998   C651    1.416   1_565 S
C999   H1043   1.082   .     S
C999   N1022   1.367   .     A
C1000  H1044   1.082   .     S
C1000  N1021   1.367   .     A
C1000  C649    1.416   1_565 S
C1001  O1030   1.293   .     A
C1001  C1006   1.461   .     S
C1001  O1027   1.293   .     A
C1002  O1029   1.293   .     A
C1002  C1005   1.461   .     S
C1002  O1028   1.293   .     A
C1003  C1005   1.403   .     A
C1003  H1031   1.084   .     S
C1003  C1013   1.395   .     A
C1004  C1014   1.395   .     A
C1004  H1032   1.084   .     S
C1004  C1006   1.403   .     A
C1005  C1007   1.402   .     A
C1006  C1008   1.402   .     A
C1007  C1009   1.393   .     A
C1007  H1019   1.084   .     S
C1008  H1020   1.084   .     S
C1008  C1010   1.393   .     A
C1009  C1015   1.401   .     A
C1009  C1011   1.411   .     A
C1010  C1016   1.401   .     A
C1010  C1012   1.411   .     A
C1011  C1013   1.413   .     A
C1011  C490    1.403   1_556 S
C1012  C1014   1.413   .     A
C1015  H1033   1.084   .     S
C1015  C467    1.394   1_556 S
C1016  H1034   1.084   .     S
Cu1017 Cu1018  2.676   .     S
Cu1017 O1025   1.965   .     S
Cu1017 O1029   1.968   .     S
Cu1017 N1021   2.011   .     S
Cu1017 O1027   1.968   .     S
Cu1017 O1023   1.965   .     S
Cu1018 N1022   2.011   .     S
Cu1018 O1024   1.965   .     S
Cu1018 O1026   1.965   .     S
Cu1018 O1030   1.968   .     S
Cu1018 O1028   1.968   .     S
