data_str_m1_o10_o18_pcu_sym.177
_audit_creation_date              2020-01-03
_audit_creation_method            'Materials Studio'
_symmetry_space_group_name_H-M    'P1'
_symmetry_Int_Tables_number       1
_symmetry_cell_setting            triclinic
loop_
_symmetry_equiv_pos_as_xyz
  x,y,z
_cell_length_a                    32.7179
_cell_length_b                    32.5348
_cell_length_c                    35.4785
_cell_angle_alpha                 97.7449
_cell_angle_beta                  73.1382
_cell_angle_gamma                 97.9457
loop_
_atom_site_label
_atom_site_type_symbol
_atom_site_fract_x
_atom_site_fract_y
_atom_site_fract_z
_atom_site_U_iso_or_equiv
_atom_site_adp_type
_atom_site_occupancy
C1     C     0.05293   0.16057   0.25835   0.00000  Uiso   1.00
C2     C     0.21541   0.14175   0.45647   0.00000  Uiso   1.00
C3     C     0.23332   0.11945   0.47733   0.00000  Uiso   1.00
C4     C     0.28087   0.17337   0.24168   0.00000  Uiso   1.00
C5     C     0.22381   0.12702   0.01849   0.00000  Uiso   1.00
C6     C     0.19955   0.16045   0.03836   0.00000  Uiso   1.00
C7     C     0.23733   0.10115   0.04021   0.00000  Uiso   1.00
C8     C     0.22541   0.10701   0.08139   0.00000  Uiso   1.00
C9     C     0.18386   0.16264   0.07993   0.00000  Uiso   1.00
C10    C     0.32626   0.17386   0.23851   0.00000  Uiso   1.00
C11    C     0.00752   0.15764   0.26472   0.00000  Uiso   1.00
C12    C     0.12869   0.24031   0.41605   0.00000  Uiso   1.00
C13    C     0.18032   0.32210   0.23839   0.00000  Uiso   1.00
C14    C     0.15167   0.01259   0.26297   0.00000  Uiso   1.00
C15    C     0.15624   0.05624   0.25891   0.00000  Uiso   1.00
C16    C     0.17676   0.27766   0.24146   0.00000  Uiso   1.00
C17    C     0.18817   0.14551   0.14402   0.00000  Uiso   1.00
C18    C     0.14586   0.18803   0.35635   0.00000  Uiso   1.00
C19    C     0.14316   0.20171   0.39837   0.00000  Uiso   1.00
C20    C     0.19825   0.13732   0.10117   0.00000  Uiso   1.00
C21    C     0.13249   0.25562   0.45363   0.00000  Uiso   1.00
C22    C     0.15986   0.17797   0.41956   0.00000  Uiso   1.00
C23    C     0.16786   0.19484   0.45593   0.00000  Uiso   1.00
C24    C     0.15246   0.23352   0.47350   0.00000  Uiso   1.00
C25    C     0.18981   0.17412   0.47583   0.00000  Uiso   1.00
C26    C     0.18869   0.18810   0.01579   0.00000  Uiso   1.00
C27    C     0.17867   0.22957   0.03032   0.00000  Uiso   1.00
C28    C     0.15915   0.25080   0.00974   0.00000  Uiso   1.00
F29    F     0.11797   0.33059   0.29200   0.00000  Uiso   1.00
F30    F     0.15210   0.18669   0.09984   0.00000  Uiso   1.00
F31    F     0.25798   0.08882   0.45736   0.00000  Uiso   1.00
F32    F     0.11811   0.29302   0.46993   0.00000  Uiso   1.00
F33    F     0.11187   0.26392   0.39668   0.00000  Uiso   1.00
F34    F     0.16522   0.13753   0.40556   0.00000  Uiso   1.00
H35    H     0.15085   0.28202   0.02144   0.00000  Uiso   1.00
H36    H     0.25691   0.07628   0.02545   0.00000  Uiso   1.00
H37    H     0.01575   0.18752   0.21328   0.00000  Uiso   1.00
H38    H     0.20680   0.00241   0.21564   0.00000  Uiso   1.00
H39    H     0.23688   0.08757   0.09785   0.00000  Uiso   1.00
H40    H     0.22401   0.13463   0.42475   0.00000  Uiso   1.00
H41    H     0.32336   0.11935   0.36108   0.00000  Uiso   1.00
H42    H     0.22998   0.32483   0.07078   0.00000  Uiso   1.00
O43    O     0.16667   0.16667   0.25000   0.00000  Uiso   1.00
O44    O     0.15693   0.12393   0.16625   0.00000  Uiso   1.00
O45    O     0.12687   0.20646   0.33749   0.00000  Uiso   1.00
O46    O     0.21088   0.17493   0.15877   0.00000  Uiso   1.00
O47    O     0.17198   0.16135   0.33749   0.00000  Uiso   1.00
O48    O     0.28062   0.16965   0.33440   0.00000  Uiso   1.00
O49    O     0.28359   0.09803   0.30178   0.00000  Uiso   1.00
O50    O     0.00940   0.12880   0.33599   0.00000  Uiso   1.00
O51    O     0.16597   0.26877   0.10391   0.00000  Uiso   1.00
O52    O     0.23598   0.24149   0.07409   0.00000  Uiso   1.00
O53    O     0.22135   0.30745   0.04864   0.00000  Uiso   1.00
O54    O     0.17849   0.08101   0.27820   0.00000  Uiso   1.00
O55    O     0.14581   0.26136   0.26767   0.00000  Uiso   1.00
O56    O     0.07452   0.13251   0.23607   0.00000  Uiso   1.00
O57    O     0.26785   0.19179   0.21805   0.00000  Uiso   1.00
O58    O     0.06990   0.18960   0.27820   0.00000  Uiso   1.00
O59    O     0.25440   0.15277   0.26767   0.00000  Uiso   1.00
O60    O     0.13800   0.06903   0.23607   0.00000  Uiso   1.00
O61    O     0.20437   0.25527   0.21805   0.00000  Uiso   1.00
S62    S     0.30983   0.13813   0.31012   0.00000  Uiso   1.00
S63    S     0.20078   0.26119   0.06610   0.00000  Uiso   1.00
Zn64   Zn    0.19244   0.14090   0.28277   0.00000  Uiso   1.00
Zn65   Zn    0.13459   0.12378   0.22257   0.00000  Uiso   1.00
Zn66   Zn    0.21166   0.19664   0.21188   0.00000  Uiso   1.00
Zn67   Zn    0.12798   0.20535   0.28277   0.00000  Uiso   1.00
C68    C     0.38626   0.16057   0.25835   0.00000  Uiso   1.00
C69    C     0.54874   0.14175   0.45647   0.00000  Uiso   1.00
C70    C     0.56666   0.11945   0.47733   0.00000  Uiso   1.00
C71    C     0.61421   0.17337   0.24168   0.00000  Uiso   1.00
C72    C     0.55715   0.12702   0.01849   0.00000  Uiso   1.00
C73    C     0.53288   0.16045   0.03836   0.00000  Uiso   1.00
C74    C     0.57066   0.10115   0.04021   0.00000  Uiso   1.00
C75    C     0.55874   0.10701   0.08139   0.00000  Uiso   1.00
C76    C     0.51719   0.16264   0.07993   0.00000  Uiso   1.00
C77    C     0.65959   0.17386   0.23851   0.00000  Uiso   1.00
C78    C     0.34085   0.15764   0.26472   0.00000  Uiso   1.00
C79    C     0.46203   0.24031   0.41605   0.00000  Uiso   1.00
C80    C     0.51366   0.32210   0.23839   0.00000  Uiso   1.00
C81    C     0.48500   0.01259   0.26297   0.00000  Uiso   1.00
C82    C     0.48957   0.05624   0.25891   0.00000  Uiso   1.00
C83    C     0.51009   0.27766   0.24146   0.00000  Uiso   1.00
C84    C     0.52150   0.14551   0.14402   0.00000  Uiso   1.00
C85    C     0.47920   0.18803   0.35635   0.00000  Uiso   1.00
C86    C     0.47649   0.20171   0.39837   0.00000  Uiso   1.00
C87    C     0.53159   0.13732   0.10117   0.00000  Uiso   1.00
C88    C     0.46582   0.25562   0.45363   0.00000  Uiso   1.00
C89    C     0.49320   0.17797   0.41956   0.00000  Uiso   1.00
C90    C     0.50119   0.19484   0.45593   0.00000  Uiso   1.00
C91    C     0.48579   0.23352   0.47350   0.00000  Uiso   1.00
C92    C     0.52314   0.17412   0.47583   0.00000  Uiso   1.00
C93    C     0.52202   0.18810   0.01579   0.00000  Uiso   1.00
C94    C     0.51200   0.22957   0.03032   0.00000  Uiso   1.00
C95    C     0.49248   0.25080   0.00974   0.00000  Uiso   1.00
F96    F     0.45130   0.33059   0.29200   0.00000  Uiso   1.00
F97    F     0.48544   0.18669   0.09984   0.00000  Uiso   1.00
F98    F     0.59131   0.08882   0.45736   0.00000  Uiso   1.00
F99    F     0.45145   0.29302   0.46993   0.00000  Uiso   1.00
F100   F     0.44520   0.26392   0.39668   0.00000  Uiso   1.00
F101   F     0.49856   0.13753   0.40556   0.00000  Uiso   1.00
H102   H     0.48418   0.28202   0.02144   0.00000  Uiso   1.00
H103   H     0.59024   0.07628   0.02545   0.00000  Uiso   1.00
H104   H     0.34908   0.18752   0.21328   0.00000  Uiso   1.00
H105   H     0.54014   0.00241   0.21564   0.00000  Uiso   1.00
H106   H     0.57022   0.08757   0.09785   0.00000  Uiso   1.00
H107   H     0.55735   0.13463   0.42475   0.00000  Uiso   1.00
H108   H     0.65669   0.11935   0.36108   0.00000  Uiso   1.00
H109   H     0.56331   0.32483   0.07078   0.00000  Uiso   1.00
O110   O     0.50000   0.16667   0.25000   0.00000  Uiso   1.00
O111   O     0.49027   0.12393   0.16625   0.00000  Uiso   1.00
O112   O     0.46020   0.20646   0.33749   0.00000  Uiso   1.00
O113   O     0.54421   0.17493   0.15877   0.00000  Uiso   1.00
O114   O     0.50532   0.16135   0.33749   0.00000  Uiso   1.00
O115   O     0.61395   0.16965   0.33440   0.00000  Uiso   1.00
O116   O     0.61692   0.09803   0.30178   0.00000  Uiso   1.00
O117   O     0.34273   0.12880   0.33599   0.00000  Uiso   1.00
O118   O     0.49930   0.26877   0.10391   0.00000  Uiso   1.00
O119   O     0.56932   0.24149   0.07409   0.00000  Uiso   1.00
O120   O     0.55468   0.30745   0.04864   0.00000  Uiso   1.00
O121   O     0.51182   0.08101   0.27820   0.00000  Uiso   1.00
O122   O     0.47914   0.26136   0.26767   0.00000  Uiso   1.00
O123   O     0.40785   0.13251   0.23607   0.00000  Uiso   1.00
O124   O     0.60119   0.19179   0.21805   0.00000  Uiso   1.00
O125   O     0.40323   0.18960   0.27820   0.00000  Uiso   1.00
O126   O     0.58773   0.15277   0.26767   0.00000  Uiso   1.00
O127   O     0.47133   0.06903   0.23607   0.00000  Uiso   1.00
O128   O     0.53771   0.25527   0.21805   0.00000  Uiso   1.00
S129   S     0.64317   0.13813   0.31012   0.00000  Uiso   1.00
S130   S     0.53412   0.26119   0.06610   0.00000  Uiso   1.00
Zn131  Zn    0.52577   0.14090   0.28277   0.00000  Uiso   1.00
Zn132  Zn    0.46792   0.12378   0.22257   0.00000  Uiso   1.00
Zn133  Zn    0.54500   0.19664   0.21188   0.00000  Uiso   1.00
Zn134  Zn    0.46131   0.20535   0.28277   0.00000  Uiso   1.00
C135   C     0.71960   0.16057   0.25835   0.00000  Uiso   1.00
C136   C     0.88207   0.14175   0.45647   0.00000  Uiso   1.00
C137   C     0.89999   0.11945   0.47733   0.00000  Uiso   1.00
C138   C     0.94754   0.17337   0.24168   0.00000  Uiso   1.00
C139   C     0.89048   0.12702   0.01849   0.00000  Uiso   1.00
C140   C     0.86621   0.16045   0.03836   0.00000  Uiso   1.00
C141   C     0.90399   0.10115   0.04021   0.00000  Uiso   1.00
C142   C     0.89208   0.10701   0.08139   0.00000  Uiso   1.00
C143   C     0.85053   0.16264   0.07993   0.00000  Uiso   1.00
C144   C     0.99292   0.17386   0.23851   0.00000  Uiso   1.00
C145   C     0.67419   0.15764   0.26472   0.00000  Uiso   1.00
C146   C     0.79536   0.24031   0.41605   0.00000  Uiso   1.00
C147   C     0.84699   0.32210   0.23839   0.00000  Uiso   1.00
C148   C     0.81833   0.01259   0.26297   0.00000  Uiso   1.00
C149   C     0.82290   0.05624   0.25891   0.00000  Uiso   1.00
C150   C     0.84342   0.27766   0.24146   0.00000  Uiso   1.00
C151   C     0.85483   0.14551   0.14402   0.00000  Uiso   1.00
C152   C     0.81253   0.18803   0.35635   0.00000  Uiso   1.00
C153   C     0.80983   0.20171   0.39837   0.00000  Uiso   1.00
C154   C     0.86492   0.13732   0.10117   0.00000  Uiso   1.00
C155   C     0.79915   0.25562   0.45363   0.00000  Uiso   1.00
C156   C     0.82653   0.17797   0.41956   0.00000  Uiso   1.00
C157   C     0.83452   0.19484   0.45593   0.00000  Uiso   1.00
C158   C     0.81912   0.23352   0.47350   0.00000  Uiso   1.00
C159   C     0.85648   0.17412   0.47583   0.00000  Uiso   1.00
C160   C     0.85535   0.18810   0.01579   0.00000  Uiso   1.00
C161   C     0.84534   0.22957   0.03032   0.00000  Uiso   1.00
C162   C     0.82582   0.25080   0.00974   0.00000  Uiso   1.00
F163   F     0.78463   0.33059   0.29200   0.00000  Uiso   1.00
F164   F     0.81877   0.18669   0.09984   0.00000  Uiso   1.00
F165   F     0.92464   0.08882   0.45736   0.00000  Uiso   1.00
F166   F     0.78478   0.29302   0.46993   0.00000  Uiso   1.00
F167   F     0.77854   0.26392   0.39668   0.00000  Uiso   1.00
F168   F     0.83189   0.13753   0.40556   0.00000  Uiso   1.00
H169   H     0.81752   0.28202   0.02144   0.00000  Uiso   1.00
H170   H     0.92358   0.07628   0.02545   0.00000  Uiso   1.00
H171   H     0.68241   0.18752   0.21328   0.00000  Uiso   1.00
H172   H     0.87347   0.00241   0.21564   0.00000  Uiso   1.00
H173   H     0.90355   0.08757   0.09785   0.00000  Uiso   1.00
H174   H     0.89068   0.13463   0.42475   0.00000  Uiso   1.00
H175   H     0.99003   0.11935   0.36108   0.00000  Uiso   1.00
H176   H     0.89665   0.32483   0.07078   0.00000  Uiso   1.00
O177   O     0.83333   0.16667   0.25000   0.00000  Uiso   1.00
O178   O     0.82360   0.12393   0.16625   0.00000  Uiso   1.00
O179   O     0.79354   0.20646   0.33749   0.00000  Uiso   1.00
O180   O     0.87755   0.17493   0.15877   0.00000  Uiso   1.00
O181   O     0.83865   0.16135   0.33749   0.00000  Uiso   1.00
O182   O     0.94729   0.16965   0.33440   0.00000  Uiso   1.00
O183   O     0.95025   0.09803   0.30178   0.00000  Uiso   1.00
O184   O     0.67607   0.12880   0.33599   0.00000  Uiso   1.00
O185   O     0.83264   0.26877   0.10391   0.00000  Uiso   1.00
O186   O     0.90265   0.24149   0.07409   0.00000  Uiso   1.00
O187   O     0.88802   0.30745   0.04864   0.00000  Uiso   1.00
O188   O     0.84515   0.08101   0.27820   0.00000  Uiso   1.00
O189   O     0.81247   0.26136   0.26767   0.00000  Uiso   1.00
O190   O     0.74119   0.13251   0.23607   0.00000  Uiso   1.00
O191   O     0.93452   0.19179   0.21805   0.00000  Uiso   1.00
O192   O     0.73656   0.18960   0.27820   0.00000  Uiso   1.00
O193   O     0.92106   0.15277   0.26767   0.00000  Uiso   1.00
O194   O     0.80467   0.06903   0.23607   0.00000  Uiso   1.00
O195   O     0.87104   0.25527   0.21805   0.00000  Uiso   1.00
S196   S     0.97650   0.13813   0.31012   0.00000  Uiso   1.00
S197   S     0.86745   0.26119   0.06610   0.00000  Uiso   1.00
Zn198  Zn    0.85910   0.14090   0.28277   0.00000  Uiso   1.00
Zn199  Zn    0.80125   0.12378   0.22257   0.00000  Uiso   1.00
Zn200  Zn    0.87833   0.19664   0.21188   0.00000  Uiso   1.00
Zn201  Zn    0.79465   0.20535   0.28277   0.00000  Uiso   1.00
C202   C     0.05293   0.49390   0.25835   0.00000  Uiso   1.00
C203   C     0.21541   0.47508   0.45647   0.00000  Uiso   1.00
C204   C     0.23332   0.45278   0.47733   0.00000  Uiso   1.00
C205   C     0.28087   0.50670   0.24168   0.00000  Uiso   1.00
C206   C     0.22381   0.46036   0.01849   0.00000  Uiso   1.00
C207   C     0.19955   0.49378   0.03836   0.00000  Uiso   1.00
C208   C     0.23733   0.43449   0.04021   0.00000  Uiso   1.00
C209   C     0.22541   0.44034   0.08139   0.00000  Uiso   1.00
C210   C     0.18386   0.49597   0.07993   0.00000  Uiso   1.00
C211   C     0.32626   0.50719   0.23851   0.00000  Uiso   1.00
C212   C     0.00752   0.49097   0.26472   0.00000  Uiso   1.00
C213   C     0.12869   0.57364   0.41605   0.00000  Uiso   1.00
C214   C     0.18032   0.65543   0.23839   0.00000  Uiso   1.00
C215   C     0.15167   0.34592   0.26297   0.00000  Uiso   1.00
C216   C     0.15624   0.38958   0.25891   0.00000  Uiso   1.00
C217   C     0.17676   0.61099   0.24146   0.00000  Uiso   1.00
C218   C     0.18817   0.47884   0.14402   0.00000  Uiso   1.00
C219   C     0.14586   0.52136   0.35635   0.00000  Uiso   1.00
C220   C     0.14316   0.53504   0.39837   0.00000  Uiso   1.00
C221   C     0.19825   0.47066   0.10117   0.00000  Uiso   1.00
C222   C     0.13249   0.58896   0.45363   0.00000  Uiso   1.00
C223   C     0.15986   0.51130   0.41956   0.00000  Uiso   1.00
C224   C     0.16786   0.52817   0.45593   0.00000  Uiso   1.00
C225   C     0.15246   0.56686   0.47350   0.00000  Uiso   1.00
C226   C     0.18981   0.50745   0.47583   0.00000  Uiso   1.00
C227   C     0.18869   0.52143   0.01579   0.00000  Uiso   1.00
C228   C     0.17867   0.56290   0.03032   0.00000  Uiso   1.00
C229   C     0.15915   0.58413   0.00974   0.00000  Uiso   1.00
F230   F     0.11797   0.66393   0.29200   0.00000  Uiso   1.00
F231   F     0.15210   0.52002   0.09984   0.00000  Uiso   1.00
F232   F     0.25798   0.42215   0.45736   0.00000  Uiso   1.00
F233   F     0.11811   0.62635   0.46993   0.00000  Uiso   1.00
F234   F     0.11187   0.59725   0.39668   0.00000  Uiso   1.00
F235   F     0.16522   0.47087   0.40556   0.00000  Uiso   1.00
H236   H     0.15085   0.61536   0.02144   0.00000  Uiso   1.00
H237   H     0.25691   0.40962   0.02545   0.00000  Uiso   1.00
H238   H     0.01575   0.52085   0.21328   0.00000  Uiso   1.00
H239   H     0.20680   0.33574   0.21564   0.00000  Uiso   1.00
H240   H     0.23688   0.42091   0.09785   0.00000  Uiso   1.00
H241   H     0.22401   0.46796   0.42475   0.00000  Uiso   1.00
H242   H     0.32336   0.45268   0.36108   0.00000  Uiso   1.00
H243   H     0.22998   0.65817   0.07078   0.00000  Uiso   1.00
O244   O     0.16667   0.50000   0.25000   0.00000  Uiso   1.00
O245   O     0.15693   0.45726   0.16625   0.00000  Uiso   1.00
O246   O     0.12687   0.53979   0.33749   0.00000  Uiso   1.00
O247   O     0.21088   0.50826   0.15877   0.00000  Uiso   1.00
O248   O     0.17198   0.49468   0.33749   0.00000  Uiso   1.00
O249   O     0.28062   0.50298   0.33440   0.00000  Uiso   1.00
O250   O     0.28359   0.43137   0.30178   0.00000  Uiso   1.00
O251   O     0.00940   0.46213   0.33599   0.00000  Uiso   1.00
O252   O     0.16597   0.60210   0.10391   0.00000  Uiso   1.00
O253   O     0.23598   0.57483   0.07409   0.00000  Uiso   1.00
O254   O     0.22135   0.64078   0.04864   0.00000  Uiso   1.00
O255   O     0.17849   0.41434   0.27820   0.00000  Uiso   1.00
O256   O     0.14581   0.59469   0.26767   0.00000  Uiso   1.00
O257   O     0.07452   0.46584   0.23607   0.00000  Uiso   1.00
O258   O     0.26785   0.52512   0.21805   0.00000  Uiso   1.00
O259   O     0.06990   0.52293   0.27820   0.00000  Uiso   1.00
O260   O     0.25440   0.48610   0.26767   0.00000  Uiso   1.00
O261   O     0.13800   0.40236   0.23607   0.00000  Uiso   1.00
O262   O     0.20437   0.58860   0.21805   0.00000  Uiso   1.00
S263   S     0.30983   0.47147   0.31012   0.00000  Uiso   1.00
S264   S     0.20078   0.59452   0.06610   0.00000  Uiso   1.00
Zn265  Zn    0.19244   0.47423   0.28277   0.00000  Uiso   1.00
Zn266  Zn    0.13459   0.45711   0.22257   0.00000  Uiso   1.00
Zn267  Zn    0.21166   0.52997   0.21188   0.00000  Uiso   1.00
Zn268  Zn    0.12798   0.53868   0.28277   0.00000  Uiso   1.00
C269   C     0.38626   0.49390   0.25835   0.00000  Uiso   1.00
C270   C     0.54874   0.47508   0.45647   0.00000  Uiso   1.00
C271   C     0.56666   0.45278   0.47733   0.00000  Uiso   1.00
C272   C     0.61421   0.50670   0.24168   0.00000  Uiso   1.00
C273   C     0.55715   0.46036   0.01849   0.00000  Uiso   1.00
C274   C     0.53288   0.49378   0.03836   0.00000  Uiso   1.00
C275   C     0.57066   0.43449   0.04021   0.00000  Uiso   1.00
C276   C     0.55874   0.44034   0.08139   0.00000  Uiso   1.00
C277   C     0.51719   0.49597   0.07993   0.00000  Uiso   1.00
C278   C     0.65959   0.50719   0.23851   0.00000  Uiso   1.00
C279   C     0.34085   0.49097   0.26472   0.00000  Uiso   1.00
C280   C     0.46203   0.57364   0.41605   0.00000  Uiso   1.00
C281   C     0.51366   0.65543   0.23839   0.00000  Uiso   1.00
C282   C     0.48500   0.34592   0.26297   0.00000  Uiso   1.00
C283   C     0.48957   0.38958   0.25891   0.00000  Uiso   1.00
C284   C     0.51009   0.61099   0.24146   0.00000  Uiso   1.00
C285   C     0.52150   0.47884   0.14402   0.00000  Uiso   1.00
C286   C     0.47920   0.52136   0.35635   0.00000  Uiso   1.00
C287   C     0.47649   0.53504   0.39837   0.00000  Uiso   1.00
C288   C     0.53159   0.47066   0.10117   0.00000  Uiso   1.00
C289   C     0.46582   0.58896   0.45363   0.00000  Uiso   1.00
C290   C     0.49320   0.51130   0.41956   0.00000  Uiso   1.00
C291   C     0.50119   0.52817   0.45593   0.00000  Uiso   1.00
C292   C     0.48579   0.56686   0.47350   0.00000  Uiso   1.00
C293   C     0.52314   0.50745   0.47583   0.00000  Uiso   1.00
C294   C     0.52202   0.52143   0.01579   0.00000  Uiso   1.00
C295   C     0.51200   0.56290   0.03032   0.00000  Uiso   1.00
C296   C     0.49248   0.58413   0.00974   0.00000  Uiso   1.00
F297   F     0.45130   0.66393   0.29200   0.00000  Uiso   1.00
F298   F     0.48544   0.52002   0.09984   0.00000  Uiso   1.00
F299   F     0.59131   0.42215   0.45736   0.00000  Uiso   1.00
F300   F     0.45145   0.62635   0.46993   0.00000  Uiso   1.00
F301   F     0.44520   0.59725   0.39668   0.00000  Uiso   1.00
F302   F     0.49856   0.47087   0.40556   0.00000  Uiso   1.00
H303   H     0.48418   0.61536   0.02144   0.00000  Uiso   1.00
H304   H     0.59024   0.40962   0.02545   0.00000  Uiso   1.00
H305   H     0.34908   0.52085   0.21328   0.00000  Uiso   1.00
H306   H     0.54014   0.33574   0.21564   0.00000  Uiso   1.00
H307   H     0.57022   0.42091   0.09785   0.00000  Uiso   1.00
H308   H     0.55735   0.46796   0.42475   0.00000  Uiso   1.00
H309   H     0.65669   0.45268   0.36108   0.00000  Uiso   1.00
H310   H     0.56331   0.65817   0.07078   0.00000  Uiso   1.00
O311   O     0.50000   0.50000   0.25000   0.00000  Uiso   1.00
O312   O     0.49027   0.45726   0.16625   0.00000  Uiso   1.00
O313   O     0.46020   0.53979   0.33749   0.00000  Uiso   1.00
O314   O     0.54421   0.50826   0.15877   0.00000  Uiso   1.00
O315   O     0.50532   0.49468   0.33749   0.00000  Uiso   1.00
O316   O     0.61395   0.50298   0.33440   0.00000  Uiso   1.00
O317   O     0.61692   0.43137   0.30178   0.00000  Uiso   1.00
O318   O     0.34273   0.46213   0.33599   0.00000  Uiso   1.00
O319   O     0.49930   0.60210   0.10391   0.00000  Uiso   1.00
O320   O     0.56932   0.57483   0.07409   0.00000  Uiso   1.00
O321   O     0.55468   0.64078   0.04864   0.00000  Uiso   1.00
O322   O     0.51182   0.41434   0.27820   0.00000  Uiso   1.00
O323   O     0.47914   0.59469   0.26767   0.00000  Uiso   1.00
O324   O     0.40785   0.46584   0.23607   0.00000  Uiso   1.00
O325   O     0.60119   0.52512   0.21805   0.00000  Uiso   1.00
O326   O     0.40323   0.52293   0.27820   0.00000  Uiso   1.00
O327   O     0.58773   0.48610   0.26767   0.00000  Uiso   1.00
O328   O     0.47133   0.40236   0.23607   0.00000  Uiso   1.00
O329   O     0.53771   0.58860   0.21805   0.00000  Uiso   1.00
S330   S     0.64317   0.47147   0.31012   0.00000  Uiso   1.00
S331   S     0.53412   0.59452   0.06610   0.00000  Uiso   1.00
Zn332  Zn    0.52577   0.47423   0.28277   0.00000  Uiso   1.00
Zn333  Zn    0.46792   0.45711   0.22257   0.00000  Uiso   1.00
Zn334  Zn    0.54500   0.52997   0.21188   0.00000  Uiso   1.00
Zn335  Zn    0.46131   0.53868   0.28277   0.00000  Uiso   1.00
C336   C     0.71960   0.49390   0.25835   0.00000  Uiso   1.00
C337   C     0.88207   0.47508   0.45647   0.00000  Uiso   1.00
C338   C     0.89999   0.45278   0.47733   0.00000  Uiso   1.00
C339   C     0.94754   0.50670   0.24168   0.00000  Uiso   1.00
C340   C     0.89048   0.46036   0.01849   0.00000  Uiso   1.00
C341   C     0.86621   0.49378   0.03836   0.00000  Uiso   1.00
C342   C     0.90399   0.43449   0.04021   0.00000  Uiso   1.00
C343   C     0.89208   0.44034   0.08139   0.00000  Uiso   1.00
C344   C     0.85053   0.49597   0.07993   0.00000  Uiso   1.00
C345   C     0.99292   0.50719   0.23851   0.00000  Uiso   1.00
C346   C     0.67419   0.49097   0.26472   0.00000  Uiso   1.00
C347   C     0.79536   0.57364   0.41605   0.00000  Uiso   1.00
C348   C     0.84699   0.65543   0.23839   0.00000  Uiso   1.00
C349   C     0.81833   0.34592   0.26297   0.00000  Uiso   1.00
C350   C     0.82290   0.38958   0.25891   0.00000  Uiso   1.00
C351   C     0.84342   0.61099   0.24146   0.00000  Uiso   1.00
C352   C     0.85483   0.47884   0.14402   0.00000  Uiso   1.00
C353   C     0.81253   0.52136   0.35635   0.00000  Uiso   1.00
C354   C     0.80983   0.53504   0.39837   0.00000  Uiso   1.00
C355   C     0.86492   0.47066   0.10117   0.00000  Uiso   1.00
C356   C     0.79915   0.58896   0.45363   0.00000  Uiso   1.00
C357   C     0.82653   0.51130   0.41956   0.00000  Uiso   1.00
C358   C     0.83452   0.52817   0.45593   0.00000  Uiso   1.00
C359   C     0.81912   0.56686   0.47350   0.00000  Uiso   1.00
C360   C     0.85648   0.50745   0.47583   0.00000  Uiso   1.00
C361   C     0.85535   0.52143   0.01579   0.00000  Uiso   1.00
C362   C     0.84534   0.56290   0.03032   0.00000  Uiso   1.00
C363   C     0.82582   0.58413   0.00974   0.00000  Uiso   1.00
F364   F     0.78463   0.66393   0.29200   0.00000  Uiso   1.00
F365   F     0.81877   0.52002   0.09984   0.00000  Uiso   1.00
F366   F     0.92464   0.42215   0.45736   0.00000  Uiso   1.00
F367   F     0.78478   0.62635   0.46993   0.00000  Uiso   1.00
F368   F     0.77854   0.59725   0.39668   0.00000  Uiso   1.00
F369   F     0.83189   0.47087   0.40556   0.00000  Uiso   1.00
H370   H     0.81752   0.61536   0.02144   0.00000  Uiso   1.00
H371   H     0.92358   0.40962   0.02545   0.00000  Uiso   1.00
H372   H     0.68241   0.52085   0.21328   0.00000  Uiso   1.00
H373   H     0.87347   0.33574   0.21564   0.00000  Uiso   1.00
H374   H     0.90355   0.42091   0.09785   0.00000  Uiso   1.00
H375   H     0.89068   0.46796   0.42475   0.00000  Uiso   1.00
H376   H     0.99003   0.45268   0.36108   0.00000  Uiso   1.00
H377   H     0.89665   0.65817   0.07078   0.00000  Uiso   1.00
O378   O     0.83333   0.50000   0.25000   0.00000  Uiso   1.00
O379   O     0.82360   0.45726   0.16625   0.00000  Uiso   1.00
O380   O     0.79354   0.53979   0.33749   0.00000  Uiso   1.00
O381   O     0.87755   0.50826   0.15877   0.00000  Uiso   1.00
O382   O     0.83865   0.49468   0.33749   0.00000  Uiso   1.00
O383   O     0.94729   0.50298   0.33440   0.00000  Uiso   1.00
O384   O     0.95025   0.43137   0.30178   0.00000  Uiso   1.00
O385   O     0.67607   0.46213   0.33599   0.00000  Uiso   1.00
O386   O     0.83264   0.60210   0.10391   0.00000  Uiso   1.00
O387   O     0.90265   0.57483   0.07409   0.00000  Uiso   1.00
O388   O     0.88802   0.64078   0.04864   0.00000  Uiso   1.00
O389   O     0.84515   0.41434   0.27820   0.00000  Uiso   1.00
O390   O     0.81247   0.59469   0.26767   0.00000  Uiso   1.00
O391   O     0.74119   0.46584   0.23607   0.00000  Uiso   1.00
O392   O     0.93452   0.52512   0.21805   0.00000  Uiso   1.00
O393   O     0.73656   0.52293   0.27820   0.00000  Uiso   1.00
O394   O     0.92106   0.48610   0.26767   0.00000  Uiso   1.00
O395   O     0.80467   0.40236   0.23607   0.00000  Uiso   1.00
O396   O     0.87104   0.58860   0.21805   0.00000  Uiso   1.00
S397   S     0.97650   0.47147   0.31012   0.00000  Uiso   1.00
S398   S     0.86745   0.59452   0.06610   0.00000  Uiso   1.00
Zn399  Zn    0.85910   0.47423   0.28277   0.00000  Uiso   1.00
Zn400  Zn    0.80125   0.45711   0.22257   0.00000  Uiso   1.00
Zn401  Zn    0.87833   0.52997   0.21188   0.00000  Uiso   1.00
Zn402  Zn    0.79465   0.53868   0.28277   0.00000  Uiso   1.00
C403   C     0.05293   0.82724   0.25835   0.00000  Uiso   1.00
C404   C     0.21541   0.80842   0.45647   0.00000  Uiso   1.00
C405   C     0.23332   0.78611   0.47733   0.00000  Uiso   1.00
C406   C     0.28087   0.84004   0.24168   0.00000  Uiso   1.00
C407   C     0.22381   0.79369   0.01849   0.00000  Uiso   1.00
C408   C     0.19955   0.82712   0.03836   0.00000  Uiso   1.00
C409   C     0.23733   0.76782   0.04021   0.00000  Uiso   1.00
C410   C     0.22541   0.77367   0.08139   0.00000  Uiso   1.00
C411   C     0.18386   0.82930   0.07993   0.00000  Uiso   1.00
C412   C     0.32626   0.84052   0.23851   0.00000  Uiso   1.00
C413   C     0.00752   0.82431   0.26472   0.00000  Uiso   1.00
C414   C     0.12869   0.90697   0.41605   0.00000  Uiso   1.00
C415   C     0.18032   0.98876   0.23839   0.00000  Uiso   1.00
C416   C     0.15167   0.67926   0.26297   0.00000  Uiso   1.00
C417   C     0.15624   0.72291   0.25891   0.00000  Uiso   1.00
C418   C     0.17676   0.94432   0.24146   0.00000  Uiso   1.00
C419   C     0.18817   0.81218   0.14402   0.00000  Uiso   1.00
C420   C     0.14586   0.85469   0.35635   0.00000  Uiso   1.00
C421   C     0.14316   0.86838   0.39837   0.00000  Uiso   1.00
C422   C     0.19825   0.80399   0.10117   0.00000  Uiso   1.00
C423   C     0.13249   0.92229   0.45363   0.00000  Uiso   1.00
C424   C     0.15986   0.84464   0.41956   0.00000  Uiso   1.00
C425   C     0.16786   0.86151   0.45593   0.00000  Uiso   1.00
C426   C     0.15246   0.90019   0.47350   0.00000  Uiso   1.00
C427   C     0.18981   0.84079   0.47583   0.00000  Uiso   1.00
C428   C     0.18869   0.85477   0.01579   0.00000  Uiso   1.00
C429   C     0.17867   0.89624   0.03032   0.00000  Uiso   1.00
C430   C     0.15915   0.91747   0.00974   0.00000  Uiso   1.00
F431   F     0.11797   0.99726   0.29200   0.00000  Uiso   1.00
F432   F     0.15210   0.85336   0.09984   0.00000  Uiso   1.00
F433   F     0.25798   0.75549   0.45736   0.00000  Uiso   1.00
F434   F     0.11811   0.95968   0.46993   0.00000  Uiso   1.00
F435   F     0.11187   0.93059   0.39668   0.00000  Uiso   1.00
F436   F     0.16522   0.80420   0.40556   0.00000  Uiso   1.00
H437   H     0.15085   0.94869   0.02144   0.00000  Uiso   1.00
H438   H     0.25691   0.74295   0.02545   0.00000  Uiso   1.00
H439   H     0.01575   0.85419   0.21328   0.00000  Uiso   1.00
H440   H     0.20680   0.66908   0.21564   0.00000  Uiso   1.00
H441   H     0.23688   0.75424   0.09785   0.00000  Uiso   1.00
H442   H     0.22401   0.80129   0.42475   0.00000  Uiso   1.00
H443   H     0.32336   0.78602   0.36108   0.00000  Uiso   1.00
H444   H     0.22998   0.99150   0.07078   0.00000  Uiso   1.00
O445   O     0.16667   0.83333   0.25000   0.00000  Uiso   1.00
O446   O     0.15693   0.79060   0.16625   0.00000  Uiso   1.00
O447   O     0.12687   0.87313   0.33749   0.00000  Uiso   1.00
O448   O     0.21088   0.84159   0.15877   0.00000  Uiso   1.00
O449   O     0.17198   0.82802   0.33749   0.00000  Uiso   1.00
O450   O     0.28062   0.83632   0.33440   0.00000  Uiso   1.00
O451   O     0.28359   0.76470   0.30178   0.00000  Uiso   1.00
O452   O     0.00940   0.79547   0.33599   0.00000  Uiso   1.00
O453   O     0.16597   0.93544   0.10391   0.00000  Uiso   1.00
O454   O     0.23598   0.90816   0.07409   0.00000  Uiso   1.00
O455   O     0.22135   0.97411   0.04864   0.00000  Uiso   1.00
O456   O     0.17849   0.74768   0.27820   0.00000  Uiso   1.00
O457   O     0.14581   0.92803   0.26767   0.00000  Uiso   1.00
O458   O     0.07452   0.79917   0.23607   0.00000  Uiso   1.00
O459   O     0.26785   0.85845   0.21805   0.00000  Uiso   1.00
O460   O     0.06990   0.85627   0.27820   0.00000  Uiso   1.00
O461   O     0.25440   0.81944   0.26767   0.00000  Uiso   1.00
O462   O     0.13800   0.73570   0.23607   0.00000  Uiso   1.00
O463   O     0.20437   0.92193   0.21805   0.00000  Uiso   1.00
S464   S     0.30983   0.80480   0.31012   0.00000  Uiso   1.00
S465   S     0.20078   0.92785   0.06610   0.00000  Uiso   1.00
Zn466  Zn    0.19244   0.80756   0.28277   0.00000  Uiso   1.00
Zn467  Zn    0.13459   0.79044   0.22257   0.00000  Uiso   1.00
Zn468  Zn    0.21166   0.86331   0.21188   0.00000  Uiso   1.00
Zn469  Zn    0.12798   0.87202   0.28277   0.00000  Uiso   1.00
C470   C     0.38626   0.82724   0.25835   0.00000  Uiso   1.00
C471   C     0.54874   0.80842   0.45647   0.00000  Uiso   1.00
C472   C     0.56666   0.78611   0.47733   0.00000  Uiso   1.00
C473   C     0.61421   0.84004   0.24168   0.00000  Uiso   1.00
C474   C     0.55715   0.79369   0.01849   0.00000  Uiso   1.00
C475   C     0.53288   0.82712   0.03836   0.00000  Uiso   1.00
C476   C     0.57066   0.76782   0.04021   0.00000  Uiso   1.00
C477   C     0.55874   0.77367   0.08139   0.00000  Uiso   1.00
C478   C     0.51719   0.82930   0.07993   0.00000  Uiso   1.00
C479   C     0.65959   0.84052   0.23851   0.00000  Uiso   1.00
C480   C     0.34085   0.82431   0.26472   0.00000  Uiso   1.00
C481   C     0.46203   0.90697   0.41605   0.00000  Uiso   1.00
C482   C     0.51366   0.98876   0.23839   0.00000  Uiso   1.00
C483   C     0.48500   0.67926   0.26297   0.00000  Uiso   1.00
C484   C     0.48957   0.72291   0.25891   0.00000  Uiso   1.00
C485   C     0.51009   0.94432   0.24146   0.00000  Uiso   1.00
C486   C     0.52150   0.81218   0.14402   0.00000  Uiso   1.00
C487   C     0.47920   0.85469   0.35635   0.00000  Uiso   1.00
C488   C     0.47649   0.86838   0.39837   0.00000  Uiso   1.00
C489   C     0.53159   0.80399   0.10117   0.00000  Uiso   1.00
C490   C     0.46582   0.92229   0.45363   0.00000  Uiso   1.00
C491   C     0.49320   0.84464   0.41956   0.00000  Uiso   1.00
C492   C     0.50119   0.86151   0.45593   0.00000  Uiso   1.00
C493   C     0.48579   0.90019   0.47350   0.00000  Uiso   1.00
C494   C     0.52314   0.84079   0.47583   0.00000  Uiso   1.00
C495   C     0.52202   0.85477   0.01579   0.00000  Uiso   1.00
C496   C     0.51200   0.89624   0.03032   0.00000  Uiso   1.00
C497   C     0.49248   0.91747   0.00974   0.00000  Uiso   1.00
F498   F     0.45130   0.99726   0.29200   0.00000  Uiso   1.00
F499   F     0.48544   0.85336   0.09984   0.00000  Uiso   1.00
F500   F     0.59131   0.75549   0.45736   0.00000  Uiso   1.00
F501   F     0.45145   0.95968   0.46993   0.00000  Uiso   1.00
F502   F     0.44520   0.93059   0.39668   0.00000  Uiso   1.00
F503   F     0.49856   0.80420   0.40556   0.00000  Uiso   1.00
H504   H     0.48418   0.94869   0.02144   0.00000  Uiso   1.00
H505   H     0.59024   0.74295   0.02545   0.00000  Uiso   1.00
H506   H     0.34908   0.85419   0.21328   0.00000  Uiso   1.00
H507   H     0.54014   0.66908   0.21564   0.00000  Uiso   1.00
H508   H     0.57022   0.75424   0.09785   0.00000  Uiso   1.00
H509   H     0.55735   0.80129   0.42475   0.00000  Uiso   1.00
H510   H     0.65669   0.78602   0.36108   0.00000  Uiso   1.00
H511   H     0.56331   0.99150   0.07078   0.00000  Uiso   1.00
O512   O     0.50000   0.83333   0.25000   0.00000  Uiso   1.00
O513   O     0.49027   0.79060   0.16625   0.00000  Uiso   1.00
O514   O     0.46020   0.87313   0.33749   0.00000  Uiso   1.00
O515   O     0.54421   0.84159   0.15877   0.00000  Uiso   1.00
O516   O     0.50532   0.82802   0.33749   0.00000  Uiso   1.00
O517   O     0.61395   0.83632   0.33440   0.00000  Uiso   1.00
O518   O     0.61692   0.76470   0.30178   0.00000  Uiso   1.00
O519   O     0.34273   0.79547   0.33599   0.00000  Uiso   1.00
O520   O     0.49930   0.93544   0.10391   0.00000  Uiso   1.00
O521   O     0.56932   0.90816   0.07409   0.00000  Uiso   1.00
O522   O     0.55468   0.97411   0.04864   0.00000  Uiso   1.00
O523   O     0.51182   0.74768   0.27820   0.00000  Uiso   1.00
O524   O     0.47914   0.92803   0.26767   0.00000  Uiso   1.00
O525   O     0.40785   0.79917   0.23607   0.00000  Uiso   1.00
O526   O     0.60119   0.85845   0.21805   0.00000  Uiso   1.00
O527   O     0.40323   0.85627   0.27820   0.00000  Uiso   1.00
O528   O     0.58773   0.81944   0.26767   0.00000  Uiso   1.00
O529   O     0.47133   0.73570   0.23607   0.00000  Uiso   1.00
O530   O     0.53771   0.92193   0.21805   0.00000  Uiso   1.00
S531   S     0.64317   0.80480   0.31012   0.00000  Uiso   1.00
S532   S     0.53412   0.92785   0.06610   0.00000  Uiso   1.00
Zn533  Zn    0.52577   0.80756   0.28277   0.00000  Uiso   1.00
Zn534  Zn    0.46792   0.79044   0.22257   0.00000  Uiso   1.00
Zn535  Zn    0.54500   0.86331   0.21188   0.00000  Uiso   1.00
Zn536  Zn    0.46131   0.87202   0.28277   0.00000  Uiso   1.00
C537   C     0.71960   0.82724   0.25835   0.00000  Uiso   1.00
C538   C     0.88207   0.80842   0.45647   0.00000  Uiso   1.00
C539   C     0.89999   0.78611   0.47733   0.00000  Uiso   1.00
C540   C     0.94754   0.84004   0.24168   0.00000  Uiso   1.00
C541   C     0.89048   0.79369   0.01849   0.00000  Uiso   1.00
C542   C     0.86621   0.82712   0.03836   0.00000  Uiso   1.00
C543   C     0.90399   0.76782   0.04021   0.00000  Uiso   1.00
C544   C     0.89208   0.77367   0.08139   0.00000  Uiso   1.00
C545   C     0.85053   0.82930   0.07993   0.00000  Uiso   1.00
C546   C     0.99292   0.84052   0.23851   0.00000  Uiso   1.00
C547   C     0.67419   0.82431   0.26472   0.00000  Uiso   1.00
C548   C     0.79536   0.90697   0.41605   0.00000  Uiso   1.00
C549   C     0.84699   0.98876   0.23839   0.00000  Uiso   1.00
C550   C     0.81833   0.67926   0.26297   0.00000  Uiso   1.00
C551   C     0.82290   0.72291   0.25891   0.00000  Uiso   1.00
C552   C     0.84342   0.94432   0.24146   0.00000  Uiso   1.00
C553   C     0.85483   0.81218   0.14402   0.00000  Uiso   1.00
C554   C     0.81253   0.85469   0.35635   0.00000  Uiso   1.00
C555   C     0.80983   0.86838   0.39837   0.00000  Uiso   1.00
C556   C     0.86492   0.80399   0.10117   0.00000  Uiso   1.00
C557   C     0.79915   0.92229   0.45363   0.00000  Uiso   1.00
C558   C     0.82653   0.84464   0.41956   0.00000  Uiso   1.00
C559   C     0.83452   0.86151   0.45593   0.00000  Uiso   1.00
C560   C     0.81912   0.90019   0.47350   0.00000  Uiso   1.00
C561   C     0.85648   0.84079   0.47583   0.00000  Uiso   1.00
C562   C     0.85535   0.85477   0.01579   0.00000  Uiso   1.00
C563   C     0.84534   0.89624   0.03032   0.00000  Uiso   1.00
C564   C     0.82582   0.91747   0.00974   0.00000  Uiso   1.00
F565   F     0.78463   0.99726   0.29200   0.00000  Uiso   1.00
F566   F     0.81877   0.85336   0.09984   0.00000  Uiso   1.00
F567   F     0.92464   0.75549   0.45736   0.00000  Uiso   1.00
F568   F     0.78478   0.95968   0.46993   0.00000  Uiso   1.00
F569   F     0.77854   0.93059   0.39668   0.00000  Uiso   1.00
F570   F     0.83189   0.80420   0.40556   0.00000  Uiso   1.00
H571   H     0.81752   0.94869   0.02144   0.00000  Uiso   1.00
H572   H     0.92358   0.74295   0.02545   0.00000  Uiso   1.00
H573   H     0.68241   0.85419   0.21328   0.00000  Uiso   1.00
H574   H     0.87347   0.66908   0.21564   0.00000  Uiso   1.00
H575   H     0.90355   0.75424   0.09785   0.00000  Uiso   1.00
H576   H     0.89068   0.80129   0.42475   0.00000  Uiso   1.00
H577   H     0.99003   0.78602   0.36108   0.00000  Uiso   1.00
H578   H     0.89665   0.99150   0.07078   0.00000  Uiso   1.00
O579   O     0.83333   0.83333   0.25000   0.00000  Uiso   1.00
O580   O     0.82360   0.79060   0.16625   0.00000  Uiso   1.00
O581   O     0.79354   0.87313   0.33749   0.00000  Uiso   1.00
O582   O     0.87755   0.84159   0.15877   0.00000  Uiso   1.00
O583   O     0.83865   0.82802   0.33749   0.00000  Uiso   1.00
O584   O     0.94729   0.83632   0.33440   0.00000  Uiso   1.00
O585   O     0.95025   0.76470   0.30178   0.00000  Uiso   1.00
O586   O     0.67607   0.79547   0.33599   0.00000  Uiso   1.00
O587   O     0.83264   0.93544   0.10391   0.00000  Uiso   1.00
O588   O     0.90265   0.90816   0.07409   0.00000  Uiso   1.00
O589   O     0.88802   0.97411   0.04864   0.00000  Uiso   1.00
O590   O     0.84515   0.74768   0.27820   0.00000  Uiso   1.00
O591   O     0.81247   0.92803   0.26767   0.00000  Uiso   1.00
O592   O     0.74119   0.79917   0.23607   0.00000  Uiso   1.00
O593   O     0.93452   0.85845   0.21805   0.00000  Uiso   1.00
O594   O     0.73656   0.85627   0.27820   0.00000  Uiso   1.00
O595   O     0.92106   0.81944   0.26767   0.00000  Uiso   1.00
O596   O     0.80467   0.73570   0.23607   0.00000  Uiso   1.00
O597   O     0.87104   0.92193   0.21805   0.00000  Uiso   1.00
S598   S     0.97650   0.80480   0.31012   0.00000  Uiso   1.00
S599   S     0.86745   0.92785   0.06610   0.00000  Uiso   1.00
Zn600  Zn    0.85910   0.80756   0.28277   0.00000  Uiso   1.00
Zn601  Zn    0.80125   0.79044   0.22257   0.00000  Uiso   1.00
Zn602  Zn    0.87833   0.86331   0.21188   0.00000  Uiso   1.00
Zn603  Zn    0.79465   0.87202   0.28277   0.00000  Uiso   1.00
C604   C     0.05293   0.16057   0.75835   0.00000  Uiso   1.00
C605   C     0.21541   0.14175   0.95647   0.00000  Uiso   1.00
C606   C     0.23332   0.11945   0.97733   0.00000  Uiso   1.00
C607   C     0.28087   0.17337   0.74168   0.00000  Uiso   1.00
C608   C     0.22381   0.12702   0.51849   0.00000  Uiso   1.00
C609   C     0.19955   0.16045   0.53836   0.00000  Uiso   1.00
C610   C     0.23733   0.10115   0.54021   0.00000  Uiso   1.00
C611   C     0.22541   0.10701   0.58139   0.00000  Uiso   1.00
C612   C     0.18386   0.16264   0.57993   0.00000  Uiso   1.00
C613   C     0.32626   0.17386   0.73851   0.00000  Uiso   1.00
C614   C     0.00752   0.15764   0.76472   0.00000  Uiso   1.00
C615   C     0.12869   0.24031   0.91605   0.00000  Uiso   1.00
C616   C     0.18032   0.32210   0.73839   0.00000  Uiso   1.00
C617   C     0.15167   0.01259   0.76297   0.00000  Uiso   1.00
C618   C     0.15624   0.05624   0.75891   0.00000  Uiso   1.00
C619   C     0.17676   0.27766   0.74146   0.00000  Uiso   1.00
C620   C     0.18817   0.14551   0.64402   0.00000  Uiso   1.00
C621   C     0.14586   0.18803   0.85635   0.00000  Uiso   1.00
C622   C     0.14316   0.20171   0.89837   0.00000  Uiso   1.00
C623   C     0.19825   0.13732   0.60117   0.00000  Uiso   1.00
C624   C     0.13249   0.25562   0.95363   0.00000  Uiso   1.00
C625   C     0.15986   0.17797   0.91956   0.00000  Uiso   1.00
C626   C     0.16786   0.19484   0.95593   0.00000  Uiso   1.00
C627   C     0.15246   0.23352   0.97350   0.00000  Uiso   1.00
C628   C     0.18981   0.17412   0.97583   0.00000  Uiso   1.00
C629   C     0.18869   0.18810   0.51579   0.00000  Uiso   1.00
C630   C     0.17867   0.22957   0.53032   0.00000  Uiso   1.00
C631   C     0.15915   0.25080   0.50974   0.00000  Uiso   1.00
F632   F     0.11797   0.33059   0.79200   0.00000  Uiso   1.00
F633   F     0.15210   0.18669   0.59984   0.00000  Uiso   1.00
F634   F     0.25798   0.08882   0.95736   0.00000  Uiso   1.00
F635   F     0.11811   0.29302   0.96993   0.00000  Uiso   1.00
F636   F     0.11187   0.26392   0.89668   0.00000  Uiso   1.00
F637   F     0.16522   0.13753   0.90556   0.00000  Uiso   1.00
H638   H     0.15085   0.28202   0.52144   0.00000  Uiso   1.00
H639   H     0.25691   0.07628   0.52545   0.00000  Uiso   1.00
H640   H     0.01575   0.18752   0.71328   0.00000  Uiso   1.00
H641   H     0.20680   0.00241   0.71564   0.00000  Uiso   1.00
H642   H     0.23688   0.08757   0.59785   0.00000  Uiso   1.00
H643   H     0.22401   0.13463   0.92475   0.00000  Uiso   1.00
H644   H     0.32336   0.11935   0.86108   0.00000  Uiso   1.00
H645   H     0.22998   0.32483   0.57078   0.00000  Uiso   1.00
O646   O     0.16667   0.16667   0.75000   0.00000  Uiso   1.00
O647   O     0.15693   0.12393   0.66625   0.00000  Uiso   1.00
O648   O     0.12687   0.20646   0.83749   0.00000  Uiso   1.00
O649   O     0.21088   0.17493   0.65877   0.00000  Uiso   1.00
O650   O     0.17198   0.16135   0.83749   0.00000  Uiso   1.00
O651   O     0.28062   0.16965   0.83440   0.00000  Uiso   1.00
O652   O     0.28359   0.09803   0.80178   0.00000  Uiso   1.00
O653   O     0.00940   0.12880   0.83599   0.00000  Uiso   1.00
O654   O     0.16597   0.26877   0.60391   0.00000  Uiso   1.00
O655   O     0.23598   0.24149   0.57409   0.00000  Uiso   1.00
O656   O     0.22135   0.30745   0.54864   0.00000  Uiso   1.00
O657   O     0.17849   0.08101   0.77820   0.00000  Uiso   1.00
O658   O     0.14581   0.26136   0.76767   0.00000  Uiso   1.00
O659   O     0.07452   0.13251   0.73607   0.00000  Uiso   1.00
O660   O     0.26785   0.19179   0.71805   0.00000  Uiso   1.00
O661   O     0.06990   0.18960   0.77820   0.00000  Uiso   1.00
O662   O     0.25440   0.15277   0.76767   0.00000  Uiso   1.00
O663   O     0.13800   0.06903   0.73607   0.00000  Uiso   1.00
O664   O     0.20437   0.25527   0.71805   0.00000  Uiso   1.00
S665   S     0.30983   0.13813   0.81012   0.00000  Uiso   1.00
S666   S     0.20078   0.26119   0.56610   0.00000  Uiso   1.00
Zn667  Zn    0.19244   0.14090   0.78277   0.00000  Uiso   1.00
Zn668  Zn    0.13459   0.12378   0.72257   0.00000  Uiso   1.00
Zn669  Zn    0.21166   0.19664   0.71188   0.00000  Uiso   1.00
Zn670  Zn    0.12798   0.20535   0.78277   0.00000  Uiso   1.00
C671   C     0.38626   0.16057   0.75835   0.00000  Uiso   1.00
C672   C     0.54874   0.14175   0.95647   0.00000  Uiso   1.00
C673   C     0.56666   0.11945   0.97733   0.00000  Uiso   1.00
C674   C     0.61421   0.17337   0.74168   0.00000  Uiso   1.00
C675   C     0.55715   0.12702   0.51849   0.00000  Uiso   1.00
C676   C     0.53288   0.16045   0.53836   0.00000  Uiso   1.00
C677   C     0.57066   0.10115   0.54021   0.00000  Uiso   1.00
C678   C     0.55874   0.10701   0.58139   0.00000  Uiso   1.00
C679   C     0.51719   0.16264   0.57993   0.00000  Uiso   1.00
C680   C     0.65959   0.17386   0.73851   0.00000  Uiso   1.00
C681   C     0.34085   0.15764   0.76472   0.00000  Uiso   1.00
C682   C     0.46203   0.24031   0.91605   0.00000  Uiso   1.00
C683   C     0.51366   0.32210   0.73839   0.00000  Uiso   1.00
C684   C     0.48500   0.01259   0.76297   0.00000  Uiso   1.00
C685   C     0.48957   0.05624   0.75891   0.00000  Uiso   1.00
C686   C     0.51009   0.27766   0.74146   0.00000  Uiso   1.00
C687   C     0.52150   0.14551   0.64402   0.00000  Uiso   1.00
C688   C     0.47920   0.18803   0.85635   0.00000  Uiso   1.00
C689   C     0.47649   0.20171   0.89837   0.00000  Uiso   1.00
C690   C     0.53159   0.13732   0.60117   0.00000  Uiso   1.00
C691   C     0.46582   0.25562   0.95363   0.00000  Uiso   1.00
C692   C     0.49320   0.17797   0.91956   0.00000  Uiso   1.00
C693   C     0.50119   0.19484   0.95593   0.00000  Uiso   1.00
C694   C     0.48579   0.23352   0.97350   0.00000  Uiso   1.00
C695   C     0.52314   0.17412   0.97583   0.00000  Uiso   1.00
C696   C     0.52202   0.18810   0.51579   0.00000  Uiso   1.00
C697   C     0.51200   0.22957   0.53032   0.00000  Uiso   1.00
C698   C     0.49248   0.25080   0.50974   0.00000  Uiso   1.00
F699   F     0.45130   0.33059   0.79200   0.00000  Uiso   1.00
F700   F     0.48544   0.18669   0.59984   0.00000  Uiso   1.00
F701   F     0.59131   0.08882   0.95736   0.00000  Uiso   1.00
F702   F     0.45145   0.29302   0.96993   0.00000  Uiso   1.00
F703   F     0.44520   0.26392   0.89668   0.00000  Uiso   1.00
F704   F     0.49856   0.13753   0.90556   0.00000  Uiso   1.00
H705   H     0.48418   0.28202   0.52144   0.00000  Uiso   1.00
H706   H     0.59024   0.07628   0.52545   0.00000  Uiso   1.00
H707   H     0.34908   0.18752   0.71328   0.00000  Uiso   1.00
H708   H     0.54014   0.00241   0.71564   0.00000  Uiso   1.00
H709   H     0.57022   0.08757   0.59785   0.00000  Uiso   1.00
H710   H     0.55735   0.13463   0.92475   0.00000  Uiso   1.00
H711   H     0.65669   0.11935   0.86108   0.00000  Uiso   1.00
H712   H     0.56331   0.32483   0.57078   0.00000  Uiso   1.00
O713   O     0.50000   0.16667   0.75000   0.00000  Uiso   1.00
O714   O     0.49027   0.12393   0.66625   0.00000  Uiso   1.00
O715   O     0.46020   0.20646   0.83749   0.00000  Uiso   1.00
O716   O     0.54421   0.17493   0.65877   0.00000  Uiso   1.00
O717   O     0.50532   0.16135   0.83749   0.00000  Uiso   1.00
O718   O     0.61395   0.16965   0.83440   0.00000  Uiso   1.00
O719   O     0.61692   0.09803   0.80178   0.00000  Uiso   1.00
O720   O     0.34273   0.12880   0.83599   0.00000  Uiso   1.00
O721   O     0.49930   0.26877   0.60391   0.00000  Uiso   1.00
O722   O     0.56932   0.24149   0.57409   0.00000  Uiso   1.00
O723   O     0.55468   0.30745   0.54864   0.00000  Uiso   1.00
O724   O     0.51182   0.08101   0.77820   0.00000  Uiso   1.00
O725   O     0.47914   0.26136   0.76767   0.00000  Uiso   1.00
O726   O     0.40785   0.13251   0.73607   0.00000  Uiso   1.00
O727   O     0.60119   0.19179   0.71805   0.00000  Uiso   1.00
O728   O     0.40323   0.18960   0.77820   0.00000  Uiso   1.00
O729   O     0.58773   0.15277   0.76767   0.00000  Uiso   1.00
O730   O     0.47133   0.06903   0.73607   0.00000  Uiso   1.00
O731   O     0.53771   0.25527   0.71805   0.00000  Uiso   1.00
S732   S     0.64317   0.13813   0.81012   0.00000  Uiso   1.00
S733   S     0.53412   0.26119   0.56610   0.00000  Uiso   1.00
Zn734  Zn    0.52577   0.14090   0.78277   0.00000  Uiso   1.00
Zn735  Zn    0.46792   0.12378   0.72257   0.00000  Uiso   1.00
Zn736  Zn    0.54500   0.19664   0.71188   0.00000  Uiso   1.00
Zn737  Zn    0.46131   0.20535   0.78277   0.00000  Uiso   1.00
C738   C     0.71960   0.16057   0.75835   0.00000  Uiso   1.00
C739   C     0.88207   0.14175   0.95647   0.00000  Uiso   1.00
C740   C     0.89999   0.11945   0.97733   0.00000  Uiso   1.00
C741   C     0.94754   0.17337   0.74168   0.00000  Uiso   1.00
C742   C     0.89048   0.12702   0.51849   0.00000  Uiso   1.00
C743   C     0.86621   0.16045   0.53836   0.00000  Uiso   1.00
C744   C     0.90399   0.10115   0.54021   0.00000  Uiso   1.00
C745   C     0.89208   0.10701   0.58139   0.00000  Uiso   1.00
C746   C     0.85053   0.16264   0.57993   0.00000  Uiso   1.00
C747   C     0.99292   0.17386   0.73851   0.00000  Uiso   1.00
C748   C     0.67419   0.15764   0.76472   0.00000  Uiso   1.00
C749   C     0.79536   0.24031   0.91605   0.00000  Uiso   1.00
C750   C     0.84699   0.32210   0.73839   0.00000  Uiso   1.00
C751   C     0.81833   0.01259   0.76297   0.00000  Uiso   1.00
C752   C     0.82290   0.05624   0.75891   0.00000  Uiso   1.00
C753   C     0.84342   0.27766   0.74146   0.00000  Uiso   1.00
C754   C     0.85483   0.14551   0.64402   0.00000  Uiso   1.00
C755   C     0.81253   0.18803   0.85635   0.00000  Uiso   1.00
C756   C     0.80983   0.20171   0.89837   0.00000  Uiso   1.00
C757   C     0.86492   0.13732   0.60117   0.00000  Uiso   1.00
C758   C     0.79915   0.25562   0.95363   0.00000  Uiso   1.00
C759   C     0.82653   0.17797   0.91956   0.00000  Uiso   1.00
C760   C     0.83452   0.19484   0.95593   0.00000  Uiso   1.00
C761   C     0.81912   0.23352   0.97350   0.00000  Uiso   1.00
C762   C     0.85648   0.17412   0.97583   0.00000  Uiso   1.00
C763   C     0.85535   0.18810   0.51579   0.00000  Uiso   1.00
C764   C     0.84534   0.22957   0.53032   0.00000  Uiso   1.00
C765   C     0.82582   0.25080   0.50974   0.00000  Uiso   1.00
F766   F     0.78463   0.33059   0.79200   0.00000  Uiso   1.00
F767   F     0.81877   0.18669   0.59984   0.00000  Uiso   1.00
F768   F     0.92464   0.08882   0.95736   0.00000  Uiso   1.00
F769   F     0.78478   0.29302   0.96993   0.00000  Uiso   1.00
F770   F     0.77854   0.26392   0.89668   0.00000  Uiso   1.00
F771   F     0.83189   0.13753   0.90556   0.00000  Uiso   1.00
H772   H     0.81752   0.28202   0.52144   0.00000  Uiso   1.00
H773   H     0.92358   0.07628   0.52545   0.00000  Uiso   1.00
H774   H     0.68241   0.18752   0.71328   0.00000  Uiso   1.00
H775   H     0.87347   0.00241   0.71564   0.00000  Uiso   1.00
H776   H     0.90355   0.08757   0.59785   0.00000  Uiso   1.00
H777   H     0.89068   0.13463   0.92475   0.00000  Uiso   1.00
H778   H     0.99003   0.11935   0.86108   0.00000  Uiso   1.00
H779   H     0.89665   0.32483   0.57078   0.00000  Uiso   1.00
O780   O     0.83333   0.16667   0.75000   0.00000  Uiso   1.00
O781   O     0.82360   0.12393   0.66625   0.00000  Uiso   1.00
O782   O     0.79354   0.20646   0.83749   0.00000  Uiso   1.00
O783   O     0.87755   0.17493   0.65877   0.00000  Uiso   1.00
O784   O     0.83865   0.16135   0.83749   0.00000  Uiso   1.00
O785   O     0.94729   0.16965   0.83440   0.00000  Uiso   1.00
O786   O     0.95025   0.09803   0.80178   0.00000  Uiso   1.00
O787   O     0.67607   0.12880   0.83599   0.00000  Uiso   1.00
O788   O     0.83264   0.26877   0.60391   0.00000  Uiso   1.00
O789   O     0.90265   0.24149   0.57409   0.00000  Uiso   1.00
O790   O     0.88802   0.30745   0.54864   0.00000  Uiso   1.00
O791   O     0.84515   0.08101   0.77820   0.00000  Uiso   1.00
O792   O     0.81247   0.26136   0.76767   0.00000  Uiso   1.00
O793   O     0.74119   0.13251   0.73607   0.00000  Uiso   1.00
O794   O     0.93452   0.19179   0.71805   0.00000  Uiso   1.00
O795   O     0.73656   0.18960   0.77820   0.00000  Uiso   1.00
O796   O     0.92106   0.15277   0.76767   0.00000  Uiso   1.00
O797   O     0.80467   0.06903   0.73607   0.00000  Uiso   1.00
O798   O     0.87104   0.25527   0.71805   0.00000  Uiso   1.00
S799   S     0.97650   0.13813   0.81012   0.00000  Uiso   1.00
S800   S     0.86745   0.26119   0.56610   0.00000  Uiso   1.00
Zn801  Zn    0.85910   0.14090   0.78277   0.00000  Uiso   1.00
Zn802  Zn    0.80125   0.12378   0.72257   0.00000  Uiso   1.00
Zn803  Zn    0.87833   0.19664   0.71188   0.00000  Uiso   1.00
Zn804  Zn    0.79465   0.20535   0.78277   0.00000  Uiso   1.00
C805   C     0.05293   0.49390   0.75835   0.00000  Uiso   1.00
C806   C     0.21541   0.47508   0.95647   0.00000  Uiso   1.00
C807   C     0.23332   0.45278   0.97733   0.00000  Uiso   1.00
C808   C     0.28087   0.50670   0.74168   0.00000  Uiso   1.00
C809   C     0.22381   0.46036   0.51849   0.00000  Uiso   1.00
C810   C     0.19955   0.49378   0.53836   0.00000  Uiso   1.00
C811   C     0.23733   0.43449   0.54021   0.00000  Uiso   1.00
C812   C     0.22541   0.44034   0.58139   0.00000  Uiso   1.00
C813   C     0.18386   0.49597   0.57993   0.00000  Uiso   1.00
C814   C     0.32626   0.50719   0.73851   0.00000  Uiso   1.00
C815   C     0.00752   0.49097   0.76472   0.00000  Uiso   1.00
C816   C     0.12869   0.57364   0.91605   0.00000  Uiso   1.00
C817   C     0.18032   0.65543   0.73839   0.00000  Uiso   1.00
C818   C     0.15167   0.34592   0.76297   0.00000  Uiso   1.00
C819   C     0.15624   0.38958   0.75891   0.00000  Uiso   1.00
C820   C     0.17676   0.61099   0.74146   0.00000  Uiso   1.00
C821   C     0.18817   0.47884   0.64402   0.00000  Uiso   1.00
C822   C     0.14586   0.52136   0.85635   0.00000  Uiso   1.00
C823   C     0.14316   0.53504   0.89837   0.00000  Uiso   1.00
C824   C     0.19825   0.47066   0.60117   0.00000  Uiso   1.00
C825   C     0.13249   0.58896   0.95363   0.00000  Uiso   1.00
C826   C     0.15986   0.51130   0.91956   0.00000  Uiso   1.00
C827   C     0.16786   0.52817   0.95593   0.00000  Uiso   1.00
C828   C     0.15246   0.56686   0.97350   0.00000  Uiso   1.00
C829   C     0.18981   0.50745   0.97583   0.00000  Uiso   1.00
C830   C     0.18869   0.52143   0.51579   0.00000  Uiso   1.00
C831   C     0.17867   0.56290   0.53032   0.00000  Uiso   1.00
C832   C     0.15915   0.58413   0.50974   0.00000  Uiso   1.00
F833   F     0.11797   0.66393   0.79200   0.00000  Uiso   1.00
F834   F     0.15210   0.52002   0.59984   0.00000  Uiso   1.00
F835   F     0.25798   0.42215   0.95736   0.00000  Uiso   1.00
F836   F     0.11811   0.62635   0.96993   0.00000  Uiso   1.00
F837   F     0.11187   0.59725   0.89668   0.00000  Uiso   1.00
F838   F     0.16522   0.47087   0.90556   0.00000  Uiso   1.00
H839   H     0.15085   0.61536   0.52144   0.00000  Uiso   1.00
H840   H     0.25691   0.40962   0.52545   0.00000  Uiso   1.00
H841   H     0.01575   0.52085   0.71328   0.00000  Uiso   1.00
H842   H     0.20680   0.33574   0.71564   0.00000  Uiso   1.00
H843   H     0.23688   0.42091   0.59785   0.00000  Uiso   1.00
H844   H     0.22401   0.46796   0.92475   0.00000  Uiso   1.00
H845   H     0.32336   0.45268   0.86108   0.00000  Uiso   1.00
H846   H     0.22998   0.65817   0.57078   0.00000  Uiso   1.00
O847   O     0.16667   0.50000   0.75000   0.00000  Uiso   1.00
O848   O     0.15693   0.45726   0.66625   0.00000  Uiso   1.00
O849   O     0.12687   0.53979   0.83749   0.00000  Uiso   1.00
O850   O     0.21088   0.50826   0.65877   0.00000  Uiso   1.00
O851   O     0.17198   0.49468   0.83749   0.00000  Uiso   1.00
O852   O     0.28062   0.50298   0.83440   0.00000  Uiso   1.00
O853   O     0.28359   0.43137   0.80178   0.00000  Uiso   1.00
O854   O     0.00940   0.46213   0.83599   0.00000  Uiso   1.00
O855   O     0.16597   0.60210   0.60391   0.00000  Uiso   1.00
O856   O     0.23598   0.57483   0.57409   0.00000  Uiso   1.00
O857   O     0.22135   0.64078   0.54864   0.00000  Uiso   1.00
O858   O     0.17849   0.41434   0.77820   0.00000  Uiso   1.00
O859   O     0.14581   0.59469   0.76767   0.00000  Uiso   1.00
O860   O     0.07452   0.46584   0.73607   0.00000  Uiso   1.00
O861   O     0.26785   0.52512   0.71805   0.00000  Uiso   1.00
O862   O     0.06990   0.52293   0.77820   0.00000  Uiso   1.00
O863   O     0.25440   0.48610   0.76767   0.00000  Uiso   1.00
O864   O     0.13800   0.40236   0.73607   0.00000  Uiso   1.00
O865   O     0.20437   0.58860   0.71805   0.00000  Uiso   1.00
S866   S     0.30983   0.47147   0.81012   0.00000  Uiso   1.00
S867   S     0.20078   0.59452   0.56610   0.00000  Uiso   1.00
Zn868  Zn    0.19244   0.47423   0.78277   0.00000  Uiso   1.00
Zn869  Zn    0.13459   0.45711   0.72257   0.00000  Uiso   1.00
Zn870  Zn    0.21166   0.52997   0.71188   0.00000  Uiso   1.00
Zn871  Zn    0.12798   0.53868   0.78277   0.00000  Uiso   1.00
C872   C     0.38626   0.49390   0.75835   0.00000  Uiso   1.00
C873   C     0.54874   0.47508   0.95647   0.00000  Uiso   1.00
C874   C     0.56666   0.45278   0.97733   0.00000  Uiso   1.00
C875   C     0.61421   0.50670   0.74168   0.00000  Uiso   1.00
C876   C     0.55715   0.46036   0.51849   0.00000  Uiso   1.00
C877   C     0.53288   0.49378   0.53836   0.00000  Uiso   1.00
C878   C     0.57066   0.43449   0.54021   0.00000  Uiso   1.00
C879   C     0.55874   0.44034   0.58139   0.00000  Uiso   1.00
C880   C     0.51719   0.49597   0.57993   0.00000  Uiso   1.00
C881   C     0.65959   0.50719   0.73851   0.00000  Uiso   1.00
C882   C     0.34085   0.49097   0.76472   0.00000  Uiso   1.00
C883   C     0.46203   0.57364   0.91605   0.00000  Uiso   1.00
C884   C     0.51366   0.65543   0.73839   0.00000  Uiso   1.00
C885   C     0.48500   0.34592   0.76297   0.00000  Uiso   1.00
C886   C     0.48957   0.38958   0.75891   0.00000  Uiso   1.00
C887   C     0.51009   0.61099   0.74146   0.00000  Uiso   1.00
C888   C     0.52150   0.47884   0.64402   0.00000  Uiso   1.00
C889   C     0.47920   0.52136   0.85635   0.00000  Uiso   1.00
C890   C     0.47649   0.53504   0.89837   0.00000  Uiso   1.00
C891   C     0.53159   0.47066   0.60117   0.00000  Uiso   1.00
C892   C     0.46582   0.58896   0.95363   0.00000  Uiso   1.00
C893   C     0.49320   0.51130   0.91956   0.00000  Uiso   1.00
C894   C     0.50119   0.52817   0.95593   0.00000  Uiso   1.00
C895   C     0.48579   0.56686   0.97350   0.00000  Uiso   1.00
C896   C     0.52314   0.50745   0.97583   0.00000  Uiso   1.00
C897   C     0.52202   0.52143   0.51579   0.00000  Uiso   1.00
C898   C     0.51200   0.56290   0.53032   0.00000  Uiso   1.00
C899   C     0.49248   0.58413   0.50974   0.00000  Uiso   1.00
F900   F     0.45130   0.66393   0.79200   0.00000  Uiso   1.00
F901   F     0.48544   0.52002   0.59984   0.00000  Uiso   1.00
F902   F     0.59131   0.42215   0.95736   0.00000  Uiso   1.00
F903   F     0.45145   0.62635   0.96993   0.00000  Uiso   1.00
F904   F     0.44520   0.59725   0.89668   0.00000  Uiso   1.00
F905   F     0.49856   0.47087   0.90556   0.00000  Uiso   1.00
H906   H     0.48418   0.61536   0.52144   0.00000  Uiso   1.00
H907   H     0.59024   0.40962   0.52545   0.00000  Uiso   1.00
H908   H     0.34908   0.52085   0.71328   0.00000  Uiso   1.00
H909   H     0.54014   0.33574   0.71564   0.00000  Uiso   1.00
H910   H     0.57022   0.42091   0.59785   0.00000  Uiso   1.00
H911   H     0.55735   0.46796   0.92475   0.00000  Uiso   1.00
H912   H     0.65669   0.45268   0.86108   0.00000  Uiso   1.00
H913   H     0.56331   0.65817   0.57078   0.00000  Uiso   1.00
O914   O     0.50000   0.50000   0.75000   0.00000  Uiso   1.00
O915   O     0.49027   0.45726   0.66625   0.00000  Uiso   1.00
O916   O     0.46020   0.53979   0.83749   0.00000  Uiso   1.00
O917   O     0.54421   0.50826   0.65877   0.00000  Uiso   1.00
O918   O     0.50532   0.49468   0.83749   0.00000  Uiso   1.00
O919   O     0.61395   0.50298   0.83440   0.00000  Uiso   1.00
O920   O     0.61692   0.43137   0.80178   0.00000  Uiso   1.00
O921   O     0.34273   0.46213   0.83599   0.00000  Uiso   1.00
O922   O     0.49930   0.60210   0.60391   0.00000  Uiso   1.00
O923   O     0.56932   0.57483   0.57409   0.00000  Uiso   1.00
O924   O     0.55468   0.64078   0.54864   0.00000  Uiso   1.00
O925   O     0.51182   0.41434   0.77820   0.00000  Uiso   1.00
O926   O     0.47914   0.59469   0.76767   0.00000  Uiso   1.00
O927   O     0.40785   0.46584   0.73607   0.00000  Uiso   1.00
O928   O     0.60119   0.52512   0.71805   0.00000  Uiso   1.00
O929   O     0.40323   0.52293   0.77820   0.00000  Uiso   1.00
O930   O     0.58773   0.48610   0.76767   0.00000  Uiso   1.00
O931   O     0.47133   0.40236   0.73607   0.00000  Uiso   1.00
O932   O     0.53771   0.58860   0.71805   0.00000  Uiso   1.00
S933   S     0.64317   0.47147   0.81012   0.00000  Uiso   1.00
S934   S     0.53412   0.59452   0.56610   0.00000  Uiso   1.00
Zn935  Zn    0.52577   0.47423   0.78277   0.00000  Uiso   1.00
Zn936  Zn    0.46792   0.45711   0.72257   0.00000  Uiso   1.00
Zn937  Zn    0.54500   0.52997   0.71188   0.00000  Uiso   1.00
Zn938  Zn    0.46131   0.53868   0.78277   0.00000  Uiso   1.00
C939   C     0.71960   0.49390   0.75835   0.00000  Uiso   1.00
C940   C     0.88207   0.47508   0.95647   0.00000  Uiso   1.00
C941   C     0.89999   0.45278   0.97733   0.00000  Uiso   1.00
C942   C     0.94754   0.50670   0.74168   0.00000  Uiso   1.00
C943   C     0.89048   0.46036   0.51849   0.00000  Uiso   1.00
C944   C     0.86621   0.49378   0.53836   0.00000  Uiso   1.00
C945   C     0.90399   0.43449   0.54021   0.00000  Uiso   1.00
C946   C     0.89208   0.44034   0.58139   0.00000  Uiso   1.00
C947   C     0.85053   0.49597   0.57993   0.00000  Uiso   1.00
C948   C     0.99292   0.50719   0.73851   0.00000  Uiso   1.00
C949   C     0.67419   0.49097   0.76472   0.00000  Uiso   1.00
C950   C     0.79536   0.57364   0.91605   0.00000  Uiso   1.00
C951   C     0.84699   0.65543   0.73839   0.00000  Uiso   1.00
C952   C     0.81833   0.34592   0.76297   0.00000  Uiso   1.00
C953   C     0.82290   0.38958   0.75891   0.00000  Uiso   1.00
C954   C     0.84342   0.61099   0.74146   0.00000  Uiso   1.00
C955   C     0.85483   0.47884   0.64402   0.00000  Uiso   1.00
C956   C     0.81253   0.52136   0.85635   0.00000  Uiso   1.00
C957   C     0.80983   0.53504   0.89837   0.00000  Uiso   1.00
C958   C     0.86492   0.47066   0.60117   0.00000  Uiso   1.00
C959   C     0.79915   0.58896   0.95363   0.00000  Uiso   1.00
C960   C     0.82653   0.51130   0.91956   0.00000  Uiso   1.00
C961   C     0.83452   0.52817   0.95593   0.00000  Uiso   1.00
C962   C     0.81912   0.56686   0.97350   0.00000  Uiso   1.00
C963   C     0.85648   0.50745   0.97583   0.00000  Uiso   1.00
C964   C     0.85535   0.52143   0.51579   0.00000  Uiso   1.00
C965   C     0.84534   0.56290   0.53032   0.00000  Uiso   1.00
C966   C     0.82582   0.58413   0.50974   0.00000  Uiso   1.00
F967   F     0.78463   0.66393   0.79200   0.00000  Uiso   1.00
F968   F     0.81877   0.52002   0.59984   0.00000  Uiso   1.00
F969   F     0.92464   0.42215   0.95736   0.00000  Uiso   1.00
F970   F     0.78478   0.62635   0.96993   0.00000  Uiso   1.00
F971   F     0.77854   0.59725   0.89668   0.00000  Uiso   1.00
F972   F     0.83189   0.47087   0.90556   0.00000  Uiso   1.00
H973   H     0.81752   0.61536   0.52144   0.00000  Uiso   1.00
H974   H     0.92358   0.40962   0.52545   0.00000  Uiso   1.00
H975   H     0.68241   0.52085   0.71328   0.00000  Uiso   1.00
H976   H     0.87347   0.33574   0.71564   0.00000  Uiso   1.00
H977   H     0.90355   0.42091   0.59785   0.00000  Uiso   1.00
H978   H     0.89068   0.46796   0.92475   0.00000  Uiso   1.00
H979   H     0.99003   0.45268   0.86108   0.00000  Uiso   1.00
H980   H     0.89665   0.65817   0.57078   0.00000  Uiso   1.00
O981   O     0.83333   0.50000   0.75000   0.00000  Uiso   1.00
O982   O     0.82360   0.45726   0.66625   0.00000  Uiso   1.00
O983   O     0.79354   0.53979   0.83749   0.00000  Uiso   1.00
O984   O     0.87755   0.50826   0.65877   0.00000  Uiso   1.00
O985   O     0.83865   0.49468   0.83749   0.00000  Uiso   1.00
O986   O     0.94729   0.50298   0.83440   0.00000  Uiso   1.00
O987   O     0.95025   0.43137   0.80178   0.00000  Uiso   1.00
O988   O     0.67607   0.46213   0.83599   0.00000  Uiso   1.00
O989   O     0.83264   0.60210   0.60391   0.00000  Uiso   1.00
O990   O     0.90265   0.57483   0.57409   0.00000  Uiso   1.00
O991   O     0.88802   0.64078   0.54864   0.00000  Uiso   1.00
O992   O     0.84515   0.41434   0.77820   0.00000  Uiso   1.00
O993   O     0.81247   0.59469   0.76767   0.00000  Uiso   1.00
O994   O     0.74119   0.46584   0.73607   0.00000  Uiso   1.00
O995   O     0.93452   0.52512   0.71805   0.00000  Uiso   1.00
O996   O     0.73656   0.52293   0.77820   0.00000  Uiso   1.00
O997   O     0.92106   0.48610   0.76767   0.00000  Uiso   1.00
O998   O     0.80467   0.40236   0.73607   0.00000  Uiso   1.00
O999   O     0.87104   0.58860   0.71805   0.00000  Uiso   1.00
S1000  S     0.97650   0.47147   0.81012   0.00000  Uiso   1.00
S1001  S     0.86745   0.59452   0.56610   0.00000  Uiso   1.00
Zn1002 Zn    0.85910   0.47423   0.78277   0.00000  Uiso   1.00
Zn1003 Zn    0.80125   0.45711   0.72257   0.00000  Uiso   1.00
Zn1004 Zn    0.87833   0.52997   0.71188   0.00000  Uiso   1.00
Zn1005 Zn    0.79465   0.53868   0.78277   0.00000  Uiso   1.00
C1006  C     0.05293   0.82724   0.75835   0.00000  Uiso   1.00
C1007  C     0.21541   0.80842   0.95647   0.00000  Uiso   1.00
C1008  C     0.23332   0.78611   0.97733   0.00000  Uiso   1.00
C1009  C     0.28087   0.84004   0.74168   0.00000  Uiso   1.00
C1010  C     0.22381   0.79369   0.51849   0.00000  Uiso   1.00
C1011  C     0.19955   0.82712   0.53836   0.00000  Uiso   1.00
C1012  C     0.23733   0.76782   0.54021   0.00000  Uiso   1.00
C1013  C     0.22541   0.77367   0.58139   0.00000  Uiso   1.00
C1014  C     0.18386   0.82930   0.57993   0.00000  Uiso   1.00
C1015  C     0.32626   0.84052   0.73851   0.00000  Uiso   1.00
C1016  C     0.00752   0.82431   0.76472   0.00000  Uiso   1.00
C1017  C     0.12869   0.90697   0.91605   0.00000  Uiso   1.00
C1018  C     0.18032   0.98876   0.73839   0.00000  Uiso   1.00
C1019  C     0.15167   0.67926   0.76297   0.00000  Uiso   1.00
C1020  C     0.15624   0.72291   0.75891   0.00000  Uiso   1.00
C1021  C     0.17676   0.94432   0.74146   0.00000  Uiso   1.00
C1022  C     0.18817   0.81218   0.64402   0.00000  Uiso   1.00
C1023  C     0.14586   0.85469   0.85635   0.00000  Uiso   1.00
C1024  C     0.14316   0.86838   0.89837   0.00000  Uiso   1.00
C1025  C     0.19825   0.80399   0.60117   0.00000  Uiso   1.00
C1026  C     0.13249   0.92229   0.95363   0.00000  Uiso   1.00
C1027  C     0.15986   0.84464   0.91956   0.00000  Uiso   1.00
C1028  C     0.16786   0.86151   0.95593   0.00000  Uiso   1.00
C1029  C     0.15246   0.90019   0.97350   0.00000  Uiso   1.00
C1030  C     0.18981   0.84079   0.97583   0.00000  Uiso   1.00
C1031  C     0.18869   0.85477   0.51579   0.00000  Uiso   1.00
C1032  C     0.17867   0.89624   0.53032   0.00000  Uiso   1.00
C1033  C     0.15915   0.91747   0.50974   0.00000  Uiso   1.00
F1034  F     0.11797   0.99726   0.79200   0.00000  Uiso   1.00
F1035  F     0.15210   0.85336   0.59984   0.00000  Uiso   1.00
F1036  F     0.25798   0.75549   0.95736   0.00000  Uiso   1.00
F1037  F     0.11811   0.95968   0.96993   0.00000  Uiso   1.00
F1038  F     0.11187   0.93059   0.89668   0.00000  Uiso   1.00
F1039  F     0.16522   0.80420   0.90556   0.00000  Uiso   1.00
H1040  H     0.15085   0.94869   0.52144   0.00000  Uiso   1.00
H1041  H     0.25691   0.74295   0.52545   0.00000  Uiso   1.00
H1042  H     0.01575   0.85419   0.71328   0.00000  Uiso   1.00
H1043  H     0.20680   0.66908   0.71564   0.00000  Uiso   1.00
H1044  H     0.23688   0.75424   0.59785   0.00000  Uiso   1.00
H1045  H     0.22401   0.80129   0.92475   0.00000  Uiso   1.00
H1046  H     0.32336   0.78602   0.86108   0.00000  Uiso   1.00
H1047  H     0.22998   0.99150   0.57078   0.00000  Uiso   1.00
O1048  O     0.16667   0.83333   0.75000   0.00000  Uiso   1.00
O1049  O     0.15693   0.79060   0.66625   0.00000  Uiso   1.00
O1050  O     0.12687   0.87313   0.83749   0.00000  Uiso   1.00
O1051  O     0.21088   0.84159   0.65877   0.00000  Uiso   1.00
O1052  O     0.17198   0.82802   0.83749   0.00000  Uiso   1.00
O1053  O     0.28062   0.83632   0.83440   0.00000  Uiso   1.00
O1054  O     0.28359   0.76470   0.80178   0.00000  Uiso   1.00
O1055  O     0.00940   0.79547   0.83599   0.00000  Uiso   1.00
O1056  O     0.16597   0.93544   0.60391   0.00000  Uiso   1.00
O1057  O     0.23598   0.90816   0.57409   0.00000  Uiso   1.00
O1058  O     0.22135   0.97411   0.54864   0.00000  Uiso   1.00
O1059  O     0.17849   0.74768   0.77820   0.00000  Uiso   1.00
O1060  O     0.14581   0.92803   0.76767   0.00000  Uiso   1.00
O1061  O     0.07452   0.79917   0.73607   0.00000  Uiso   1.00
O1062  O     0.26785   0.85845   0.71805   0.00000  Uiso   1.00
O1063  O     0.06990   0.85627   0.77820   0.00000  Uiso   1.00
O1064  O     0.25440   0.81944   0.76767   0.00000  Uiso   1.00
O1065  O     0.13800   0.73570   0.73607   0.00000  Uiso   1.00
O1066  O     0.20437   0.92193   0.71805   0.00000  Uiso   1.00
S1067  S     0.30983   0.80480   0.81012   0.00000  Uiso   1.00
S1068  S     0.20078   0.92785   0.56610   0.00000  Uiso   1.00
Zn1069 Zn    0.19244   0.80756   0.78277   0.00000  Uiso   1.00
Zn1070 Zn    0.13459   0.79044   0.72257   0.00000  Uiso   1.00
Zn1071 Zn    0.21166   0.86331   0.71188   0.00000  Uiso   1.00
Zn1072 Zn    0.12798   0.87202   0.78277   0.00000  Uiso   1.00
C1073  C     0.38626   0.82724   0.75835   0.00000  Uiso   1.00
C1074  C     0.54874   0.80842   0.95647   0.00000  Uiso   1.00
C1075  C     0.56666   0.78611   0.97733   0.00000  Uiso   1.00
C1076  C     0.61421   0.84004   0.74168   0.00000  Uiso   1.00
C1077  C     0.55715   0.79369   0.51849   0.00000  Uiso   1.00
C1078  C     0.53288   0.82712   0.53836   0.00000  Uiso   1.00
C1079  C     0.57066   0.76782   0.54021   0.00000  Uiso   1.00
C1080  C     0.55874   0.77367   0.58139   0.00000  Uiso   1.00
C1081  C     0.51719   0.82930   0.57993   0.00000  Uiso   1.00
C1082  C     0.65959   0.84052   0.73851   0.00000  Uiso   1.00
C1083  C     0.34085   0.82431   0.76472   0.00000  Uiso   1.00
C1084  C     0.46203   0.90697   0.91605   0.00000  Uiso   1.00
C1085  C     0.51366   0.98876   0.73839   0.00000  Uiso   1.00
C1086  C     0.48500   0.67926   0.76297   0.00000  Uiso   1.00
C1087  C     0.48957   0.72291   0.75891   0.00000  Uiso   1.00
C1088  C     0.51009   0.94432   0.74146   0.00000  Uiso   1.00
C1089  C     0.52150   0.81218   0.64402   0.00000  Uiso   1.00
C1090  C     0.47920   0.85469   0.85635   0.00000  Uiso   1.00
C1091  C     0.47649   0.86838   0.89837   0.00000  Uiso   1.00
C1092  C     0.53159   0.80399   0.60117   0.00000  Uiso   1.00
C1093  C     0.46582   0.92229   0.95363   0.00000  Uiso   1.00
C1094  C     0.49320   0.84464   0.91956   0.00000  Uiso   1.00
C1095  C     0.50119   0.86151   0.95593   0.00000  Uiso   1.00
C1096  C     0.48579   0.90019   0.97350   0.00000  Uiso   1.00
C1097  C     0.52314   0.84079   0.97583   0.00000  Uiso   1.00
C1098  C     0.52202   0.85477   0.51579   0.00000  Uiso   1.00
C1099  C     0.51200   0.89624   0.53032   0.00000  Uiso   1.00
C1100  C     0.49248   0.91747   0.50974   0.00000  Uiso   1.00
F1101  F     0.45130   0.99726   0.79200   0.00000  Uiso   1.00
F1102  F     0.48544   0.85336   0.59984   0.00000  Uiso   1.00
F1103  F     0.59131   0.75549   0.95736   0.00000  Uiso   1.00
F1104  F     0.45145   0.95968   0.96993   0.00000  Uiso   1.00
F1105  F     0.44520   0.93059   0.89668   0.00000  Uiso   1.00
F1106  F     0.49856   0.80420   0.90556   0.00000  Uiso   1.00
H1107  H     0.48418   0.94869   0.52144   0.00000  Uiso   1.00
H1108  H     0.59024   0.74295   0.52545   0.00000  Uiso   1.00
H1109  H     0.34908   0.85419   0.71328   0.00000  Uiso   1.00
H1110  H     0.54014   0.66908   0.71564   0.00000  Uiso   1.00
H1111  H     0.57022   0.75424   0.59785   0.00000  Uiso   1.00
H1112  H     0.55735   0.80129   0.92475   0.00000  Uiso   1.00
H1113  H     0.65669   0.78602   0.86108   0.00000  Uiso   1.00
H1114  H     0.56331   0.99150   0.57078   0.00000  Uiso   1.00
O1115  O     0.50000   0.83333   0.75000   0.00000  Uiso   1.00
O1116  O     0.49027   0.79060   0.66625   0.00000  Uiso   1.00
O1117  O     0.46020   0.87313   0.83749   0.00000  Uiso   1.00
O1118  O     0.54421   0.84159   0.65877   0.00000  Uiso   1.00
O1119  O     0.50532   0.82802   0.83749   0.00000  Uiso   1.00
O1120  O     0.61395   0.83632   0.83440   0.00000  Uiso   1.00
O1121  O     0.61692   0.76470   0.80178   0.00000  Uiso   1.00
O1122  O     0.34273   0.79547   0.83599   0.00000  Uiso   1.00
O1123  O     0.49930   0.93544   0.60391   0.00000  Uiso   1.00
O1124  O     0.56932   0.90816   0.57409   0.00000  Uiso   1.00
O1125  O     0.55468   0.97411   0.54864   0.00000  Uiso   1.00
O1126  O     0.51182   0.74768   0.77820   0.00000  Uiso   1.00
O1127  O     0.47914   0.92803   0.76767   0.00000  Uiso   1.00
O1128  O     0.40785   0.79917   0.73607   0.00000  Uiso   1.00
O1129  O     0.60119   0.85845   0.71805   0.00000  Uiso   1.00
O1130  O     0.40323   0.85627   0.77820   0.00000  Uiso   1.00
O1131  O     0.58773   0.81944   0.76767   0.00000  Uiso   1.00
O1132  O     0.47133   0.73570   0.73607   0.00000  Uiso   1.00
O1133  O     0.53771   0.92193   0.71805   0.00000  Uiso   1.00
S1134  S     0.64317   0.80480   0.81012   0.00000  Uiso   1.00
S1135  S     0.53412   0.92785   0.56610   0.00000  Uiso   1.00
Zn1136 Zn    0.52577   0.80756   0.78277   0.00000  Uiso   1.00
Zn1137 Zn    0.46792   0.79044   0.72257   0.00000  Uiso   1.00
Zn1138 Zn    0.54500   0.86331   0.71188   0.00000  Uiso   1.00
Zn1139 Zn    0.46131   0.87202   0.78277   0.00000  Uiso   1.00
C1140  C     0.71960   0.82724   0.75835   0.00000  Uiso   1.00
C1141  C     0.88207   0.80842   0.95647   0.00000  Uiso   1.00
C1142  C     0.89999   0.78611   0.97733   0.00000  Uiso   1.00
C1143  C     0.94754   0.84004   0.74168   0.00000  Uiso   1.00
C1144  C     0.89048   0.79369   0.51849   0.00000  Uiso   1.00
C1145  C     0.86621   0.82712   0.53836   0.00000  Uiso   1.00
C1146  C     0.90399   0.76782   0.54021   0.00000  Uiso   1.00
C1147  C     0.89208   0.77367   0.58139   0.00000  Uiso   1.00
C1148  C     0.85053   0.82930   0.57993   0.00000  Uiso   1.00
C1149  C     0.99292   0.84052   0.73851   0.00000  Uiso   1.00
C1150  C     0.67419   0.82431   0.76472   0.00000  Uiso   1.00
C1151  C     0.79536   0.90697   0.91605   0.00000  Uiso   1.00
C1152  C     0.84699   0.98876   0.73839   0.00000  Uiso   1.00
C1153  C     0.81833   0.67926   0.76297   0.00000  Uiso   1.00
C1154  C     0.82290   0.72291   0.75891   0.00000  Uiso   1.00
C1155  C     0.84342   0.94432   0.74146   0.00000  Uiso   1.00
C1156  C     0.85483   0.81218   0.64402   0.00000  Uiso   1.00
C1157  C     0.81253   0.85469   0.85635   0.00000  Uiso   1.00
C1158  C     0.80983   0.86838   0.89837   0.00000  Uiso   1.00
C1159  C     0.86492   0.80399   0.60117   0.00000  Uiso   1.00
C1160  C     0.79915   0.92229   0.95363   0.00000  Uiso   1.00
C1161  C     0.82653   0.84464   0.91956   0.00000  Uiso   1.00
C1162  C     0.83452   0.86151   0.95593   0.00000  Uiso   1.00
C1163  C     0.81912   0.90019   0.97350   0.00000  Uiso   1.00
C1164  C     0.85648   0.84079   0.97583   0.00000  Uiso   1.00
C1165  C     0.85535   0.85477   0.51579   0.00000  Uiso   1.00
C1166  C     0.84534   0.89624   0.53032   0.00000  Uiso   1.00
C1167  C     0.82582   0.91747   0.50974   0.00000  Uiso   1.00
F1168  F     0.78463   0.99726   0.79200   0.00000  Uiso   1.00
F1169  F     0.81877   0.85336   0.59984   0.00000  Uiso   1.00
F1170  F     0.92464   0.75549   0.95736   0.00000  Uiso   1.00
F1171  F     0.78478   0.95968   0.96993   0.00000  Uiso   1.00
F1172  F     0.77854   0.93059   0.89668   0.00000  Uiso   1.00
F1173  F     0.83189   0.80420   0.90556   0.00000  Uiso   1.00
H1174  H     0.81752   0.94869   0.52144   0.00000  Uiso   1.00
H1175  H     0.92358   0.74295   0.52545   0.00000  Uiso   1.00
H1176  H     0.68241   0.85419   0.71328   0.00000  Uiso   1.00
H1177  H     0.87347   0.66908   0.71564   0.00000  Uiso   1.00
H1178  H     0.90355   0.75424   0.59785   0.00000  Uiso   1.00
H1179  H     0.89068   0.80129   0.92475   0.00000  Uiso   1.00
H1180  H     0.99003   0.78602   0.86108   0.00000  Uiso   1.00
H1181  H     0.89665   0.99150   0.57078   0.00000  Uiso   1.00
O1182  O     0.83333   0.83333   0.75000   0.00000  Uiso   1.00
O1183  O     0.82360   0.79060   0.66625   0.00000  Uiso   1.00
O1184  O     0.79354   0.87313   0.83749   0.00000  Uiso   1.00
O1185  O     0.87755   0.84159   0.65877   0.00000  Uiso   1.00
O1186  O     0.83865   0.82802   0.83749   0.00000  Uiso   1.00
O1187  O     0.94729   0.83632   0.83440   0.00000  Uiso   1.00
O1188  O     0.95025   0.76470   0.80178   0.00000  Uiso   1.00
O1189  O     0.67607   0.79547   0.83599   0.00000  Uiso   1.00
O1190  O     0.83264   0.93544   0.60391   0.00000  Uiso   1.00
O1191  O     0.90265   0.90816   0.57409   0.00000  Uiso   1.00
O1192  O     0.88802   0.97411   0.54864   0.00000  Uiso   1.00
O1193  O     0.84515   0.74768   0.77820   0.00000  Uiso   1.00
O1194  O     0.81247   0.92803   0.76767   0.00000  Uiso   1.00
O1195  O     0.74119   0.79917   0.73607   0.00000  Uiso   1.00
O1196  O     0.93452   0.85845   0.71805   0.00000  Uiso   1.00
O1197  O     0.73656   0.85627   0.77820   0.00000  Uiso   1.00
O1198  O     0.92106   0.81944   0.76767   0.00000  Uiso   1.00
O1199  O     0.80467   0.73570   0.73607   0.00000  Uiso   1.00
O1200  O     0.87104   0.92193   0.71805   0.00000  Uiso   1.00
S1201  S     0.97650   0.80480   0.81012   0.00000  Uiso   1.00
S1202  S     0.86745   0.92785   0.56610   0.00000  Uiso   1.00
Zn1203 Zn    0.85910   0.80756   0.78277   0.00000  Uiso   1.00
Zn1204 Zn    0.80125   0.79044   0.72257   0.00000  Uiso   1.00
Zn1205 Zn    0.87833   0.86331   0.71188   0.00000  Uiso   1.00
Zn1206 Zn    0.79465   0.87202   0.78277   0.00000  Uiso   1.00
loop_
_geom_bond_atom_site_label_1
_geom_bond_atom_site_label_2
_geom_bond_distance
_geom_bond_site_symmetry_2
_ccdc_geom_bond_type
C1     C11     1.428   .     S
C1     O58     1.264   .     A
C1     O56     1.272   .     A
C2     C3      1.390   .     A
C2     C25     1.413   .     A
C2     H40     1.079   .     S
C3     F31     1.359   .     S
C3     C608    1.397   .     S
C4     O57     1.287   .     A
C4     C10     1.454   .     S
C4     O59     1.262   .     A
C5     C6      1.420   .     A
C5     C7      1.405   .     A
C5     C606    1.397   1_554 S
C6     C9      1.409   .     A
C6     C26     1.423   .     A
C7     H36     1.083   .     S
C7     C8      1.392   .     A
C8     H39     1.084   .     S
C8     C20     1.396   .     A
C9     C20     1.396   .     A
C9     F30     1.357   .     S
C10    C78     1.353   .     S
C10    H104    1.088   .     S
C11    C144    1.353   1_455 S
C11    S196    1.782   1_455 S
C12    F33     1.358   .     S
C12    C19     1.405   .     A
C12    C21     1.393   .     A
C13    C16     1.451   .     S
C13    C215    1.336   .     S
C13    H239    1.088   .     S
C14    C15     1.430   .     S
C14    C415    1.336   1_545 S
C14    F431    1.361   1_545 S
C15    O54     1.275   .     A
C15    O60     1.275   .     A
C16    O55     1.269   .     A
C16    O61     1.273   .     A
C17    C20     1.454   .     S
C17    O44     1.282   .     A
C17    O46     1.279   .     A
C18    O45     1.283   .     A
C18    O47     1.284   .     A
C18    C19     1.478   .     S
C19    C22     1.404   .     A
C21    F32     1.359   .     S
C21    C24     1.405   .     A
C22    C23     1.414   .     A
C22    F34     1.358   .     S
C23    C24     1.417   .     A
C23    C25     1.423   .     A
C24    C631    1.397   .     S
C25    C629    1.421   .     S
C26    C27     1.425   .     A
C26    C628    1.421   1_554 S
C27    C28     1.395   .     A
C27    S63     1.780   .     S
C28    H35     1.084   .     S
C28    C627    1.397   1_554 S
F29    C215    1.361   .     S
H37    C144    1.088   1_455 S
H38    C415    1.088   1_545 S
H41    O117    0.991   .     S
H42    O53     0.991   .     S
O43    Zn65    1.954   .     S
O43    Zn66    1.937   .     S
O43    Zn67    1.931   .     S
O43    Zn64    1.948   .     S
O44    Zn65    1.919   .     S
O45    Zn67    1.927   .     S
O46    Zn66    1.927   .     S
O47    Zn64    1.918   .     S
O48    S62     1.504   .     D
O49    S62     1.504   .     D
O50    H175    0.991   1_455 S
O50    S196    1.683   1_455 S
O51    S63     1.503   .     D
O52    S63     1.503   .     D
O53    S63     1.683   .     S
O54    Zn64    1.935   .     S
O55    Zn67    1.933   .     S
O56    Zn65    1.935   .     S
O57    Zn66    1.943   .     S
O58    Zn67    1.946   .     S
O59    Zn64    1.938   .     S
O60    Zn65    1.931   .     S
O61    Zn66    1.930   .     S
S62    C78     1.782   .     S
S62    O117    1.683   .     S
C68    C78     1.428   .     S
C68    O125    1.264   .     A
C68    O123    1.272   .     A
C69    C70     1.390   .     A
C69    C92     1.413   .     A
C69    H107    1.079   .     S
C70    F98     1.359   .     S
C70    C675    1.397   .     S
C71    O124    1.287   .     A
C71    C77     1.454   .     S
C71    O126    1.262   .     A
C72    C73     1.420   .     A
C72    C74     1.405   .     A
C72    C673    1.397   1_554 S
C73    C76     1.409   .     A
C73    C93     1.423   .     A
C74    H103    1.083   .     S
C74    C75     1.392   .     A
C75    H106    1.084   .     S
C75    C87     1.396   .     A
C76    C87     1.396   .     A
C76    F97     1.357   .     S
C77    C145    1.353   .     S
C77    H171    1.088   .     S
C79    F100    1.358   .     S
C79    C86     1.405   .     A
C79    C88     1.393   .     A
C80    C83     1.451   .     S
C80    C282    1.336   .     S
C80    H306    1.088   .     S
C81    C82     1.430   .     S
C81    C482    1.336   1_545 S
C81    F498    1.361   1_545 S
C82    O121    1.275   .     A
C82    O127    1.275   .     A
C83    O122    1.269   .     A
C83    O128    1.273   .     A
C84    C87     1.454   .     S
C84    O111    1.282   .     A
C84    O113    1.279   .     A
C85    O112    1.283   .     A
C85    O114    1.284   .     A
C85    C86     1.478   .     S
C86    C89     1.404   .     A
C88    F99     1.359   .     S
C88    C91     1.405   .     A
C89    C90     1.414   .     A
C89    F101    1.358   .     S
C90    C91     1.417   .     A
C90    C92     1.423   .     A
C91    C698    1.397   .     S
C92    C696    1.421   .     S
C93    C94     1.425   .     A
C93    C695    1.421   1_554 S
C94    C95     1.395   .     A
C94    S130    1.780   .     S
C95    H102    1.084   .     S
C95    C694    1.397   1_554 S
F96    C282    1.361   .     S
H105   C482    1.088   1_545 S
H108   O184    0.991   .     S
H109   O120    0.991   .     S
O110   Zn132   1.954   .     S
O110   Zn133   1.937   .     S
O110   Zn134   1.931   .     S
O110   Zn131   1.948   .     S
O111   Zn132   1.919   .     S
O112   Zn134   1.927   .     S
O113   Zn133   1.927   .     S
O114   Zn131   1.918   .     S
O115   S129    1.504   .     D
O116   S129    1.504   .     D
O118   S130    1.503   .     D
O119   S130    1.503   .     D
O120   S130    1.683   .     S
O121   Zn131   1.935   .     S
O122   Zn134   1.933   .     S
O123   Zn132   1.935   .     S
O124   Zn133   1.943   .     S
O125   Zn134   1.946   .     S
O126   Zn131   1.938   .     S
O127   Zn132   1.931   .     S
O128   Zn133   1.930   .     S
S129   C145    1.782   .     S
S129   O184    1.683   .     S
C135   C145    1.428   .     S
C135   O192    1.264   .     A
C135   O190    1.272   .     A
C136   C137    1.390   .     A
C136   C159    1.413   .     A
C136   H174    1.079   .     S
C137   F165    1.359   .     S
C137   C742    1.397   .     S
C138   O191    1.287   .     A
C138   C144    1.454   .     S
C138   O193    1.262   .     A
C139   C140    1.420   .     A
C139   C141    1.405   .     A
C139   C740    1.397   1_554 S
C140   C143    1.409   .     A
C140   C160    1.423   .     A
C141   H170    1.083   .     S
C141   C142    1.392   .     A
C142   H173    1.084   .     S
C142   C154    1.396   .     A
C143   C154    1.396   .     A
C143   F164    1.357   .     S
C144   C11     1.353   1_655 S
C144   H37     1.088   1_655 S
C146   F167    1.358   .     S
C146   C153    1.405   .     A
C146   C155    1.393   .     A
C147   C150    1.451   .     S
C147   C349    1.336   .     S
C147   H373    1.088   .     S
C148   C149    1.430   .     S
C148   C549    1.336   1_545 S
C148   F565    1.361   1_545 S
C149   O188    1.275   .     A
C149   O194    1.275   .     A
C150   O189    1.269   .     A
C150   O195    1.273   .     A
C151   C154    1.454   .     S
C151   O178    1.282   .     A
C151   O180    1.279   .     A
C152   O179    1.283   .     A
C152   O181    1.284   .     A
C152   C153    1.478   .     S
C153   C156    1.404   .     A
C155   F166    1.359   .     S
C155   C158    1.405   .     A
C156   C157    1.414   .     A
C156   F168    1.358   .     S
C157   C158    1.417   .     A
C157   C159    1.423   .     A
C158   C765    1.397   .     S
C159   C763    1.421   .     S
C160   C161    1.425   .     A
C160   C762    1.421   1_554 S
C161   C162    1.395   .     A
C161   S197    1.780   .     S
C162   H169    1.084   .     S
C162   C761    1.397   1_554 S
F163   C349    1.361   .     S
H172   C549    1.088   1_545 S
H175   O50     0.991   1_655 S
H176   O187    0.991   .     S
O177   Zn199   1.954   .     S
O177   Zn200   1.937   .     S
O177   Zn201   1.931   .     S
O177   Zn198   1.948   .     S
O178   Zn199   1.919   .     S
O179   Zn201   1.927   .     S
O180   Zn200   1.927   .     S
O181   Zn198   1.918   .     S
O182   S196    1.504   .     D
O183   S196    1.504   .     D
O185   S197    1.503   .     D
O186   S197    1.503   .     D
O187   S197    1.683   .     S
O188   Zn198   1.935   .     S
O189   Zn201   1.933   .     S
O190   Zn199   1.935   .     S
O191   Zn200   1.943   .     S
O192   Zn201   1.946   .     S
O193   Zn198   1.938   .     S
O194   Zn199   1.931   .     S
O195   Zn200   1.930   .     S
S196   C11     1.782   1_655 S
S196   O50     1.683   1_655 S
C202   C212    1.428   .     S
C202   O259    1.264   .     A
C202   O257    1.272   .     A
C203   C204    1.390   .     A
C203   C226    1.413   .     A
C203   H241    1.079   .     S
C204   F232    1.359   .     S
C204   C809    1.397   .     S
C205   O258    1.287   .     A
C205   C211    1.454   .     S
C205   O260    1.262   .     A
C206   C207    1.420   .     A
C206   C208    1.405   .     A
C206   C807    1.397   1_554 S
C207   C210    1.409   .     A
C207   C227    1.423   .     A
C208   H237    1.083   .     S
C208   C209    1.392   .     A
C209   H240    1.084   .     S
C209   C221    1.396   .     A
C210   C221    1.396   .     A
C210   F231    1.357   .     S
C211   C279    1.353   .     S
C211   H305    1.088   .     S
C212   C345    1.353   1_455 S
C212   S397    1.782   1_455 S
C213   F234    1.358   .     S
C213   C220    1.405   .     A
C213   C222    1.393   .     A
C214   C217    1.451   .     S
C214   C416    1.336   .     S
C214   H440    1.088   .     S
C215   C216    1.430   .     S
C216   O255    1.275   .     A
C216   O261    1.275   .     A
C217   O256    1.269   .     A
C217   O262    1.273   .     A
C218   C221    1.454   .     S
C218   O245    1.282   .     A
C218   O247    1.279   .     A
C219   O246    1.283   .     A
C219   O248    1.284   .     A
C219   C220    1.478   .     S
C220   C223    1.404   .     A
C222   F233    1.359   .     S
C222   C225    1.405   .     A
C223   C224    1.414   .     A
C223   F235    1.358   .     S
C224   C225    1.417   .     A
C224   C226    1.423   .     A
C225   C832    1.397   .     S
C226   C830    1.421   .     S
C227   C228    1.425   .     A
C227   C829    1.421   1_554 S
C228   C229    1.395   .     A
C228   S264    1.780   .     S
C229   H236    1.084   .     S
C229   C828    1.397   1_554 S
F230   C416    1.361   .     S
H238   C345    1.088   1_455 S
H242   O318    0.991   .     S
H243   O254    0.991   .     S
O244   Zn266   1.954   .     S
O244   Zn267   1.937   .     S
O244   Zn268   1.931   .     S
O244   Zn265   1.948   .     S
O245   Zn266   1.919   .     S
O246   Zn268   1.927   .     S
O247   Zn267   1.927   .     S
O248   Zn265   1.918   .     S
O249   S263    1.504   .     D
O250   S263    1.504   .     D
O251   H376    0.991   1_455 S
O251   S397    1.683   1_455 S
O252   S264    1.503   .     D
O253   S264    1.503   .     D
O254   S264    1.683   .     S
O255   Zn265   1.935   .     S
O256   Zn268   1.933   .     S
O257   Zn266   1.935   .     S
O258   Zn267   1.943   .     S
O259   Zn268   1.946   .     S
O260   Zn265   1.938   .     S
O261   Zn266   1.931   .     S
O262   Zn267   1.930   .     S
S263   C279    1.782   .     S
S263   O318    1.683   .     S
C269   C279    1.428   .     S
C269   O326    1.264   .     A
C269   O324    1.272   .     A
C270   C271    1.390   .     A
C270   C293    1.413   .     A
C270   H308    1.079   .     S
C271   F299    1.359   .     S
C271   C876    1.397   .     S
C272   O325    1.287   .     A
C272   C278    1.454   .     S
C272   O327    1.262   .     A
C273   C274    1.420   .     A
C273   C275    1.405   .     A
C273   C874    1.397   1_554 S
C274   C277    1.409   .     A
C274   C294    1.423   .     A
C275   H304    1.083   .     S
C275   C276    1.392   .     A
C276   H307    1.084   .     S
C276   C288    1.396   .     A
C277   C288    1.396   .     A
C277   F298    1.357   .     S
C278   C346    1.353   .     S
C278   H372    1.088   .     S
C280   F301    1.358   .     S
C280   C287    1.405   .     A
C280   C289    1.393   .     A
C281   C284    1.451   .     S
C281   C483    1.336   .     S
C281   H507    1.088   .     S
C282   C283    1.430   .     S
C283   O322    1.275   .     A
C283   O328    1.275   .     A
C284   O323    1.269   .     A
C284   O329    1.273   .     A
C285   C288    1.454   .     S
C285   O312    1.282   .     A
C285   O314    1.279   .     A
C286   O313    1.283   .     A
C286   O315    1.284   .     A
C286   C287    1.478   .     S
C287   C290    1.404   .     A
C289   F300    1.359   .     S
C289   C292    1.405   .     A
C290   C291    1.414   .     A
C290   F302    1.358   .     S
C291   C292    1.417   .     A
C291   C293    1.423   .     A
C292   C899    1.397   .     S
C293   C897    1.421   .     S
C294   C295    1.425   .     A
C294   C896    1.421   1_554 S
C295   C296    1.395   .     A
C295   S331    1.780   .     S
C296   H303    1.084   .     S
C296   C895    1.397   1_554 S
F297   C483    1.361   .     S
H309   O385    0.991   .     S
H310   O321    0.991   .     S
O311   Zn333   1.954   .     S
O311   Zn334   1.937   .     S
O311   Zn335   1.931   .     S
O311   Zn332   1.948   .     S
O312   Zn333   1.919   .     S
O313   Zn335   1.927   .     S
O314   Zn334   1.927   .     S
O315   Zn332   1.918   .     S
O316   S330    1.504   .     D
O317   S330    1.504   .     D
O319   S331    1.503   .     D
O320   S331    1.503   .     D
O321   S331    1.683   .     S
O322   Zn332   1.935   .     S
O323   Zn335   1.933   .     S
O324   Zn333   1.935   .     S
O325   Zn334   1.943   .     S
O326   Zn335   1.946   .     S
O327   Zn332   1.938   .     S
O328   Zn333   1.931   .     S
O329   Zn334   1.930   .     S
S330   C346    1.782   .     S
S330   O385    1.683   .     S
C336   C346    1.428   .     S
C336   O393    1.264   .     A
C336   O391    1.272   .     A
C337   C338    1.390   .     A
C337   C360    1.413   .     A
C337   H375    1.079   .     S
C338   F366    1.359   .     S
C338   C943    1.397   .     S
C339   O392    1.287   .     A
C339   C345    1.454   .     S
C339   O394    1.262   .     A
C340   C341    1.420   .     A
C340   C342    1.405   .     A
C340   C941    1.397   1_554 S
C341   C344    1.409   .     A
C341   C361    1.423   .     A
C342   H371    1.083   .     S
C342   C343    1.392   .     A
C343   H374    1.084   .     S
C343   C355    1.396   .     A
C344   C355    1.396   .     A
C344   F365    1.357   .     S
C345   C212    1.353   1_655 S
C345   H238    1.088   1_655 S
C347   F368    1.358   .     S
C347   C354    1.405   .     A
C347   C356    1.393   .     A
C348   C351    1.451   .     S
C348   C550    1.336   .     S
C348   H574    1.088   .     S
C349   C350    1.430   .     S
C350   O389    1.275   .     A
C350   O395    1.275   .     A
C351   O390    1.269   .     A
C351   O396    1.273   .     A
C352   C355    1.454   .     S
C352   O379    1.282   .     A
C352   O381    1.279   .     A
C353   O380    1.283   .     A
C353   O382    1.284   .     A
C353   C354    1.478   .     S
C354   C357    1.404   .     A
C356   F367    1.359   .     S
C356   C359    1.405   .     A
C357   C358    1.414   .     A
C357   F369    1.358   .     S
C358   C359    1.417   .     A
C358   C360    1.423   .     A
C359   C966    1.397   .     S
C360   C964    1.421   .     S
C361   C362    1.425   .     A
C361   C963    1.421   1_554 S
C362   C363    1.395   .     A
C362   S398    1.780   .     S
C363   H370    1.084   .     S
C363   C962    1.397   1_554 S
F364   C550    1.361   .     S
H376   O251    0.991   1_655 S
H377   O388    0.991   .     S
O378   Zn400   1.954   .     S
O378   Zn401   1.937   .     S
O378   Zn402   1.931   .     S
O378   Zn399   1.948   .     S
O379   Zn400   1.919   .     S
O380   Zn402   1.927   .     S
O381   Zn401   1.927   .     S
O382   Zn399   1.918   .     S
O383   S397    1.504   .     D
O384   S397    1.504   .     D
O386   S398    1.503   .     D
O387   S398    1.503   .     D
O388   S398    1.683   .     S
O389   Zn399   1.935   .     S
O390   Zn402   1.933   .     S
O391   Zn400   1.935   .     S
O392   Zn401   1.943   .     S
O393   Zn402   1.946   .     S
O394   Zn399   1.938   .     S
O395   Zn400   1.931   .     S
O396   Zn401   1.930   .     S
S397   C212    1.782   1_655 S
S397   O251    1.683   1_655 S
C403   C413    1.428   .     S
C403   O460    1.264   .     A
C403   O458    1.272   .     A
C404   C405    1.390   .     A
C404   C427    1.413   .     A
C404   H442    1.079   .     S
C405   F433    1.359   .     S
C405   C1010   1.397   .     S
C406   O459    1.287   .     A
C406   C412    1.454   .     S
C406   O461    1.262   .     A
C407   C408    1.420   .     A
C407   C409    1.405   .     A
C407   C1008   1.397   1_554 S
C408   C411    1.409   .     A
C408   C428    1.423   .     A
C409   H438    1.083   .     S
C409   C410    1.392   .     A
C410   H441    1.084   .     S
C410   C422    1.396   .     A
C411   C422    1.396   .     A
C411   F432    1.357   .     S
C412   C480    1.353   .     S
C412   H506    1.088   .     S
C413   C546    1.353   1_455 S
C413   S598    1.782   1_455 S
C414   F435    1.358   .     S
C414   C421    1.405   .     A
C414   C423    1.393   .     A
C415   C418    1.451   .     S
C415   C14     1.336   1_565 S
C415   H38     1.088   1_565 S
C416   C417    1.430   .     S
C417   O456    1.275   .     A
C417   O462    1.275   .     A
C418   O457    1.269   .     A
C418   O463    1.273   .     A
C419   C422    1.454   .     S
C419   O446    1.282   .     A
C419   O448    1.279   .     A
C420   O447    1.283   .     A
C420   O449    1.284   .     A
C420   C421    1.478   .     S
C421   C424    1.404   .     A
C423   F434    1.359   .     S
C423   C426    1.405   .     A
C424   C425    1.414   .     A
C424   F436    1.358   .     S
C425   C426    1.417   .     A
C425   C427    1.423   .     A
C426   C1033   1.397   .     S
C427   C1031   1.421   .     S
C428   C429    1.425   .     A
C428   C1030   1.421   1_554 S
C429   C430    1.395   .     A
C429   S465    1.780   .     S
C430   H437    1.084   .     S
C430   C1029   1.397   1_554 S
F431   C14     1.361   1_565 S
H439   C546    1.088   1_455 S
H443   O519    0.991   .     S
H444   O455    0.991   .     S
O445   Zn467   1.954   .     S
O445   Zn468   1.937   .     S
O445   Zn469   1.931   .     S
O445   Zn466   1.948   .     S
O446   Zn467   1.919   .     S
O447   Zn469   1.927   .     S
O448   Zn468   1.927   .     S
O449   Zn466   1.918   .     S
O450   S464    1.504   .     D
O451   S464    1.504   .     D
O452   H577    0.991   1_455 S
O452   S598    1.683   1_455 S
O453   S465    1.503   .     D
O454   S465    1.503   .     D
O455   S465    1.683   .     S
O456   Zn466   1.935   .     S
O457   Zn469   1.933   .     S
O458   Zn467   1.935   .     S
O459   Zn468   1.943   .     S
O460   Zn469   1.946   .     S
O461   Zn466   1.938   .     S
O462   Zn467   1.931   .     S
O463   Zn468   1.930   .     S
S464   C480    1.782   .     S
S464   O519    1.683   .     S
C470   C480    1.428   .     S
C470   O527    1.264   .     A
C470   O525    1.272   .     A
C471   C472    1.390   .     A
C471   C494    1.413   .     A
C471   H509    1.079   .     S
C472   F500    1.359   .     S
C472   C1077   1.397   .     S
C473   O526    1.287   .     A
C473   C479    1.454   .     S
C473   O528    1.262   .     A
C474   C475    1.420   .     A
C474   C476    1.405   .     A
C474   C1075   1.397   1_554 S
C475   C478    1.409   .     A
C475   C495    1.423   .     A
C476   H505    1.083   .     S
C476   C477    1.392   .     A
C477   H508    1.084   .     S
C477   C489    1.396   .     A
C478   C489    1.396   .     A
C478   F499    1.357   .     S
C479   C547    1.353   .     S
C479   H573    1.088   .     S
C481   F502    1.358   .     S
C481   C488    1.405   .     A
C481   C490    1.393   .     A
C482   C485    1.451   .     S
C482   C81     1.336   1_565 S
C482   H105    1.088   1_565 S
C483   C484    1.430   .     S
C484   O523    1.275   .     A
C484   O529    1.275   .     A
C485   O524    1.269   .     A
C485   O530    1.273   .     A
C486   C489    1.454   .     S
C486   O513    1.282   .     A
C486   O515    1.279   .     A
C487   O514    1.283   .     A
C487   O516    1.284   .     A
C487   C488    1.478   .     S
C488   C491    1.404   .     A
C490   F501    1.359   .     S
C490   C493    1.405   .     A
C491   C492    1.414   .     A
C491   F503    1.358   .     S
C492   C493    1.417   .     A
C492   C494    1.423   .     A
C493   C1100   1.397   .     S
C494   C1098   1.421   .     S
C495   C496    1.425   .     A
C495   C1097   1.421   1_554 S
C496   C497    1.395   .     A
C496   S532    1.780   .     S
C497   H504    1.084   .     S
C497   C1096   1.397   1_554 S
F498   C81     1.361   1_565 S
H510   O586    0.991   .     S
H511   O522    0.991   .     S
O512   Zn534   1.954   .     S
O512   Zn535   1.937   .     S
O512   Zn536   1.931   .     S
O512   Zn533   1.948   .     S
O513   Zn534   1.919   .     S
O514   Zn536   1.927   .     S
O515   Zn535   1.927   .     S
O516   Zn533   1.918   .     S
O517   S531    1.504   .     D
O518   S531    1.504   .     D
O520   S532    1.503   .     D
O521   S532    1.503   .     D
O522   S532    1.683   .     S
O523   Zn533   1.935   .     S
O524   Zn536   1.933   .     S
O525   Zn534   1.935   .     S
O526   Zn535   1.943   .     S
O527   Zn536   1.946   .     S
O528   Zn533   1.938   .     S
O529   Zn534   1.931   .     S
O530   Zn535   1.930   .     S
S531   C547    1.782   .     S
S531   O586    1.683   .     S
C537   C547    1.428   .     S
C537   O594    1.264   .     A
C537   O592    1.272   .     A
C538   C539    1.390   .     A
C538   C561    1.413   .     A
C538   H576    1.079   .     S
C539   F567    1.359   .     S
C539   C1144   1.397   .     S
C540   O593    1.287   .     A
C540   C546    1.454   .     S
C540   O595    1.262   .     A
C541   C542    1.420   .     A
C541   C543    1.405   .     A
C541   C1142   1.397   1_554 S
C542   C545    1.409   .     A
C542   C562    1.423   .     A
C543   H572    1.083   .     S
C543   C544    1.392   .     A
C544   H575    1.084   .     S
C544   C556    1.396   .     A
C545   C556    1.396   .     A
C545   F566    1.357   .     S
C546   C413    1.353   1_655 S
C546   H439    1.088   1_655 S
C548   F569    1.358   .     S
C548   C555    1.405   .     A
C548   C557    1.393   .     A
C549   C552    1.451   .     S
C549   C148    1.336   1_565 S
C549   H172    1.088   1_565 S
C550   C551    1.430   .     S
C551   O590    1.275   .     A
C551   O596    1.275   .     A
C552   O591    1.269   .     A
C552   O597    1.273   .     A
C553   C556    1.454   .     S
C553   O580    1.282   .     A
C553   O582    1.279   .     A
C554   O581    1.283   .     A
C554   O583    1.284   .     A
C554   C555    1.478   .     S
C555   C558    1.404   .     A
C557   F568    1.359   .     S
C557   C560    1.405   .     A
C558   C559    1.414   .     A
C558   F570    1.358   .     S
C559   C560    1.417   .     A
C559   C561    1.423   .     A
C560   C1167   1.397   .     S
C561   C1165   1.421   .     S
C562   C563    1.425   .     A
C562   C1164   1.421   1_554 S
C563   C564    1.395   .     A
C563   S599    1.780   .     S
C564   H571    1.084   .     S
C564   C1163   1.397   1_554 S
F565   C148    1.361   1_565 S
H577   O452    0.991   1_655 S
H578   O589    0.991   .     S
O579   Zn601   1.954   .     S
O579   Zn602   1.937   .     S
O579   Zn603   1.931   .     S
O579   Zn600   1.948   .     S
O580   Zn601   1.919   .     S
O581   Zn603   1.927   .     S
O582   Zn602   1.927   .     S
O583   Zn600   1.918   .     S
O584   S598    1.504   .     D
O585   S598    1.504   .     D
O587   S599    1.503   .     D
O588   S599    1.503   .     D
O589   S599    1.683   .     S
O590   Zn600   1.935   .     S
O591   Zn603   1.933   .     S
O592   Zn601   1.935   .     S
O593   Zn602   1.943   .     S
O594   Zn603   1.946   .     S
O595   Zn600   1.938   .     S
O596   Zn601   1.931   .     S
O597   Zn602   1.930   .     S
S598   C413    1.782   1_655 S
S598   O452    1.683   1_655 S
C604   C614    1.428   .     S
C604   O661    1.264   .     A
C604   O659    1.272   .     A
C605   C606    1.390   .     A
C605   C628    1.413   .     A
C605   H643    1.079   .     S
C606   F634    1.359   .     S
C606   C5      1.397   1_556 S
C607   O660    1.287   .     A
C607   C613    1.454   .     S
C607   O662    1.262   .     A
C608   C609    1.420   .     A
C608   C610    1.405   .     A
C609   C612    1.409   .     A
C609   C629    1.423   .     A
C610   H639    1.083   .     S
C610   C611    1.392   .     A
C611   H642    1.084   .     S
C611   C623    1.396   .     A
C612   C623    1.396   .     A
C612   F633    1.357   .     S
C613   C681    1.353   .     S
C613   H707    1.088   .     S
C614   C747    1.353   1_455 S
C614   S799    1.782   1_455 S
C615   F636    1.358   .     S
C615   C622    1.405   .     A
C615   C624    1.393   .     A
C616   C619    1.451   .     S
C616   C818    1.336   .     S
C616   H842    1.088   .     S
C617   C618    1.430   .     S
C617   C1018   1.336   1_545 S
C617   F1034   1.361   1_545 S
C618   O657    1.275   .     A
C618   O663    1.275   .     A
C619   O658    1.269   .     A
C619   O664    1.273   .     A
C620   C623    1.454   .     S
C620   O647    1.282   .     A
C620   O649    1.279   .     A
C621   O648    1.283   .     A
C621   O650    1.284   .     A
C621   C622    1.478   .     S
C622   C625    1.404   .     A
C624   F635    1.359   .     S
C624   C627    1.405   .     A
C625   C626    1.414   .     A
C625   F637    1.358   .     S
C626   C627    1.417   .     A
C626   C628    1.423   .     A
C627   C28     1.397   1_556 S
C628   C26     1.421   1_556 S
C629   C630    1.425   .     A
C630   C631    1.395   .     A
C630   S666    1.780   .     S
C631   H638    1.084   .     S
F632   C818    1.361   .     S
H640   C747    1.088   1_455 S
H641   C1018   1.088   1_545 S
H644   O720    0.991   .     S
H645   O656    0.991   .     S
O646   Zn668   1.954   .     S
O646   Zn669   1.937   .     S
O646   Zn670   1.931   .     S
O646   Zn667   1.948   .     S
O647   Zn668   1.919   .     S
O648   Zn670   1.927   .     S
O649   Zn669   1.927   .     S
O650   Zn667   1.918   .     S
O651   S665    1.504   .     D
O652   S665    1.504   .     D
O653   H778    0.991   1_455 S
O653   S799    1.683   1_455 S
O654   S666    1.503   .     D
O655   S666    1.503   .     D
O656   S666    1.683   .     S
O657   Zn667   1.935   .     S
O658   Zn670   1.933   .     S
O659   Zn668   1.935   .     S
O660   Zn669   1.943   .     S
O661   Zn670   1.946   .     S
O662   Zn667   1.938   .     S
O663   Zn668   1.931   .     S
O664   Zn669   1.930   .     S
S665   C681    1.782   .     S
S665   O720    1.683   .     S
C671   C681    1.428   .     S
C671   O728    1.264   .     A
C671   O726    1.272   .     A
C672   C673    1.390   .     A
C672   C695    1.413   .     A
C672   H710    1.079   .     S
C673   F701    1.359   .     S
C673   C72     1.397   1_556 S
C674   O727    1.287   .     A
C674   C680    1.454   .     S
C674   O729    1.262   .     A
C675   C676    1.420   .     A
C675   C677    1.405   .     A
C676   C679    1.409   .     A
C676   C696    1.423   .     A
C677   H706    1.083   .     S
C677   C678    1.392   .     A
C678   H709    1.084   .     S
C678   C690    1.396   .     A
C679   C690    1.396   .     A
C679   F700    1.357   .     S
C680   C748    1.353   .     S
C680   H774    1.088   .     S
C682   F703    1.358   .     S
C682   C689    1.405   .     A
C682   C691    1.393   .     A
C683   C686    1.451   .     S
C683   C885    1.336   .     S
C683   H909    1.088   .     S
C684   C685    1.430   .     S
C684   C1085   1.336   1_545 S
C684   F1101   1.361   1_545 S
C685   O724    1.275   .     A
C685   O730    1.275   .     A
C686   O725    1.269   .     A
C686   O731    1.273   .     A
C687   C690    1.454   .     S
C687   O714    1.282   .     A
C687   O716    1.279   .     A
C688   O715    1.283   .     A
C688   O717    1.284   .     A
C688   C689    1.478   .     S
C689   C692    1.404   .     A
C691   F702    1.359   .     S
C691   C694    1.405   .     A
C692   C693    1.414   .     A
C692   F704    1.358   .     S
C693   C694    1.417   .     A
C693   C695    1.423   .     A
C694   C95     1.397   1_556 S
C695   C93     1.421   1_556 S
C696   C697    1.425   .     A
C697   C698    1.395   .     A
C697   S733    1.780   .     S
C698   H705    1.084   .     S
F699   C885    1.361   .     S
H708   C1085   1.088   1_545 S
H711   O787    0.991   .     S
H712   O723    0.991   .     S
O713   Zn735   1.954   .     S
O713   Zn736   1.937   .     S
O713   Zn737   1.931   .     S
O713   Zn734   1.948   .     S
O714   Zn735   1.919   .     S
O715   Zn737   1.927   .     S
O716   Zn736   1.927   .     S
O717   Zn734   1.918   .     S
O718   S732    1.504   .     D
O719   S732    1.504   .     D
O721   S733    1.503   .     D
O722   S733    1.503   .     D
O723   S733    1.683   .     S
O724   Zn734   1.935   .     S
O725   Zn737   1.933   .     S
O726   Zn735   1.935   .     S
O727   Zn736   1.943   .     S
O728   Zn737   1.946   .     S
O729   Zn734   1.938   .     S
O730   Zn735   1.931   .     S
O731   Zn736   1.930   .     S
S732   C748    1.782   .     S
S732   O787    1.683   .     S
C738   C748    1.428   .     S
C738   O795    1.264   .     A
C738   O793    1.272   .     A
C739   C740    1.390   .     A
C739   C762    1.413   .     A
C739   H777    1.079   .     S
C740   F768    1.359   .     S
C740   C139    1.397   1_556 S
C741   O794    1.287   .     A
C741   C747    1.454   .     S
C741   O796    1.262   .     A
C742   C743    1.420   .     A
C742   C744    1.405   .     A
C743   C746    1.409   .     A
C743   C763    1.423   .     A
C744   H773    1.083   .     S
C744   C745    1.392   .     A
C745   H776    1.084   .     S
C745   C757    1.396   .     A
C746   C757    1.396   .     A
C746   F767    1.357   .     S
C747   C614    1.353   1_655 S
C747   H640    1.088   1_655 S
C749   F770    1.358   .     S
C749   C756    1.405   .     A
C749   C758    1.393   .     A
C750   C753    1.451   .     S
C750   C952    1.336   .     S
C750   H976    1.088   .     S
C751   C752    1.430   .     S
C751   C1152   1.336   1_545 S
C751   F1168   1.361   1_545 S
C752   O791    1.275   .     A
C752   O797    1.275   .     A
C753   O792    1.269   .     A
C753   O798    1.273   .     A
C754   C757    1.454   .     S
C754   O781    1.282   .     A
C754   O783    1.279   .     A
C755   O782    1.283   .     A
C755   O784    1.284   .     A
C755   C756    1.478   .     S
C756   C759    1.404   .     A
C758   F769    1.359   .     S
C758   C761    1.405   .     A
C759   C760    1.414   .     A
C759   F771    1.358   .     S
C760   C761    1.417   .     A
C760   C762    1.423   .     A
C761   C162    1.397   1_556 S
C762   C160    1.421   1_556 S
C763   C764    1.425   .     A
C764   C765    1.395   .     A
C764   S800    1.780   .     S
C765   H772    1.084   .     S
F766   C952    1.361   .     S
H775   C1152   1.088   1_545 S
H778   O653    0.991   1_655 S
H779   O790    0.991   .     S
O780   Zn802   1.954   .     S
O780   Zn803   1.937   .     S
O780   Zn804   1.931   .     S
O780   Zn801   1.948   .     S
O781   Zn802   1.919   .     S
O782   Zn804   1.927   .     S
O783   Zn803   1.927   .     S
O784   Zn801   1.918   .     S
O785   S799    1.504   .     D
O786   S799    1.504   .     D
O788   S800    1.503   .     D
O789   S800    1.503   .     D
O790   S800    1.683   .     S
O791   Zn801   1.935   .     S
O792   Zn804   1.933   .     S
O793   Zn802   1.935   .     S
O794   Zn803   1.943   .     S
O795   Zn804   1.946   .     S
O796   Zn801   1.938   .     S
O797   Zn802   1.931   .     S
O798   Zn803   1.930   .     S
S799   C614    1.782   1_655 S
S799   O653    1.683   1_655 S
C805   C815    1.428   .     S
C805   O862    1.264   .     A
C805   O860    1.272   .     A
C806   C807    1.390   .     A
C806   C829    1.413   .     A
C806   H844    1.079   .     S
C807   F835    1.359   .     S
C807   C206    1.397   1_556 S
C808   O861    1.287   .     A
C808   C814    1.454   .     S
C808   O863    1.262   .     A
C809   C810    1.420   .     A
C809   C811    1.405   .     A
C810   C813    1.409   .     A
C810   C830    1.423   .     A
C811   H840    1.083   .     S
C811   C812    1.392   .     A
C812   H843    1.084   .     S
C812   C824    1.396   .     A
C813   C824    1.396   .     A
C813   F834    1.357   .     S
C814   C882    1.353   .     S
C814   H908    1.088   .     S
C815   C948    1.353   1_455 S
C815   S1000   1.782   1_455 S
C816   F837    1.358   .     S
C816   C823    1.405   .     A
C816   C825    1.393   .     A
C817   C820    1.451   .     S
C817   C1019   1.336   .     S
C817   H1043   1.088   .     S
C818   C819    1.430   .     S
C819   O858    1.275   .     A
C819   O864    1.275   .     A
C820   O859    1.269   .     A
C820   O865    1.273   .     A
C821   C824    1.454   .     S
C821   O848    1.282   .     A
C821   O850    1.279   .     A
C822   O849    1.283   .     A
C822   O851    1.284   .     A
C822   C823    1.478   .     S
C823   C826    1.404   .     A
C825   F836    1.359   .     S
C825   C828    1.405   .     A
C826   C827    1.414   .     A
C826   F838    1.358   .     S
C827   C828    1.417   .     A
C827   C829    1.423   .     A
C828   C229    1.397   1_556 S
C829   C227    1.421   1_556 S
C830   C831    1.425   .     A
C831   C832    1.395   .     A
C831   S867    1.780   .     S
C832   H839    1.084   .     S
F833   C1019   1.361   .     S
H841   C948    1.088   1_455 S
H845   O921    0.991   .     S
H846   O857    0.991   .     S
O847   Zn869   1.954   .     S
O847   Zn870   1.937   .     S
O847   Zn871   1.931   .     S
O847   Zn868   1.948   .     S
O848   Zn869   1.919   .     S
O849   Zn871   1.927   .     S
O850   Zn870   1.927   .     S
O851   Zn868   1.918   .     S
O852   S866    1.504   .     D
O853   S866    1.504   .     D
O854   H979    0.991   1_455 S
O854   S1000   1.683   1_455 S
O855   S867    1.503   .     D
O856   S867    1.503   .     D
O857   S867    1.683   .     S
O858   Zn868   1.935   .     S
O859   Zn871   1.933   .     S
O860   Zn869   1.935   .     S
O861   Zn870   1.943   .     S
O862   Zn871   1.946   .     S
O863   Zn868   1.938   .     S
O864   Zn869   1.931   .     S
O865   Zn870   1.930   .     S
S866   C882    1.782   .     S
S866   O921    1.683   .     S
C872   C882    1.428   .     S
C872   O929    1.264   .     A
C872   O927    1.272   .     A
C873   C874    1.390   .     A
C873   C896    1.413   .     A
C873   H911    1.079   .     S
C874   F902    1.359   .     S
C874   C273    1.397   1_556 S
C875   O928    1.287   .     A
C875   C881    1.454   .     S
C875   O930    1.262   .     A
C876   C877    1.420   .     A
C876   C878    1.405   .     A
C877   C880    1.409   .     A
C877   C897    1.423   .     A
C878   H907    1.083   .     S
C878   C879    1.392   .     A
C879   H910    1.084   .     S
C879   C891    1.396   .     A
C880   C891    1.396   .     A
C880   F901    1.357   .     S
C881   C949    1.353   .     S
C881   H975    1.088   .     S
C883   F904    1.358   .     S
C883   C890    1.405   .     A
C883   C892    1.393   .     A
C884   C887    1.451   .     S
C884   C1086   1.336   .     S
C884   H1110   1.088   .     S
C885   C886    1.430   .     S
C886   O925    1.275   .     A
C886   O931    1.275   .     A
C887   O926    1.269   .     A
C887   O932    1.273   .     A
C888   C891    1.454   .     S
C888   O915    1.282   .     A
C888   O917    1.279   .     A
C889   O916    1.283   .     A
C889   O918    1.284   .     A
C889   C890    1.478   .     S
C890   C893    1.404   .     A
C892   F903    1.359   .     S
C892   C895    1.405   .     A
C893   C894    1.414   .     A
C893   F905    1.358   .     S
C894   C895    1.417   .     A
C894   C896    1.423   .     A
C895   C296    1.397   1_556 S
C896   C294    1.421   1_556 S
C897   C898    1.425   .     A
C898   C899    1.395   .     A
C898   S934    1.780   .     S
C899   H906    1.084   .     S
F900   C1086   1.361   .     S
H912   O988    0.991   .     S
H913   O924    0.991   .     S
O914   Zn936   1.954   .     S
O914   Zn937   1.937   .     S
O914   Zn938   1.931   .     S
O914   Zn935   1.948   .     S
O915   Zn936   1.919   .     S
O916   Zn938   1.927   .     S
O917   Zn937   1.927   .     S
O918   Zn935   1.918   .     S
O919   S933    1.504   .     D
O920   S933    1.504   .     D
O922   S934    1.503   .     D
O923   S934    1.503   .     D
O924   S934    1.683   .     S
O925   Zn935   1.935   .     S
O926   Zn938   1.933   .     S
O927   Zn936   1.935   .     S
O928   Zn937   1.943   .     S
O929   Zn938   1.946   .     S
O930   Zn935   1.938   .     S
O931   Zn936   1.931   .     S
O932   Zn937   1.930   .     S
S933   C949    1.782   .     S
S933   O988    1.683   .     S
C939   C949    1.428   .     S
C939   O996    1.264   .     A
C939   O994    1.272   .     A
C940   C941    1.390   .     A
C940   C963    1.413   .     A
C940   H978    1.079   .     S
C941   F969    1.359   .     S
C941   C340    1.397   1_556 S
C942   O995    1.287   .     A
C942   C948    1.454   .     S
C942   O997    1.262   .     A
C943   C944    1.420   .     A
C943   C945    1.405   .     A
C944   C947    1.409   .     A
C944   C964    1.423   .     A
C945   H974    1.083   .     S
C945   C946    1.392   .     A
C946   H977    1.084   .     S
C946   C958    1.396   .     A
C947   C958    1.396   .     A
C947   F968    1.357   .     S
C948   C815    1.353   1_655 S
C948   H841    1.088   1_655 S
C950   F971    1.358   .     S
C950   C957    1.405   .     A
C950   C959    1.393   .     A
C951   C954    1.451   .     S
C951   C1153   1.336   .     S
C951   H1177   1.088   .     S
C952   C953    1.430   .     S
C953   O992    1.275   .     A
C953   O998    1.275   .     A
C954   O993    1.269   .     A
C954   O999    1.273   .     A
C955   C958    1.454   .     S
C955   O982    1.282   .     A
C955   O984    1.279   .     A
C956   O983    1.283   .     A
C956   O985    1.284   .     A
C956   C957    1.478   .     S
C957   C960    1.404   .     A
C959   F970    1.359   .     S
C959   C962    1.405   .     A
C960   C961    1.414   .     A
C960   F972    1.358   .     S
C961   C962    1.417   .     A
C961   C963    1.423   .     A
C962   C363    1.397   1_556 S
C963   C361    1.421   1_556 S
C964   C965    1.425   .     A
C965   C966    1.395   .     A
C965   S1001   1.780   .     S
C966   H973    1.084   .     S
F967   C1153   1.361   .     S
H979   O854    0.991   1_655 S
H980   O991    0.991   .     S
O981   Zn1003  1.954   .     S
O981   Zn1004  1.937   .     S
O981   Zn1005  1.931   .     S
O981   Zn1002  1.948   .     S
O982   Zn1003  1.919   .     S
O983   Zn1005  1.927   .     S
O984   Zn1004  1.927   .     S
O985   Zn1002  1.918   .     S
O986   S1000   1.504   .     D
O987   S1000   1.504   .     D
O989   S1001   1.503   .     D
O990   S1001   1.503   .     D
O991   S1001   1.683   .     S
O992   Zn1002  1.935   .     S
O993   Zn1005  1.933   .     S
O994   Zn1003  1.935   .     S
O995   Zn1004  1.943   .     S
O996   Zn1005  1.946   .     S
O997   Zn1002  1.938   .     S
O998   Zn1003  1.931   .     S
O999   Zn1004  1.930   .     S
S1000  C815    1.782   1_655 S
S1000  O854    1.683   1_655 S
C1006  C1016   1.428   .     S
C1006  O1063   1.264   .     A
C1006  O1061   1.272   .     A
C1007  C1008   1.390   .     A
C1007  C1030   1.413   .     A
C1007  H1045   1.079   .     S
C1008  F1036   1.359   .     S
C1008  C407    1.397   1_556 S
C1009  O1062   1.287   .     A
C1009  C1015   1.454   .     S
C1009  O1064   1.262   .     A
C1010  C1011   1.420   .     A
C1010  C1012   1.405   .     A
C1011  C1014   1.409   .     A
C1011  C1031   1.423   .     A
C1012  H1041   1.083   .     S
C1012  C1013   1.392   .     A
C1013  H1044   1.084   .     S
C1013  C1025   1.396   .     A
C1014  C1025   1.396   .     A
C1014  F1035   1.357   .     S
C1015  C1083   1.353   .     S
C1015  H1109   1.088   .     S
C1016  C1149   1.353   1_455 S
C1016  S1201   1.782   1_455 S
C1017  F1038   1.358   .     S
C1017  C1024   1.405   .     A
C1017  C1026   1.393   .     A
C1018  C1021   1.451   .     S
C1018  C617    1.336   1_565 S
C1018  H641    1.088   1_565 S
C1019  C1020   1.430   .     S
C1020  O1059   1.275   .     A
C1020  O1065   1.275   .     A
C1021  O1060   1.269   .     A
C1021  O1066   1.273   .     A
C1022  C1025   1.454   .     S
C1022  O1049   1.282   .     A
C1022  O1051   1.279   .     A
C1023  O1050   1.283   .     A
C1023  O1052   1.284   .     A
C1023  C1024   1.478   .     S
C1024  C1027   1.404   .     A
C1026  F1037   1.359   .     S
C1026  C1029   1.405   .     A
C1027  C1028   1.414   .     A
C1027  F1039   1.358   .     S
C1028  C1029   1.417   .     A
C1028  C1030   1.423   .     A
C1029  C430    1.397   1_556 S
C1030  C428    1.421   1_556 S
C1031  C1032   1.425   .     A
C1032  C1033   1.395   .     A
C1032  S1068   1.780   .     S
C1033  H1040   1.084   .     S
F1034  C617    1.361   1_565 S
H1042  C1149   1.088   1_455 S
H1046  O1122   0.991   .     S
H1047  O1058   0.991   .     S
O1048  Zn1070  1.954   .     S
O1048  Zn1071  1.937   .     S
O1048  Zn1072  1.931   .     S
O1048  Zn1069  1.948   .     S
O1049  Zn1070  1.919   .     S
O1050  Zn1072  1.927   .     S
O1051  Zn1071  1.927   .     S
O1052  Zn1069  1.918   .     S
O1053  S1067   1.504   .     D
O1054  S1067   1.504   .     D
O1055  H1180   0.991   1_455 S
O1055  S1201   1.683   1_455 S
O1056  S1068   1.503   .     D
O1057  S1068   1.503   .     D
O1058  S1068   1.683   .     S
O1059  Zn1069  1.935   .     S
O1060  Zn1072  1.933   .     S
O1061  Zn1070  1.935   .     S
O1062  Zn1071  1.943   .     S
O1063  Zn1072  1.946   .     S
O1064  Zn1069  1.938   .     S
O1065  Zn1070  1.931   .     S
O1066  Zn1071  1.930   .     S
S1067  C1083   1.782   .     S
S1067  O1122   1.683   .     S
C1073  C1083   1.428   .     S
C1073  O1130   1.264   .     A
C1073  O1128   1.272   .     A
C1074  C1075   1.390   .     A
C1074  C1097   1.413   .     A
C1074  H1112   1.079   .     S
C1075  F1103   1.359   .     S
C1075  C474    1.397   1_556 S
C1076  O1129   1.287   .     A
C1076  C1082   1.454   .     S
C1076  O1131   1.262   .     A
C1077  C1078   1.420   .     A
C1077  C1079   1.405   .     A
C1078  C1081   1.409   .     A
C1078  C1098   1.423   .     A
C1079  H1108   1.083   .     S
C1079  C1080   1.392   .     A
C1080  H1111   1.084   .     S
C1080  C1092   1.396   .     A
C1081  C1092   1.396   .     A
C1081  F1102   1.357   .     S
C1082  C1150   1.353   .     S
C1082  H1176   1.088   .     S
C1084  F1105   1.358   .     S
C1084  C1091   1.405   .     A
C1084  C1093   1.393   .     A
C1085  C1088   1.451   .     S
C1085  C684    1.336   1_565 S
C1085  H708    1.088   1_565 S
C1086  C1087   1.430   .     S
C1087  O1126   1.275   .     A
C1087  O1132   1.275   .     A
C1088  O1127   1.269   .     A
C1088  O1133   1.273   .     A
C1089  C1092   1.454   .     S
C1089  O1116   1.282   .     A
C1089  O1118   1.279   .     A
C1090  O1117   1.283   .     A
C1090  O1119   1.284   .     A
C1090  C1091   1.478   .     S
C1091  C1094   1.404   .     A
C1093  F1104   1.359   .     S
C1093  C1096   1.405   .     A
C1094  C1095   1.414   .     A
C1094  F1106   1.358   .     S
C1095  C1096   1.417   .     A
C1095  C1097   1.423   .     A
C1096  C497    1.397   1_556 S
C1097  C495    1.421   1_556 S
C1098  C1099   1.425   .     A
C1099  C1100   1.395   .     A
C1099  S1135   1.780   .     S
C1100  H1107   1.084   .     S
F1101  C684    1.361   1_565 S
H1113  O1189   0.991   .     S
H1114  O1125   0.991   .     S
O1115  Zn1137  1.954   .     S
O1115  Zn1138  1.937   .     S
O1115  Zn1139  1.931   .     S
O1115  Zn1136  1.948   .     S
O1116  Zn1137  1.919   .     S
O1117  Zn1139  1.927   .     S
O1118  Zn1138  1.927   .     S
O1119  Zn1136  1.918   .     S
O1120  S1134   1.504   .     D
O1121  S1134   1.504   .     D
O1123  S1135   1.503   .     D
O1124  S1135   1.503   .     D
O1125  S1135   1.683   .     S
O1126  Zn1136  1.935   .     S
O1127  Zn1139  1.933   .     S
O1128  Zn1137  1.935   .     S
O1129  Zn1138  1.943   .     S
O1130  Zn1139  1.946   .     S
O1131  Zn1136  1.938   .     S
O1132  Zn1137  1.931   .     S
O1133  Zn1138  1.930   .     S
S1134  C1150   1.782   .     S
S1134  O1189   1.683   .     S
C1140  C1150   1.428   .     S
C1140  O1197   1.264   .     A
C1140  O1195   1.272   .     A
C1141  C1142   1.390   .     A
C1141  C1164   1.413   .     A
C1141  H1179   1.079   .     S
C1142  F1170   1.359   .     S
C1142  C541    1.397   1_556 S
C1143  O1196   1.287   .     A
C1143  C1149   1.454   .     S
C1143  O1198   1.262   .     A
C1144  C1145   1.420   .     A
C1144  C1146   1.405   .     A
C1145  C1148   1.409   .     A
C1145  C1165   1.423   .     A
C1146  H1175   1.083   .     S
C1146  C1147   1.392   .     A
C1147  H1178   1.084   .     S
C1147  C1159   1.396   .     A
C1148  C1159   1.396   .     A
C1148  F1169   1.357   .     S
C1149  C1016   1.353   1_655 S
C1149  H1042   1.088   1_655 S
C1151  F1172   1.358   .     S
C1151  C1158   1.405   .     A
C1151  C1160   1.393   .     A
C1152  C1155   1.451   .     S
C1152  C751    1.336   1_565 S
C1152  H775    1.088   1_565 S
C1153  C1154   1.430   .     S
C1154  O1193   1.275   .     A
C1154  O1199   1.275   .     A
C1155  O1194   1.269   .     A
C1155  O1200   1.273   .     A
C1156  C1159   1.454   .     S
C1156  O1183   1.282   .     A
C1156  O1185   1.279   .     A
C1157  O1184   1.283   .     A
C1157  O1186   1.284   .     A
C1157  C1158   1.478   .     S
C1158  C1161   1.404   .     A
C1160  F1171   1.359   .     S
C1160  C1163   1.405   .     A
C1161  C1162   1.414   .     A
C1161  F1173   1.358   .     S
C1162  C1163   1.417   .     A
C1162  C1164   1.423   .     A
C1163  C564    1.397   1_556 S
C1164  C562    1.421   1_556 S
C1165  C1166   1.425   .     A
C1166  C1167   1.395   .     A
C1166  S1202   1.780   .     S
C1167  H1174   1.084   .     S
F1168  C751    1.361   1_565 S
H1180  O1055   0.991   1_655 S
H1181  O1192   0.991   .     S
O1182  Zn1204  1.954   .     S
O1182  Zn1205  1.937   .     S
O1182  Zn1206  1.931   .     S
O1182  Zn1203  1.948   .     S
O1183  Zn1204  1.919   .     S
O1184  Zn1206  1.927   .     S
O1185  Zn1205  1.927   .     S
O1186  Zn1203  1.918   .     S
O1187  S1201   1.504   .     D
O1188  S1201   1.504   .     D
O1190  S1202   1.503   .     D
O1191  S1202   1.503   .     D
O1192  S1202   1.683   .     S
O1193  Zn1203  1.935   .     S
O1194  Zn1206  1.933   .     S
O1195  Zn1204  1.935   .     S
O1196  Zn1205  1.943   .     S
O1197  Zn1206  1.946   .     S
O1198  Zn1203  1.938   .     S
O1199  Zn1204  1.931   .     S
O1200  Zn1205  1.930   .     S
S1201  C1016   1.782   1_655 S
S1201  O1055   1.683   1_655 S
