data_str_m3_o2_o5_pcu_sym.96
_audit_creation_date              2020-01-03
_audit_creation_method            'Materials Studio'
_symmetry_space_group_name_H-M    'P1'
_symmetry_Int_Tables_number       1
_symmetry_cell_setting            triclinic
loop_
_symmetry_equiv_pos_as_xyz
  x,y,z
_cell_length_a                    30.0175
_cell_length_b                    28.5305
_cell_length_c                    26.6689
_cell_angle_alpha                 89.4894
_cell_angle_beta                  92.0903
_cell_angle_gamma                 90.4435
loop_
_atom_site_label
_atom_site_type_symbol
_atom_site_fract_x
_atom_site_fract_y
_atom_site_fract_z
_atom_site_U_iso_or_equiv
_atom_site_adp_type
_atom_site_occupancy
C1     C     0.16346   0.24971   0.16519   0.00000  Uiso   1.00
C2     C     0.23385   0.44733   0.12382   0.00000  Uiso   1.00
C3     C     0.24993   0.25013   0.07293   0.00000  Uiso   1.00
C4     C     0.25007   0.24987   0.26040   0.00000  Uiso   1.00
C5     C     0.24690   0.02673   0.16915   0.00000  Uiso   1.00
C6     C     0.25310   0.47327   0.16419   0.00000  Uiso   1.00
C7     C     0.24997   0.25019   0.02181   0.00000  Uiso   1.00
C8     C     0.25003   0.24981   0.31152   0.00000  Uiso   1.00
C9     C     0.04476   0.28693   0.13624   0.00000  Uiso   1.00
C10    C     0.45524   0.21306   0.19709   0.00000  Uiso   1.00
C11    C     0.45532   0.29495   0.17918   0.00000  Uiso   1.00
C12    C     0.33654   0.25029   0.16814   0.00000  Uiso   1.00
C13    C     0.04468   0.20505   0.15415   0.00000  Uiso   1.00
C14    C     0.09109   0.28919   0.14239   0.00000  Uiso   1.00
C15    C     0.40891   0.21080   0.19094   0.00000  Uiso   1.00
C16    C     0.40899   0.29494   0.17256   0.00000  Uiso   1.00
C17    C     0.09101   0.20506   0.16078   0.00000  Uiso   1.00
C18    C     0.11460   0.24848   0.15856   0.00000  Uiso   1.00
C19    C     0.38540   0.25152   0.17477   0.00000  Uiso   1.00
C20    C     0.02234   0.24794   0.15563   0.00000  Uiso   1.00
C21    C     0.47766   0.25206   0.17770   0.00000  Uiso   1.00
C22    C     0.11223   0.36638   0.17075   0.00000  Uiso   1.00
C23    C     0.22180   0.10241   0.13419   0.00000  Uiso   1.00
C24    C     0.38777   0.13361   0.16259   0.00000  Uiso   1.00
C25    C     0.38272   0.35173   0.11102   0.00000  Uiso   1.00
C26    C     0.11728   0.14828   0.22232   0.00000  Uiso   1.00
C27    C     0.27820   0.39759   0.19914   0.00000  Uiso   1.00
C28    C     0.27076   0.10183   0.20535   0.00000  Uiso   1.00
C29    C     0.22924   0.39817   0.12799   0.00000  Uiso   1.00
C30    C     0.21709   0.05310   0.13764   0.00000  Uiso   1.00
C31    C     0.28291   0.44690   0.19570   0.00000  Uiso   1.00
C32    C     0.26615   0.05267   0.20951   0.00000  Uiso   1.00
Cl33   Cl    0.18827   0.13320   0.08980   0.00000  Uiso   1.00
Cl34   Cl    0.33527   0.47098   0.21512   0.00000  Uiso   1.00
Cl35   Cl    0.26827   0.02833   0.27095   0.00000  Uiso   1.00
Cl36   Cl    0.23173   0.47167   0.06239   0.00000  Uiso   1.00
Cl37   Cl    0.31173   0.36680   0.24354   0.00000  Uiso   1.00
Cl38   Cl    0.30135   0.13114   0.25312   0.00000  Uiso   1.00
Cl39   Cl    0.19865   0.36886   0.08022   0.00000  Uiso   1.00
Cl40   Cl    0.01693   0.32665   0.09454   0.00000  Uiso   1.00
Cl41   Cl    0.48307   0.17335   0.23879   0.00000  Uiso   1.00
Cl42   Cl    0.48333   0.34625   0.20077   0.00000  Uiso   1.00
Cl43   Cl    0.01667   0.15375   0.13256   0.00000  Uiso   1.00
Cl44   Cl    0.16473   0.02902   0.11821   0.00000  Uiso   1.00
H45    H     0.10543   0.34573   0.09653   0.00000  Uiso   1.00
H46    H     0.41619   0.35966   0.09647   0.00000  Uiso   1.00
H47    H     0.36174   0.38353   0.10694   0.00000  Uiso   1.00
H48    H     0.36662   0.32327   0.08850   0.00000  Uiso   1.00
H49    H     0.10290   0.13454   0.14725   0.00000  Uiso   1.00
H50    H     0.08382   0.14036   0.23688   0.00000  Uiso   1.00
H51    H     0.13339   0.17675   0.24484   0.00000  Uiso   1.00
H52    H     0.13826   0.11648   0.22641   0.00000  Uiso   1.00
H53    H     0.07750   0.37841   0.17518   0.00000  Uiso   1.00
H54    H     0.13315   0.39713   0.16093   0.00000  Uiso   1.00
H55    H     0.12540   0.35145   0.20690   0.00000  Uiso   1.00
H56    H     0.39457   0.15428   0.23680   0.00000  Uiso   1.00
H57    H     0.42250   0.12158   0.15816   0.00000  Uiso   1.00
H58    H     0.37460   0.14854   0.12644   0.00000  Uiso   1.00
H59    H     0.36686   0.10286   0.17242   0.00000  Uiso   1.00
H60    H     0.39710   0.36545   0.18609   0.00000  Uiso   1.00
N61    N     0.25000   0.12623   0.16667   0.00000  Uiso   1.00
N62    N     0.25000   0.37376   0.16667   0.00000  Uiso   1.00
N63    N     0.11371   0.33184   0.13142   0.00000  Uiso   1.00
N64    N     0.38629   0.16816   0.20191   0.00000  Uiso   1.00
N65    N     0.38658   0.33820   0.16338   0.00000  Uiso   1.00
N66    N     0.11342   0.16180   0.16996   0.00000  Uiso   1.00
O67    O     0.18453   0.28974   0.16667   0.00000  Uiso   1.00
O68    O     0.31547   0.21026   0.16666   0.00000  Uiso   1.00
O69    O     0.31547   0.28974   0.16666   0.00000  Uiso   1.00
O70    O     0.18453   0.21026   0.16667   0.00000  Uiso   1.00
O71    O     0.25000   0.28973   0.09511   0.00000  Uiso   1.00
O72    O     0.25000   0.21027   0.23822   0.00000  Uiso   1.00
O73    O     0.25000   0.28973   0.23822   0.00000  Uiso   1.00
O74    O     0.25000   0.21027   0.09511   0.00000  Uiso   1.00
Zn75   Zn    0.25000   0.30307   0.16667   0.00000  Uiso   1.00
Zn76   Zn    0.25000   0.19693   0.16667   0.00000  Uiso   1.00
C77    C     0.66346   0.24971   0.16519   0.00000  Uiso   1.00
C78    C     0.73385   0.44733   0.12382   0.00000  Uiso   1.00
C79    C     0.74993   0.25013   0.07293   0.00000  Uiso   1.00
C80    C     0.75007   0.24987   0.26040   0.00000  Uiso   1.00
C81    C     0.74690   0.02673   0.16915   0.00000  Uiso   1.00
C82    C     0.75310   0.47327   0.16419   0.00000  Uiso   1.00
C83    C     0.74997   0.25019   0.02181   0.00000  Uiso   1.00
C84    C     0.75003   0.24981   0.31152   0.00000  Uiso   1.00
C85    C     0.54476   0.28693   0.13624   0.00000  Uiso   1.00
C86    C     0.95524   0.21306   0.19709   0.00000  Uiso   1.00
C87    C     0.95532   0.29495   0.17918   0.00000  Uiso   1.00
C88    C     0.83654   0.25029   0.16814   0.00000  Uiso   1.00
C89    C     0.54468   0.20505   0.15415   0.00000  Uiso   1.00
C90    C     0.59109   0.28919   0.14239   0.00000  Uiso   1.00
C91    C     0.90891   0.21080   0.19094   0.00000  Uiso   1.00
C92    C     0.90899   0.29494   0.17256   0.00000  Uiso   1.00
C93    C     0.59101   0.20506   0.16078   0.00000  Uiso   1.00
C94    C     0.61460   0.24848   0.15856   0.00000  Uiso   1.00
C95    C     0.88540   0.25152   0.17477   0.00000  Uiso   1.00
C96    C     0.52234   0.24794   0.15563   0.00000  Uiso   1.00
C97    C     0.97766   0.25206   0.17770   0.00000  Uiso   1.00
C98    C     0.61223   0.36638   0.17075   0.00000  Uiso   1.00
C99    C     0.72180   0.10241   0.13419   0.00000  Uiso   1.00
C100   C     0.88777   0.13361   0.16259   0.00000  Uiso   1.00
C101   C     0.88272   0.35173   0.11102   0.00000  Uiso   1.00
C102   C     0.61728   0.14828   0.22232   0.00000  Uiso   1.00
C103   C     0.77820   0.39759   0.19914   0.00000  Uiso   1.00
C104   C     0.77076   0.10183   0.20535   0.00000  Uiso   1.00
C105   C     0.72924   0.39817   0.12799   0.00000  Uiso   1.00
C106   C     0.71709   0.05310   0.13764   0.00000  Uiso   1.00
C107   C     0.78291   0.44690   0.19570   0.00000  Uiso   1.00
C108   C     0.76615   0.05267   0.20951   0.00000  Uiso   1.00
Cl109  Cl    0.68827   0.13320   0.08980   0.00000  Uiso   1.00
Cl110  Cl    0.83527   0.47098   0.21512   0.00000  Uiso   1.00
Cl111  Cl    0.76827   0.02833   0.27095   0.00000  Uiso   1.00
Cl112  Cl    0.73173   0.47167   0.06239   0.00000  Uiso   1.00
Cl113  Cl    0.81173   0.36680   0.24354   0.00000  Uiso   1.00
Cl114  Cl    0.80135   0.13114   0.25312   0.00000  Uiso   1.00
Cl115  Cl    0.69865   0.36886   0.08022   0.00000  Uiso   1.00
Cl116  Cl    0.51693   0.32665   0.09454   0.00000  Uiso   1.00
Cl117  Cl    0.98307   0.17335   0.23879   0.00000  Uiso   1.00
Cl118  Cl    0.98333   0.34625   0.20077   0.00000  Uiso   1.00
Cl119  Cl    0.51667   0.15375   0.13256   0.00000  Uiso   1.00
Cl120  Cl    0.66473   0.02902   0.11821   0.00000  Uiso   1.00
H121   H     0.60543   0.34573   0.09653   0.00000  Uiso   1.00
H122   H     0.91619   0.35966   0.09647   0.00000  Uiso   1.00
H123   H     0.86174   0.38353   0.10694   0.00000  Uiso   1.00
H124   H     0.86662   0.32327   0.08850   0.00000  Uiso   1.00
H125   H     0.60290   0.13454   0.14725   0.00000  Uiso   1.00
H126   H     0.58382   0.14036   0.23688   0.00000  Uiso   1.00
H127   H     0.63339   0.17675   0.24484   0.00000  Uiso   1.00
H128   H     0.63826   0.11648   0.22641   0.00000  Uiso   1.00
H129   H     0.57750   0.37841   0.17518   0.00000  Uiso   1.00
H130   H     0.63315   0.39713   0.16093   0.00000  Uiso   1.00
H131   H     0.62540   0.35145   0.20690   0.00000  Uiso   1.00
H132   H     0.89457   0.15428   0.23680   0.00000  Uiso   1.00
H133   H     0.92250   0.12158   0.15816   0.00000  Uiso   1.00
H134   H     0.87460   0.14854   0.12644   0.00000  Uiso   1.00
H135   H     0.86686   0.10286   0.17242   0.00000  Uiso   1.00
H136   H     0.89710   0.36545   0.18609   0.00000  Uiso   1.00
N137   N     0.75000   0.12623   0.16667   0.00000  Uiso   1.00
N138   N     0.75000   0.37376   0.16667   0.00000  Uiso   1.00
N139   N     0.61371   0.33184   0.13142   0.00000  Uiso   1.00
N140   N     0.88629   0.16816   0.20191   0.00000  Uiso   1.00
N141   N     0.88658   0.33820   0.16338   0.00000  Uiso   1.00
N142   N     0.61342   0.16180   0.16996   0.00000  Uiso   1.00
O143   O     0.68453   0.28974   0.16667   0.00000  Uiso   1.00
O144   O     0.81547   0.21026   0.16666   0.00000  Uiso   1.00
O145   O     0.81547   0.28974   0.16666   0.00000  Uiso   1.00
O146   O     0.68453   0.21026   0.16667   0.00000  Uiso   1.00
O147   O     0.75000   0.28973   0.09511   0.00000  Uiso   1.00
O148   O     0.75000   0.21027   0.23822   0.00000  Uiso   1.00
O149   O     0.75000   0.28973   0.23822   0.00000  Uiso   1.00
O150   O     0.75000   0.21027   0.09511   0.00000  Uiso   1.00
Zn151  Zn    0.75000   0.30307   0.16667   0.00000  Uiso   1.00
Zn152  Zn    0.75000   0.19693   0.16667   0.00000  Uiso   1.00
C153   C     0.16346   0.74971   0.16519   0.00000  Uiso   1.00
C154   C     0.23385   0.94733   0.12382   0.00000  Uiso   1.00
C155   C     0.24993   0.75013   0.07293   0.00000  Uiso   1.00
C156   C     0.25007   0.74987   0.26040   0.00000  Uiso   1.00
C157   C     0.24690   0.52673   0.16915   0.00000  Uiso   1.00
C158   C     0.25310   0.97327   0.16419   0.00000  Uiso   1.00
C159   C     0.24997   0.75019   0.02181   0.00000  Uiso   1.00
C160   C     0.25003   0.74981   0.31152   0.00000  Uiso   1.00
C161   C     0.04476   0.78693   0.13624   0.00000  Uiso   1.00
C162   C     0.45524   0.71306   0.19709   0.00000  Uiso   1.00
C163   C     0.45532   0.79495   0.17918   0.00000  Uiso   1.00
C164   C     0.33654   0.75029   0.16814   0.00000  Uiso   1.00
C165   C     0.04468   0.70505   0.15415   0.00000  Uiso   1.00
C166   C     0.09109   0.78919   0.14239   0.00000  Uiso   1.00
C167   C     0.40891   0.71080   0.19094   0.00000  Uiso   1.00
C168   C     0.40899   0.79494   0.17256   0.00000  Uiso   1.00
C169   C     0.09101   0.70506   0.16078   0.00000  Uiso   1.00
C170   C     0.11460   0.74848   0.15856   0.00000  Uiso   1.00
C171   C     0.38540   0.75152   0.17477   0.00000  Uiso   1.00
C172   C     0.02234   0.74794   0.15563   0.00000  Uiso   1.00
C173   C     0.47766   0.75206   0.17770   0.00000  Uiso   1.00
C174   C     0.11223   0.86638   0.17075   0.00000  Uiso   1.00
C175   C     0.22180   0.60241   0.13419   0.00000  Uiso   1.00
C176   C     0.38777   0.63361   0.16259   0.00000  Uiso   1.00
C177   C     0.38272   0.85173   0.11102   0.00000  Uiso   1.00
C178   C     0.11728   0.64828   0.22232   0.00000  Uiso   1.00
C179   C     0.27820   0.89759   0.19914   0.00000  Uiso   1.00
C180   C     0.27076   0.60183   0.20535   0.00000  Uiso   1.00
C181   C     0.22924   0.89817   0.12799   0.00000  Uiso   1.00
C182   C     0.21709   0.55310   0.13764   0.00000  Uiso   1.00
C183   C     0.28291   0.94690   0.19570   0.00000  Uiso   1.00
C184   C     0.26615   0.55267   0.20951   0.00000  Uiso   1.00
Cl185  Cl    0.18827   0.63320   0.08980   0.00000  Uiso   1.00
Cl186  Cl    0.33527   0.97098   0.21512   0.00000  Uiso   1.00
Cl187  Cl    0.26827   0.52833   0.27095   0.00000  Uiso   1.00
Cl188  Cl    0.23173   0.97167   0.06239   0.00000  Uiso   1.00
Cl189  Cl    0.31173   0.86680   0.24354   0.00000  Uiso   1.00
Cl190  Cl    0.30135   0.63114   0.25312   0.00000  Uiso   1.00
Cl191  Cl    0.19865   0.86886   0.08022   0.00000  Uiso   1.00
Cl192  Cl    0.01693   0.82665   0.09454   0.00000  Uiso   1.00
Cl193  Cl    0.48307   0.67335   0.23879   0.00000  Uiso   1.00
Cl194  Cl    0.48333   0.84625   0.20077   0.00000  Uiso   1.00
Cl195  Cl    0.01667   0.65375   0.13256   0.00000  Uiso   1.00
Cl196  Cl    0.16473   0.52902   0.11821   0.00000  Uiso   1.00
H197   H     0.10543   0.84573   0.09653   0.00000  Uiso   1.00
H198   H     0.41619   0.85966   0.09647   0.00000  Uiso   1.00
H199   H     0.36174   0.88353   0.10694   0.00000  Uiso   1.00
H200   H     0.36662   0.82327   0.08850   0.00000  Uiso   1.00
H201   H     0.10290   0.63454   0.14725   0.00000  Uiso   1.00
H202   H     0.08382   0.64036   0.23688   0.00000  Uiso   1.00
H203   H     0.13339   0.67675   0.24484   0.00000  Uiso   1.00
H204   H     0.13826   0.61648   0.22641   0.00000  Uiso   1.00
H205   H     0.07750   0.87841   0.17518   0.00000  Uiso   1.00
H206   H     0.13315   0.89713   0.16093   0.00000  Uiso   1.00
H207   H     0.12540   0.85145   0.20690   0.00000  Uiso   1.00
H208   H     0.39457   0.65428   0.23680   0.00000  Uiso   1.00
H209   H     0.42250   0.62158   0.15816   0.00000  Uiso   1.00
H210   H     0.37460   0.64854   0.12644   0.00000  Uiso   1.00
H211   H     0.36686   0.60286   0.17242   0.00000  Uiso   1.00
H212   H     0.39710   0.86545   0.18609   0.00000  Uiso   1.00
N213   N     0.25000   0.62623   0.16667   0.00000  Uiso   1.00
N214   N     0.25000   0.87376   0.16667   0.00000  Uiso   1.00
N215   N     0.11371   0.83184   0.13142   0.00000  Uiso   1.00
N216   N     0.38629   0.66816   0.20191   0.00000  Uiso   1.00
N217   N     0.38658   0.83820   0.16338   0.00000  Uiso   1.00
N218   N     0.11342   0.66180   0.16996   0.00000  Uiso   1.00
O219   O     0.18453   0.78974   0.16667   0.00000  Uiso   1.00
O220   O     0.31547   0.71026   0.16666   0.00000  Uiso   1.00
O221   O     0.31547   0.78974   0.16666   0.00000  Uiso   1.00
O222   O     0.18453   0.71026   0.16667   0.00000  Uiso   1.00
O223   O     0.25000   0.78973   0.09511   0.00000  Uiso   1.00
O224   O     0.25000   0.71027   0.23822   0.00000  Uiso   1.00
O225   O     0.25000   0.78973   0.23822   0.00000  Uiso   1.00
O226   O     0.25000   0.71027   0.09511   0.00000  Uiso   1.00
Zn227  Zn    0.25000   0.80307   0.16667   0.00000  Uiso   1.00
Zn228  Zn    0.25000   0.69693   0.16667   0.00000  Uiso   1.00
C229   C     0.66346   0.74971   0.16519   0.00000  Uiso   1.00
C230   C     0.73385   0.94733   0.12382   0.00000  Uiso   1.00
C231   C     0.74993   0.75013   0.07293   0.00000  Uiso   1.00
C232   C     0.75007   0.74987   0.26040   0.00000  Uiso   1.00
C233   C     0.74690   0.52673   0.16915   0.00000  Uiso   1.00
C234   C     0.75310   0.97327   0.16419   0.00000  Uiso   1.00
C235   C     0.74997   0.75019   0.02181   0.00000  Uiso   1.00
C236   C     0.75003   0.74981   0.31152   0.00000  Uiso   1.00
C237   C     0.54476   0.78693   0.13624   0.00000  Uiso   1.00
C238   C     0.95524   0.71306   0.19709   0.00000  Uiso   1.00
C239   C     0.95532   0.79495   0.17918   0.00000  Uiso   1.00
C240   C     0.83654   0.75029   0.16814   0.00000  Uiso   1.00
C241   C     0.54468   0.70505   0.15415   0.00000  Uiso   1.00
C242   C     0.59109   0.78919   0.14239   0.00000  Uiso   1.00
C243   C     0.90891   0.71080   0.19094   0.00000  Uiso   1.00
C244   C     0.90899   0.79494   0.17256   0.00000  Uiso   1.00
C245   C     0.59101   0.70506   0.16078   0.00000  Uiso   1.00
C246   C     0.61460   0.74848   0.15856   0.00000  Uiso   1.00
C247   C     0.88540   0.75152   0.17477   0.00000  Uiso   1.00
C248   C     0.52234   0.74794   0.15563   0.00000  Uiso   1.00
C249   C     0.97766   0.75206   0.17770   0.00000  Uiso   1.00
C250   C     0.61223   0.86638   0.17075   0.00000  Uiso   1.00
C251   C     0.72180   0.60241   0.13419   0.00000  Uiso   1.00
C252   C     0.88777   0.63361   0.16259   0.00000  Uiso   1.00
C253   C     0.88272   0.85173   0.11102   0.00000  Uiso   1.00
C254   C     0.61728   0.64828   0.22232   0.00000  Uiso   1.00
C255   C     0.77820   0.89759   0.19914   0.00000  Uiso   1.00
C256   C     0.77076   0.60183   0.20535   0.00000  Uiso   1.00
C257   C     0.72924   0.89817   0.12799   0.00000  Uiso   1.00
C258   C     0.71709   0.55310   0.13764   0.00000  Uiso   1.00
C259   C     0.78291   0.94690   0.19570   0.00000  Uiso   1.00
C260   C     0.76615   0.55267   0.20951   0.00000  Uiso   1.00
Cl261  Cl    0.68827   0.63320   0.08980   0.00000  Uiso   1.00
Cl262  Cl    0.83527   0.97098   0.21512   0.00000  Uiso   1.00
Cl263  Cl    0.76827   0.52833   0.27095   0.00000  Uiso   1.00
Cl264  Cl    0.73173   0.97167   0.06239   0.00000  Uiso   1.00
Cl265  Cl    0.81173   0.86680   0.24354   0.00000  Uiso   1.00
Cl266  Cl    0.80135   0.63114   0.25312   0.00000  Uiso   1.00
Cl267  Cl    0.69865   0.86886   0.08022   0.00000  Uiso   1.00
Cl268  Cl    0.51693   0.82665   0.09454   0.00000  Uiso   1.00
Cl269  Cl    0.98307   0.67335   0.23879   0.00000  Uiso   1.00
Cl270  Cl    0.98333   0.84625   0.20077   0.00000  Uiso   1.00
Cl271  Cl    0.51667   0.65375   0.13256   0.00000  Uiso   1.00
Cl272  Cl    0.66473   0.52902   0.11821   0.00000  Uiso   1.00
H273   H     0.60543   0.84573   0.09653   0.00000  Uiso   1.00
H274   H     0.91619   0.85966   0.09647   0.00000  Uiso   1.00
H275   H     0.86174   0.88353   0.10694   0.00000  Uiso   1.00
H276   H     0.86662   0.82327   0.08850   0.00000  Uiso   1.00
H277   H     0.60290   0.63454   0.14725   0.00000  Uiso   1.00
H278   H     0.58382   0.64036   0.23688   0.00000  Uiso   1.00
H279   H     0.63339   0.67675   0.24484   0.00000  Uiso   1.00
H280   H     0.63826   0.61648   0.22641   0.00000  Uiso   1.00
H281   H     0.57750   0.87841   0.17518   0.00000  Uiso   1.00
H282   H     0.63315   0.89713   0.16093   0.00000  Uiso   1.00
H283   H     0.62540   0.85145   0.20690   0.00000  Uiso   1.00
H284   H     0.89457   0.65428   0.23680   0.00000  Uiso   1.00
H285   H     0.92250   0.62158   0.15816   0.00000  Uiso   1.00
H286   H     0.87460   0.64854   0.12644   0.00000  Uiso   1.00
H287   H     0.86686   0.60286   0.17242   0.00000  Uiso   1.00
H288   H     0.89710   0.86545   0.18609   0.00000  Uiso   1.00
N289   N     0.75000   0.62623   0.16667   0.00000  Uiso   1.00
N290   N     0.75000   0.87376   0.16667   0.00000  Uiso   1.00
N291   N     0.61371   0.83184   0.13142   0.00000  Uiso   1.00
N292   N     0.88629   0.66816   0.20191   0.00000  Uiso   1.00
N293   N     0.88658   0.83820   0.16338   0.00000  Uiso   1.00
N294   N     0.61342   0.66180   0.16996   0.00000  Uiso   1.00
O295   O     0.68453   0.78974   0.16667   0.00000  Uiso   1.00
O296   O     0.81547   0.71026   0.16666   0.00000  Uiso   1.00
O297   O     0.81547   0.78974   0.16666   0.00000  Uiso   1.00
O298   O     0.68453   0.71026   0.16667   0.00000  Uiso   1.00
O299   O     0.75000   0.78973   0.09511   0.00000  Uiso   1.00
O300   O     0.75000   0.71027   0.23822   0.00000  Uiso   1.00
O301   O     0.75000   0.78973   0.23822   0.00000  Uiso   1.00
O302   O     0.75000   0.71027   0.09511   0.00000  Uiso   1.00
Zn303  Zn    0.75000   0.80307   0.16667   0.00000  Uiso   1.00
Zn304  Zn    0.75000   0.69693   0.16667   0.00000  Uiso   1.00
C305   C     0.16346   0.24971   0.49853   0.00000  Uiso   1.00
C306   C     0.23385   0.44733   0.45716   0.00000  Uiso   1.00
C307   C     0.24993   0.25013   0.40626   0.00000  Uiso   1.00
C308   C     0.25007   0.24987   0.59374   0.00000  Uiso   1.00
C309   C     0.24690   0.02673   0.50248   0.00000  Uiso   1.00
C310   C     0.25310   0.47327   0.49752   0.00000  Uiso   1.00
C311   C     0.24997   0.25019   0.35515   0.00000  Uiso   1.00
C312   C     0.25003   0.24981   0.64485   0.00000  Uiso   1.00
C313   C     0.04476   0.28693   0.46957   0.00000  Uiso   1.00
C314   C     0.45524   0.21306   0.53042   0.00000  Uiso   1.00
C315   C     0.45532   0.29495   0.51251   0.00000  Uiso   1.00
C316   C     0.33654   0.25029   0.50147   0.00000  Uiso   1.00
C317   C     0.04468   0.20505   0.48749   0.00000  Uiso   1.00
C318   C     0.09109   0.28919   0.47573   0.00000  Uiso   1.00
C319   C     0.40891   0.21080   0.52427   0.00000  Uiso   1.00
C320   C     0.40899   0.29494   0.50589   0.00000  Uiso   1.00
C321   C     0.09101   0.20506   0.49411   0.00000  Uiso   1.00
C322   C     0.11460   0.24848   0.49190   0.00000  Uiso   1.00
C323   C     0.38540   0.25152   0.50810   0.00000  Uiso   1.00
C324   C     0.02234   0.24794   0.48897   0.00000  Uiso   1.00
C325   C     0.47766   0.25206   0.51103   0.00000  Uiso   1.00
C326   C     0.11223   0.36638   0.50408   0.00000  Uiso   1.00
C327   C     0.22180   0.10241   0.46753   0.00000  Uiso   1.00
C328   C     0.38777   0.13361   0.49593   0.00000  Uiso   1.00
C329   C     0.38272   0.35173   0.44436   0.00000  Uiso   1.00
C330   C     0.11728   0.14828   0.55565   0.00000  Uiso   1.00
C331   C     0.27820   0.39759   0.53247   0.00000  Uiso   1.00
C332   C     0.27076   0.10183   0.53868   0.00000  Uiso   1.00
C333   C     0.22924   0.39817   0.46132   0.00000  Uiso   1.00
C334   C     0.21709   0.05310   0.47097   0.00000  Uiso   1.00
C335   C     0.28291   0.44690   0.52903   0.00000  Uiso   1.00
C336   C     0.26615   0.05267   0.54284   0.00000  Uiso   1.00
Cl337  Cl    0.18827   0.13320   0.42313   0.00000  Uiso   1.00
Cl338  Cl    0.33527   0.47098   0.54845   0.00000  Uiso   1.00
Cl339  Cl    0.26827   0.02833   0.60428   0.00000  Uiso   1.00
Cl340  Cl    0.23173   0.47167   0.39572   0.00000  Uiso   1.00
Cl341  Cl    0.31173   0.36680   0.57687   0.00000  Uiso   1.00
Cl342  Cl    0.30135   0.13114   0.58645   0.00000  Uiso   1.00
Cl343  Cl    0.19865   0.36886   0.41355   0.00000  Uiso   1.00
Cl344  Cl    0.01693   0.32665   0.42787   0.00000  Uiso   1.00
Cl345  Cl    0.48307   0.17335   0.57212   0.00000  Uiso   1.00
Cl346  Cl    0.48333   0.34625   0.53410   0.00000  Uiso   1.00
Cl347  Cl    0.01667   0.15375   0.46590   0.00000  Uiso   1.00
Cl348  Cl    0.16473   0.02902   0.45154   0.00000  Uiso   1.00
H349   H     0.10543   0.34573   0.42987   0.00000  Uiso   1.00
H350   H     0.41619   0.35966   0.42980   0.00000  Uiso   1.00
H351   H     0.36174   0.38353   0.44027   0.00000  Uiso   1.00
H352   H     0.36662   0.32327   0.42183   0.00000  Uiso   1.00
H353   H     0.10290   0.13454   0.48059   0.00000  Uiso   1.00
H354   H     0.08382   0.14036   0.57022   0.00000  Uiso   1.00
H355   H     0.13339   0.17675   0.57817   0.00000  Uiso   1.00
H356   H     0.13826   0.11648   0.55974   0.00000  Uiso   1.00
H357   H     0.07750   0.37841   0.50851   0.00000  Uiso   1.00
H358   H     0.13315   0.39713   0.49426   0.00000  Uiso   1.00
H359   H     0.12540   0.35145   0.54023   0.00000  Uiso   1.00
H360   H     0.39457   0.15428   0.57014   0.00000  Uiso   1.00
H361   H     0.42250   0.12158   0.49149   0.00000  Uiso   1.00
H362   H     0.37460   0.14854   0.45977   0.00000  Uiso   1.00
H363   H     0.36686   0.10286   0.50575   0.00000  Uiso   1.00
H364   H     0.39710   0.36545   0.51943   0.00000  Uiso   1.00
N365   N     0.25000   0.12623   0.50000   0.00000  Uiso   1.00
N366   N     0.25000   0.37376   0.50000   0.00000  Uiso   1.00
N367   N     0.11371   0.33184   0.46475   0.00000  Uiso   1.00
N368   N     0.38629   0.16816   0.53525   0.00000  Uiso   1.00
N369   N     0.38658   0.33820   0.49671   0.00000  Uiso   1.00
N370   N     0.11342   0.16180   0.50329   0.00000  Uiso   1.00
O371   O     0.18453   0.28974   0.50000   0.00000  Uiso   1.00
O372   O     0.31547   0.21026   0.50000   0.00000  Uiso   1.00
O373   O     0.31547   0.28974   0.50000   0.00000  Uiso   1.00
O374   O     0.18453   0.21026   0.50000   0.00000  Uiso   1.00
O375   O     0.25000   0.28973   0.42845   0.00000  Uiso   1.00
O376   O     0.25000   0.21027   0.57155   0.00000  Uiso   1.00
O377   O     0.25000   0.28973   0.57155   0.00000  Uiso   1.00
O378   O     0.25000   0.21027   0.42845   0.00000  Uiso   1.00
Zn379  Zn    0.25000   0.30307   0.50000   0.00000  Uiso   1.00
Zn380  Zn    0.25000   0.19693   0.50000   0.00000  Uiso   1.00
C381   C     0.66346   0.24971   0.49853   0.00000  Uiso   1.00
C382   C     0.73385   0.44733   0.45716   0.00000  Uiso   1.00
C383   C     0.74993   0.25013   0.40626   0.00000  Uiso   1.00
C384   C     0.75007   0.24987   0.59374   0.00000  Uiso   1.00
C385   C     0.74690   0.02673   0.50248   0.00000  Uiso   1.00
C386   C     0.75310   0.47327   0.49752   0.00000  Uiso   1.00
C387   C     0.74997   0.25019   0.35515   0.00000  Uiso   1.00
C388   C     0.75003   0.24981   0.64485   0.00000  Uiso   1.00
C389   C     0.54476   0.28693   0.46957   0.00000  Uiso   1.00
C390   C     0.95524   0.21306   0.53042   0.00000  Uiso   1.00
C391   C     0.95532   0.29495   0.51251   0.00000  Uiso   1.00
C392   C     0.83654   0.25029   0.50147   0.00000  Uiso   1.00
C393   C     0.54468   0.20505   0.48749   0.00000  Uiso   1.00
C394   C     0.59109   0.28919   0.47573   0.00000  Uiso   1.00
C395   C     0.90891   0.21080   0.52427   0.00000  Uiso   1.00
C396   C     0.90899   0.29494   0.50589   0.00000  Uiso   1.00
C397   C     0.59101   0.20506   0.49411   0.00000  Uiso   1.00
C398   C     0.61460   0.24848   0.49190   0.00000  Uiso   1.00
C399   C     0.88540   0.25152   0.50810   0.00000  Uiso   1.00
C400   C     0.52234   0.24794   0.48897   0.00000  Uiso   1.00
C401   C     0.97766   0.25206   0.51103   0.00000  Uiso   1.00
C402   C     0.61223   0.36638   0.50408   0.00000  Uiso   1.00
C403   C     0.72180   0.10241   0.46753   0.00000  Uiso   1.00
C404   C     0.88777   0.13361   0.49593   0.00000  Uiso   1.00
C405   C     0.88272   0.35173   0.44436   0.00000  Uiso   1.00
C406   C     0.61728   0.14828   0.55565   0.00000  Uiso   1.00
C407   C     0.77820   0.39759   0.53247   0.00000  Uiso   1.00
C408   C     0.77076   0.10183   0.53868   0.00000  Uiso   1.00
C409   C     0.72924   0.39817   0.46132   0.00000  Uiso   1.00
C410   C     0.71709   0.05310   0.47097   0.00000  Uiso   1.00
C411   C     0.78291   0.44690   0.52903   0.00000  Uiso   1.00
C412   C     0.76615   0.05267   0.54284   0.00000  Uiso   1.00
Cl413  Cl    0.68827   0.13320   0.42313   0.00000  Uiso   1.00
Cl414  Cl    0.83527   0.47098   0.54845   0.00000  Uiso   1.00
Cl415  Cl    0.76827   0.02833   0.60428   0.00000  Uiso   1.00
Cl416  Cl    0.73173   0.47167   0.39572   0.00000  Uiso   1.00
Cl417  Cl    0.81173   0.36680   0.57687   0.00000  Uiso   1.00
Cl418  Cl    0.80135   0.13114   0.58645   0.00000  Uiso   1.00
Cl419  Cl    0.69865   0.36886   0.41355   0.00000  Uiso   1.00
Cl420  Cl    0.51693   0.32665   0.42787   0.00000  Uiso   1.00
Cl421  Cl    0.98307   0.17335   0.57212   0.00000  Uiso   1.00
Cl422  Cl    0.98333   0.34625   0.53410   0.00000  Uiso   1.00
Cl423  Cl    0.51667   0.15375   0.46590   0.00000  Uiso   1.00
Cl424  Cl    0.66473   0.02902   0.45154   0.00000  Uiso   1.00
H425   H     0.60543   0.34573   0.42987   0.00000  Uiso   1.00
H426   H     0.91619   0.35966   0.42980   0.00000  Uiso   1.00
H427   H     0.86174   0.38353   0.44027   0.00000  Uiso   1.00
H428   H     0.86662   0.32327   0.42183   0.00000  Uiso   1.00
H429   H     0.60290   0.13454   0.48059   0.00000  Uiso   1.00
H430   H     0.58382   0.14036   0.57022   0.00000  Uiso   1.00
H431   H     0.63339   0.17675   0.57817   0.00000  Uiso   1.00
H432   H     0.63826   0.11648   0.55974   0.00000  Uiso   1.00
H433   H     0.57750   0.37841   0.50851   0.00000  Uiso   1.00
H434   H     0.63315   0.39713   0.49426   0.00000  Uiso   1.00
H435   H     0.62540   0.35145   0.54023   0.00000  Uiso   1.00
H436   H     0.89457   0.15428   0.57014   0.00000  Uiso   1.00
H437   H     0.92250   0.12158   0.49149   0.00000  Uiso   1.00
H438   H     0.87460   0.14854   0.45977   0.00000  Uiso   1.00
H439   H     0.86686   0.10286   0.50575   0.00000  Uiso   1.00
H440   H     0.89710   0.36545   0.51943   0.00000  Uiso   1.00
N441   N     0.75000   0.12623   0.50000   0.00000  Uiso   1.00
N442   N     0.75000   0.37376   0.50000   0.00000  Uiso   1.00
N443   N     0.61371   0.33184   0.46475   0.00000  Uiso   1.00
N444   N     0.88629   0.16816   0.53525   0.00000  Uiso   1.00
N445   N     0.88658   0.33820   0.49671   0.00000  Uiso   1.00
N446   N     0.61342   0.16180   0.50329   0.00000  Uiso   1.00
O447   O     0.68453   0.28974   0.50000   0.00000  Uiso   1.00
O448   O     0.81547   0.21026   0.50000   0.00000  Uiso   1.00
O449   O     0.81547   0.28974   0.50000   0.00000  Uiso   1.00
O450   O     0.68453   0.21026   0.50000   0.00000  Uiso   1.00
O451   O     0.75000   0.28973   0.42845   0.00000  Uiso   1.00
O452   O     0.75000   0.21027   0.57155   0.00000  Uiso   1.00
O453   O     0.75000   0.28973   0.57155   0.00000  Uiso   1.00
O454   O     0.75000   0.21027   0.42845   0.00000  Uiso   1.00
Zn455  Zn    0.75000   0.30307   0.50000   0.00000  Uiso   1.00
Zn456  Zn    0.75000   0.19693   0.50000   0.00000  Uiso   1.00
C457   C     0.16346   0.74971   0.49853   0.00000  Uiso   1.00
C458   C     0.23385   0.94733   0.45716   0.00000  Uiso   1.00
C459   C     0.24993   0.75013   0.40626   0.00000  Uiso   1.00
C460   C     0.25007   0.74987   0.59374   0.00000  Uiso   1.00
C461   C     0.24690   0.52673   0.50248   0.00000  Uiso   1.00
C462   C     0.25310   0.97327   0.49752   0.00000  Uiso   1.00
C463   C     0.24997   0.75019   0.35515   0.00000  Uiso   1.00
C464   C     0.25003   0.74981   0.64485   0.00000  Uiso   1.00
C465   C     0.04476   0.78693   0.46957   0.00000  Uiso   1.00
C466   C     0.45524   0.71306   0.53042   0.00000  Uiso   1.00
C467   C     0.45532   0.79495   0.51251   0.00000  Uiso   1.00
C468   C     0.33654   0.75029   0.50147   0.00000  Uiso   1.00
C469   C     0.04468   0.70505   0.48749   0.00000  Uiso   1.00
C470   C     0.09109   0.78919   0.47573   0.00000  Uiso   1.00
C471   C     0.40891   0.71080   0.52427   0.00000  Uiso   1.00
C472   C     0.40899   0.79494   0.50589   0.00000  Uiso   1.00
C473   C     0.09101   0.70506   0.49411   0.00000  Uiso   1.00
C474   C     0.11460   0.74848   0.49190   0.00000  Uiso   1.00
C475   C     0.38540   0.75152   0.50810   0.00000  Uiso   1.00
C476   C     0.02234   0.74794   0.48897   0.00000  Uiso   1.00
C477   C     0.47766   0.75206   0.51103   0.00000  Uiso   1.00
C478   C     0.11223   0.86638   0.50408   0.00000  Uiso   1.00
C479   C     0.22180   0.60241   0.46753   0.00000  Uiso   1.00
C480   C     0.38777   0.63361   0.49593   0.00000  Uiso   1.00
C481   C     0.38272   0.85173   0.44436   0.00000  Uiso   1.00
C482   C     0.11728   0.64828   0.55565   0.00000  Uiso   1.00
C483   C     0.27820   0.89759   0.53247   0.00000  Uiso   1.00
C484   C     0.27076   0.60183   0.53868   0.00000  Uiso   1.00
C485   C     0.22924   0.89817   0.46132   0.00000  Uiso   1.00
C486   C     0.21709   0.55310   0.47097   0.00000  Uiso   1.00
C487   C     0.28291   0.94690   0.52903   0.00000  Uiso   1.00
C488   C     0.26615   0.55267   0.54284   0.00000  Uiso   1.00
Cl489  Cl    0.18827   0.63320   0.42313   0.00000  Uiso   1.00
Cl490  Cl    0.33527   0.97098   0.54845   0.00000  Uiso   1.00
Cl491  Cl    0.26827   0.52833   0.60428   0.00000  Uiso   1.00
Cl492  Cl    0.23173   0.97167   0.39572   0.00000  Uiso   1.00
Cl493  Cl    0.31173   0.86680   0.57687   0.00000  Uiso   1.00
Cl494  Cl    0.30135   0.63114   0.58645   0.00000  Uiso   1.00
Cl495  Cl    0.19865   0.86886   0.41355   0.00000  Uiso   1.00
Cl496  Cl    0.01693   0.82665   0.42787   0.00000  Uiso   1.00
Cl497  Cl    0.48307   0.67335   0.57212   0.00000  Uiso   1.00
Cl498  Cl    0.48333   0.84625   0.53410   0.00000  Uiso   1.00
Cl499  Cl    0.01667   0.65375   0.46590   0.00000  Uiso   1.00
Cl500  Cl    0.16473   0.52902   0.45154   0.00000  Uiso   1.00
H501   H     0.10543   0.84573   0.42987   0.00000  Uiso   1.00
H502   H     0.41619   0.85966   0.42980   0.00000  Uiso   1.00
H503   H     0.36174   0.88353   0.44027   0.00000  Uiso   1.00
H504   H     0.36662   0.82327   0.42183   0.00000  Uiso   1.00
H505   H     0.10290   0.63454   0.48059   0.00000  Uiso   1.00
H506   H     0.08382   0.64036   0.57022   0.00000  Uiso   1.00
H507   H     0.13339   0.67675   0.57817   0.00000  Uiso   1.00
H508   H     0.13826   0.61648   0.55974   0.00000  Uiso   1.00
H509   H     0.07750   0.87841   0.50851   0.00000  Uiso   1.00
H510   H     0.13315   0.89713   0.49426   0.00000  Uiso   1.00
H511   H     0.12540   0.85145   0.54023   0.00000  Uiso   1.00
H512   H     0.39457   0.65428   0.57014   0.00000  Uiso   1.00
H513   H     0.42250   0.62158   0.49149   0.00000  Uiso   1.00
H514   H     0.37460   0.64854   0.45977   0.00000  Uiso   1.00
H515   H     0.36686   0.60286   0.50575   0.00000  Uiso   1.00
H516   H     0.39710   0.86545   0.51943   0.00000  Uiso   1.00
N517   N     0.25000   0.62623   0.50000   0.00000  Uiso   1.00
N518   N     0.25000   0.87376   0.50000   0.00000  Uiso   1.00
N519   N     0.11371   0.83184   0.46475   0.00000  Uiso   1.00
N520   N     0.38629   0.66816   0.53525   0.00000  Uiso   1.00
N521   N     0.38658   0.83820   0.49671   0.00000  Uiso   1.00
N522   N     0.11342   0.66180   0.50329   0.00000  Uiso   1.00
O523   O     0.18453   0.78974   0.50000   0.00000  Uiso   1.00
O524   O     0.31547   0.71026   0.50000   0.00000  Uiso   1.00
O525   O     0.31547   0.78974   0.50000   0.00000  Uiso   1.00
O526   O     0.18453   0.71026   0.50000   0.00000  Uiso   1.00
O527   O     0.25000   0.78973   0.42845   0.00000  Uiso   1.00
O528   O     0.25000   0.71027   0.57155   0.00000  Uiso   1.00
O529   O     0.25000   0.78973   0.57155   0.00000  Uiso   1.00
O530   O     0.25000   0.71027   0.42845   0.00000  Uiso   1.00
Zn531  Zn    0.25000   0.80307   0.50000   0.00000  Uiso   1.00
Zn532  Zn    0.25000   0.69693   0.50000   0.00000  Uiso   1.00
C533   C     0.66346   0.74971   0.49853   0.00000  Uiso   1.00
C534   C     0.73385   0.94733   0.45716   0.00000  Uiso   1.00
C535   C     0.74993   0.75013   0.40626   0.00000  Uiso   1.00
C536   C     0.75007   0.74987   0.59374   0.00000  Uiso   1.00
C537   C     0.74690   0.52673   0.50248   0.00000  Uiso   1.00
C538   C     0.75310   0.97327   0.49752   0.00000  Uiso   1.00
C539   C     0.74997   0.75019   0.35515   0.00000  Uiso   1.00
C540   C     0.75003   0.74981   0.64485   0.00000  Uiso   1.00
C541   C     0.54476   0.78693   0.46957   0.00000  Uiso   1.00
C542   C     0.95524   0.71306   0.53042   0.00000  Uiso   1.00
C543   C     0.95532   0.79495   0.51251   0.00000  Uiso   1.00
C544   C     0.83654   0.75029   0.50147   0.00000  Uiso   1.00
C545   C     0.54468   0.70505   0.48749   0.00000  Uiso   1.00
C546   C     0.59109   0.78919   0.47573   0.00000  Uiso   1.00
C547   C     0.90891   0.71080   0.52427   0.00000  Uiso   1.00
C548   C     0.90899   0.79494   0.50589   0.00000  Uiso   1.00
C549   C     0.59101   0.70506   0.49411   0.00000  Uiso   1.00
C550   C     0.61460   0.74848   0.49190   0.00000  Uiso   1.00
C551   C     0.88540   0.75152   0.50810   0.00000  Uiso   1.00
C552   C     0.52234   0.74794   0.48897   0.00000  Uiso   1.00
C553   C     0.97766   0.75206   0.51103   0.00000  Uiso   1.00
C554   C     0.61223   0.86638   0.50408   0.00000  Uiso   1.00
C555   C     0.72180   0.60241   0.46753   0.00000  Uiso   1.00
C556   C     0.88777   0.63361   0.49593   0.00000  Uiso   1.00
C557   C     0.88272   0.85173   0.44436   0.00000  Uiso   1.00
C558   C     0.61728   0.64828   0.55565   0.00000  Uiso   1.00
C559   C     0.77820   0.89759   0.53247   0.00000  Uiso   1.00
C560   C     0.77076   0.60183   0.53868   0.00000  Uiso   1.00
C561   C     0.72924   0.89817   0.46132   0.00000  Uiso   1.00
C562   C     0.71709   0.55310   0.47097   0.00000  Uiso   1.00
C563   C     0.78291   0.94690   0.52903   0.00000  Uiso   1.00
C564   C     0.76615   0.55267   0.54284   0.00000  Uiso   1.00
Cl565  Cl    0.68827   0.63320   0.42313   0.00000  Uiso   1.00
Cl566  Cl    0.83527   0.97098   0.54845   0.00000  Uiso   1.00
Cl567  Cl    0.76827   0.52833   0.60428   0.00000  Uiso   1.00
Cl568  Cl    0.73173   0.97167   0.39572   0.00000  Uiso   1.00
Cl569  Cl    0.81173   0.86680   0.57687   0.00000  Uiso   1.00
Cl570  Cl    0.80135   0.63114   0.58645   0.00000  Uiso   1.00
Cl571  Cl    0.69865   0.86886   0.41355   0.00000  Uiso   1.00
Cl572  Cl    0.51693   0.82665   0.42787   0.00000  Uiso   1.00
Cl573  Cl    0.98307   0.67335   0.57212   0.00000  Uiso   1.00
Cl574  Cl    0.98333   0.84625   0.53410   0.00000  Uiso   1.00
Cl575  Cl    0.51667   0.65375   0.46590   0.00000  Uiso   1.00
Cl576  Cl    0.66473   0.52902   0.45154   0.00000  Uiso   1.00
H577   H     0.60543   0.84573   0.42987   0.00000  Uiso   1.00
H578   H     0.91619   0.85966   0.42980   0.00000  Uiso   1.00
H579   H     0.86174   0.88353   0.44027   0.00000  Uiso   1.00
H580   H     0.86662   0.82327   0.42183   0.00000  Uiso   1.00
H581   H     0.60290   0.63454   0.48059   0.00000  Uiso   1.00
H582   H     0.58382   0.64036   0.57022   0.00000  Uiso   1.00
H583   H     0.63339   0.67675   0.57817   0.00000  Uiso   1.00
H584   H     0.63826   0.61648   0.55974   0.00000  Uiso   1.00
H585   H     0.57750   0.87841   0.50851   0.00000  Uiso   1.00
H586   H     0.63315   0.89713   0.49426   0.00000  Uiso   1.00
H587   H     0.62540   0.85145   0.54023   0.00000  Uiso   1.00
H588   H     0.89457   0.65428   0.57014   0.00000  Uiso   1.00
H589   H     0.92250   0.62158   0.49149   0.00000  Uiso   1.00
H590   H     0.87460   0.64854   0.45977   0.00000  Uiso   1.00
H591   H     0.86686   0.60286   0.50575   0.00000  Uiso   1.00
H592   H     0.89710   0.86545   0.51943   0.00000  Uiso   1.00
N593   N     0.75000   0.62623   0.50000   0.00000  Uiso   1.00
N594   N     0.75000   0.87376   0.50000   0.00000  Uiso   1.00
N595   N     0.61371   0.83184   0.46475   0.00000  Uiso   1.00
N596   N     0.88629   0.66816   0.53525   0.00000  Uiso   1.00
N597   N     0.88658   0.83820   0.49671   0.00000  Uiso   1.00
N598   N     0.61342   0.66180   0.50329   0.00000  Uiso   1.00
O599   O     0.68453   0.78974   0.50000   0.00000  Uiso   1.00
O600   O     0.81547   0.71026   0.50000   0.00000  Uiso   1.00
O601   O     0.81547   0.78974   0.50000   0.00000  Uiso   1.00
O602   O     0.68453   0.71026   0.50000   0.00000  Uiso   1.00
O603   O     0.75000   0.78973   0.42845   0.00000  Uiso   1.00
O604   O     0.75000   0.71027   0.57155   0.00000  Uiso   1.00
O605   O     0.75000   0.78973   0.57155   0.00000  Uiso   1.00
O606   O     0.75000   0.71027   0.42845   0.00000  Uiso   1.00
Zn607  Zn    0.75000   0.80307   0.50000   0.00000  Uiso   1.00
Zn608  Zn    0.75000   0.69693   0.50000   0.00000  Uiso   1.00
C609   C     0.16346   0.24971   0.83186   0.00000  Uiso   1.00
C610   C     0.23385   0.44733   0.79049   0.00000  Uiso   1.00
C611   C     0.24993   0.25013   0.73959   0.00000  Uiso   1.00
C612   C     0.25007   0.24987   0.92707   0.00000  Uiso   1.00
C613   C     0.24690   0.02673   0.83581   0.00000  Uiso   1.00
C614   C     0.25310   0.47327   0.83085   0.00000  Uiso   1.00
C615   C     0.24997   0.25019   0.68848   0.00000  Uiso   1.00
C616   C     0.25003   0.24981   0.97819   0.00000  Uiso   1.00
C617   C     0.04476   0.28693   0.80290   0.00000  Uiso   1.00
C618   C     0.45524   0.21306   0.86376   0.00000  Uiso   1.00
C619   C     0.45532   0.29495   0.84584   0.00000  Uiso   1.00
C620   C     0.33654   0.25029   0.83481   0.00000  Uiso   1.00
C621   C     0.04468   0.20505   0.82082   0.00000  Uiso   1.00
C622   C     0.09109   0.28919   0.80906   0.00000  Uiso   1.00
C623   C     0.40891   0.21080   0.85761   0.00000  Uiso   1.00
C624   C     0.40899   0.29494   0.83922   0.00000  Uiso   1.00
C625   C     0.09101   0.20506   0.82744   0.00000  Uiso   1.00
C626   C     0.11460   0.24848   0.82523   0.00000  Uiso   1.00
C627   C     0.38540   0.25152   0.84144   0.00000  Uiso   1.00
C628   C     0.02234   0.24794   0.82230   0.00000  Uiso   1.00
C629   C     0.47766   0.25206   0.84436   0.00000  Uiso   1.00
C630   C     0.11223   0.36638   0.83741   0.00000  Uiso   1.00
C631   C     0.22180   0.10241   0.80086   0.00000  Uiso   1.00
C632   C     0.38777   0.13361   0.82926   0.00000  Uiso   1.00
C633   C     0.38272   0.35173   0.77769   0.00000  Uiso   1.00
C634   C     0.11728   0.14828   0.88899   0.00000  Uiso   1.00
C635   C     0.27820   0.39759   0.86580   0.00000  Uiso   1.00
C636   C     0.27076   0.10183   0.87201   0.00000  Uiso   1.00
C637   C     0.22924   0.39817   0.79465   0.00000  Uiso   1.00
C638   C     0.21709   0.05310   0.80430   0.00000  Uiso   1.00
C639   C     0.28291   0.44690   0.86236   0.00000  Uiso   1.00
C640   C     0.26615   0.05267   0.87618   0.00000  Uiso   1.00
Cl641  Cl    0.18827   0.13320   0.75646   0.00000  Uiso   1.00
Cl642  Cl    0.33527   0.47098   0.88179   0.00000  Uiso   1.00
Cl643  Cl    0.26827   0.02833   0.93761   0.00000  Uiso   1.00
Cl644  Cl    0.23173   0.47167   0.72905   0.00000  Uiso   1.00
Cl645  Cl    0.31173   0.36680   0.91020   0.00000  Uiso   1.00
Cl646  Cl    0.30135   0.13114   0.91978   0.00000  Uiso   1.00
Cl647  Cl    0.19865   0.36886   0.74688   0.00000  Uiso   1.00
Cl648  Cl    0.01693   0.32665   0.76121   0.00000  Uiso   1.00
Cl649  Cl    0.48307   0.17335   0.90546   0.00000  Uiso   1.00
Cl650  Cl    0.48333   0.34625   0.86743   0.00000  Uiso   1.00
Cl651  Cl    0.01667   0.15375   0.79923   0.00000  Uiso   1.00
Cl652  Cl    0.16473   0.02902   0.78488   0.00000  Uiso   1.00
H653   H     0.10543   0.34573   0.76320   0.00000  Uiso   1.00
H654   H     0.41619   0.35966   0.76313   0.00000  Uiso   1.00
H655   H     0.36174   0.38353   0.77361   0.00000  Uiso   1.00
H656   H     0.36662   0.32327   0.75516   0.00000  Uiso   1.00
H657   H     0.10290   0.13454   0.81392   0.00000  Uiso   1.00
H658   H     0.08382   0.14036   0.90355   0.00000  Uiso   1.00
H659   H     0.13339   0.17675   0.91151   0.00000  Uiso   1.00
H660   H     0.13826   0.11648   0.89308   0.00000  Uiso   1.00
H661   H     0.07750   0.37841   0.84185   0.00000  Uiso   1.00
H662   H     0.13315   0.39713   0.82759   0.00000  Uiso   1.00
H663   H     0.12540   0.35145   0.87357   0.00000  Uiso   1.00
H664   H     0.39457   0.15428   0.90347   0.00000  Uiso   1.00
H665   H     0.42250   0.12158   0.82483   0.00000  Uiso   1.00
H666   H     0.37460   0.14854   0.79310   0.00000  Uiso   1.00
H667   H     0.36686   0.10286   0.83908   0.00000  Uiso   1.00
H668   H     0.39710   0.36545   0.85276   0.00000  Uiso   1.00
N669   N     0.25000   0.12623   0.83333   0.00000  Uiso   1.00
N670   N     0.25000   0.37376   0.83333   0.00000  Uiso   1.00
N671   N     0.11371   0.33184   0.79809   0.00000  Uiso   1.00
N672   N     0.38629   0.16816   0.86858   0.00000  Uiso   1.00
N673   N     0.38658   0.33820   0.83005   0.00000  Uiso   1.00
N674   N     0.11342   0.16180   0.83663   0.00000  Uiso   1.00
O675   O     0.18453   0.28974   0.83334   0.00000  Uiso   1.00
O676   O     0.31547   0.21026   0.83333   0.00000  Uiso   1.00
O677   O     0.31547   0.28974   0.83333   0.00000  Uiso   1.00
O678   O     0.18453   0.21026   0.83334   0.00000  Uiso   1.00
O679   O     0.25000   0.28973   0.76178   0.00000  Uiso   1.00
O680   O     0.25000   0.21027   0.90489   0.00000  Uiso   1.00
O681   O     0.25000   0.28973   0.90489   0.00000  Uiso   1.00
O682   O     0.25000   0.21027   0.76178   0.00000  Uiso   1.00
Zn683  Zn    0.25000   0.30307   0.83333   0.00000  Uiso   1.00
Zn684  Zn    0.25000   0.19693   0.83333   0.00000  Uiso   1.00
C685   C     0.66346   0.24971   0.83186   0.00000  Uiso   1.00
C686   C     0.73385   0.44733   0.79049   0.00000  Uiso   1.00
C687   C     0.74993   0.25013   0.73959   0.00000  Uiso   1.00
C688   C     0.75007   0.24987   0.92707   0.00000  Uiso   1.00
C689   C     0.74690   0.02673   0.83581   0.00000  Uiso   1.00
C690   C     0.75310   0.47327   0.83085   0.00000  Uiso   1.00
C691   C     0.74997   0.25019   0.68848   0.00000  Uiso   1.00
C692   C     0.75003   0.24981   0.97819   0.00000  Uiso   1.00
C693   C     0.54476   0.28693   0.80290   0.00000  Uiso   1.00
C694   C     0.95524   0.21306   0.86376   0.00000  Uiso   1.00
C695   C     0.95532   0.29495   0.84584   0.00000  Uiso   1.00
C696   C     0.83654   0.25029   0.83481   0.00000  Uiso   1.00
C697   C     0.54468   0.20505   0.82082   0.00000  Uiso   1.00
C698   C     0.59109   0.28919   0.80906   0.00000  Uiso   1.00
C699   C     0.90891   0.21080   0.85761   0.00000  Uiso   1.00
C700   C     0.90899   0.29494   0.83922   0.00000  Uiso   1.00
C701   C     0.59101   0.20506   0.82744   0.00000  Uiso   1.00
C702   C     0.61460   0.24848   0.82523   0.00000  Uiso   1.00
C703   C     0.88540   0.25152   0.84144   0.00000  Uiso   1.00
C704   C     0.52234   0.24794   0.82230   0.00000  Uiso   1.00
C705   C     0.97766   0.25206   0.84436   0.00000  Uiso   1.00
C706   C     0.61223   0.36638   0.83741   0.00000  Uiso   1.00
C707   C     0.72180   0.10241   0.80086   0.00000  Uiso   1.00
C708   C     0.88777   0.13361   0.82926   0.00000  Uiso   1.00
C709   C     0.88272   0.35173   0.77769   0.00000  Uiso   1.00
C710   C     0.61728   0.14828   0.88899   0.00000  Uiso   1.00
C711   C     0.77820   0.39759   0.86580   0.00000  Uiso   1.00
C712   C     0.77076   0.10183   0.87201   0.00000  Uiso   1.00
C713   C     0.72924   0.39817   0.79465   0.00000  Uiso   1.00
C714   C     0.71709   0.05310   0.80430   0.00000  Uiso   1.00
C715   C     0.78291   0.44690   0.86236   0.00000  Uiso   1.00
C716   C     0.76615   0.05267   0.87618   0.00000  Uiso   1.00
Cl717  Cl    0.68827   0.13320   0.75646   0.00000  Uiso   1.00
Cl718  Cl    0.83527   0.47098   0.88179   0.00000  Uiso   1.00
Cl719  Cl    0.76827   0.02833   0.93761   0.00000  Uiso   1.00
Cl720  Cl    0.73173   0.47167   0.72905   0.00000  Uiso   1.00
Cl721  Cl    0.81173   0.36680   0.91020   0.00000  Uiso   1.00
Cl722  Cl    0.80135   0.13114   0.91978   0.00000  Uiso   1.00
Cl723  Cl    0.69865   0.36886   0.74688   0.00000  Uiso   1.00
Cl724  Cl    0.51693   0.32665   0.76121   0.00000  Uiso   1.00
Cl725  Cl    0.98307   0.17335   0.90546   0.00000  Uiso   1.00
Cl726  Cl    0.98333   0.34625   0.86743   0.00000  Uiso   1.00
Cl727  Cl    0.51667   0.15375   0.79923   0.00000  Uiso   1.00
Cl728  Cl    0.66473   0.02902   0.78488   0.00000  Uiso   1.00
H729   H     0.60543   0.34573   0.76320   0.00000  Uiso   1.00
H730   H     0.91619   0.35966   0.76313   0.00000  Uiso   1.00
H731   H     0.86174   0.38353   0.77361   0.00000  Uiso   1.00
H732   H     0.86662   0.32327   0.75516   0.00000  Uiso   1.00
H733   H     0.60290   0.13454   0.81392   0.00000  Uiso   1.00
H734   H     0.58382   0.14036   0.90355   0.00000  Uiso   1.00
H735   H     0.63339   0.17675   0.91151   0.00000  Uiso   1.00
H736   H     0.63826   0.11648   0.89308   0.00000  Uiso   1.00
H737   H     0.57750   0.37841   0.84185   0.00000  Uiso   1.00
H738   H     0.63315   0.39713   0.82759   0.00000  Uiso   1.00
H739   H     0.62540   0.35145   0.87357   0.00000  Uiso   1.00
H740   H     0.89457   0.15428   0.90347   0.00000  Uiso   1.00
H741   H     0.92250   0.12158   0.82483   0.00000  Uiso   1.00
H742   H     0.87460   0.14854   0.79310   0.00000  Uiso   1.00
H743   H     0.86686   0.10286   0.83908   0.00000  Uiso   1.00
H744   H     0.89710   0.36545   0.85276   0.00000  Uiso   1.00
N745   N     0.75000   0.12623   0.83333   0.00000  Uiso   1.00
N746   N     0.75000   0.37376   0.83333   0.00000  Uiso   1.00
N747   N     0.61371   0.33184   0.79809   0.00000  Uiso   1.00
N748   N     0.88629   0.16816   0.86858   0.00000  Uiso   1.00
N749   N     0.88658   0.33820   0.83005   0.00000  Uiso   1.00
N750   N     0.61342   0.16180   0.83663   0.00000  Uiso   1.00
O751   O     0.68453   0.28974   0.83334   0.00000  Uiso   1.00
O752   O     0.81547   0.21026   0.83333   0.00000  Uiso   1.00
O753   O     0.81547   0.28974   0.83333   0.00000  Uiso   1.00
O754   O     0.68453   0.21026   0.83334   0.00000  Uiso   1.00
O755   O     0.75000   0.28973   0.76178   0.00000  Uiso   1.00
O756   O     0.75000   0.21027   0.90489   0.00000  Uiso   1.00
O757   O     0.75000   0.28973   0.90489   0.00000  Uiso   1.00
O758   O     0.75000   0.21027   0.76178   0.00000  Uiso   1.00
Zn759  Zn    0.75000   0.30307   0.83333   0.00000  Uiso   1.00
Zn760  Zn    0.75000   0.19693   0.83333   0.00000  Uiso   1.00
C761   C     0.16346   0.74971   0.83186   0.00000  Uiso   1.00
C762   C     0.23385   0.94733   0.79049   0.00000  Uiso   1.00
C763   C     0.24993   0.75013   0.73959   0.00000  Uiso   1.00
C764   C     0.25007   0.74987   0.92707   0.00000  Uiso   1.00
C765   C     0.24690   0.52673   0.83581   0.00000  Uiso   1.00
C766   C     0.25310   0.97327   0.83085   0.00000  Uiso   1.00
C767   C     0.24997   0.75019   0.68848   0.00000  Uiso   1.00
C768   C     0.25003   0.74981   0.97819   0.00000  Uiso   1.00
C769   C     0.04476   0.78693   0.80290   0.00000  Uiso   1.00
C770   C     0.45524   0.71306   0.86376   0.00000  Uiso   1.00
C771   C     0.45532   0.79495   0.84584   0.00000  Uiso   1.00
C772   C     0.33654   0.75029   0.83481   0.00000  Uiso   1.00
C773   C     0.04468   0.70505   0.82082   0.00000  Uiso   1.00
C774   C     0.09109   0.78919   0.80906   0.00000  Uiso   1.00
C775   C     0.40891   0.71080   0.85761   0.00000  Uiso   1.00
C776   C     0.40899   0.79494   0.83922   0.00000  Uiso   1.00
C777   C     0.09101   0.70506   0.82744   0.00000  Uiso   1.00
C778   C     0.11460   0.74848   0.82523   0.00000  Uiso   1.00
C779   C     0.38540   0.75152   0.84144   0.00000  Uiso   1.00
C780   C     0.02234   0.74794   0.82230   0.00000  Uiso   1.00
C781   C     0.47766   0.75206   0.84436   0.00000  Uiso   1.00
C782   C     0.11223   0.86638   0.83741   0.00000  Uiso   1.00
C783   C     0.22180   0.60241   0.80086   0.00000  Uiso   1.00
C784   C     0.38777   0.63361   0.82926   0.00000  Uiso   1.00
C785   C     0.38272   0.85173   0.77769   0.00000  Uiso   1.00
C786   C     0.11728   0.64828   0.88899   0.00000  Uiso   1.00
C787   C     0.27820   0.89759   0.86580   0.00000  Uiso   1.00
C788   C     0.27076   0.60183   0.87201   0.00000  Uiso   1.00
C789   C     0.22924   0.89817   0.79465   0.00000  Uiso   1.00
C790   C     0.21709   0.55310   0.80430   0.00000  Uiso   1.00
C791   C     0.28291   0.94690   0.86236   0.00000  Uiso   1.00
C792   C     0.26615   0.55267   0.87618   0.00000  Uiso   1.00
Cl793  Cl    0.18827   0.63320   0.75646   0.00000  Uiso   1.00
Cl794  Cl    0.33527   0.97098   0.88179   0.00000  Uiso   1.00
Cl795  Cl    0.26827   0.52833   0.93761   0.00000  Uiso   1.00
Cl796  Cl    0.23173   0.97167   0.72905   0.00000  Uiso   1.00
Cl797  Cl    0.31173   0.86680   0.91020   0.00000  Uiso   1.00
Cl798  Cl    0.30135   0.63114   0.91978   0.00000  Uiso   1.00
Cl799  Cl    0.19865   0.86886   0.74688   0.00000  Uiso   1.00
Cl800  Cl    0.01693   0.82665   0.76121   0.00000  Uiso   1.00
Cl801  Cl    0.48307   0.67335   0.90546   0.00000  Uiso   1.00
Cl802  Cl    0.48333   0.84625   0.86743   0.00000  Uiso   1.00
Cl803  Cl    0.01667   0.65375   0.79923   0.00000  Uiso   1.00
Cl804  Cl    0.16473   0.52902   0.78488   0.00000  Uiso   1.00
H805   H     0.10543   0.84573   0.76320   0.00000  Uiso   1.00
H806   H     0.41619   0.85966   0.76313   0.00000  Uiso   1.00
H807   H     0.36174   0.88353   0.77361   0.00000  Uiso   1.00
H808   H     0.36662   0.82327   0.75516   0.00000  Uiso   1.00
H809   H     0.10290   0.63454   0.81392   0.00000  Uiso   1.00
H810   H     0.08382   0.64036   0.90355   0.00000  Uiso   1.00
H811   H     0.13339   0.67675   0.91151   0.00000  Uiso   1.00
H812   H     0.13826   0.61648   0.89308   0.00000  Uiso   1.00
H813   H     0.07750   0.87841   0.84185   0.00000  Uiso   1.00
H814   H     0.13315   0.89713   0.82759   0.00000  Uiso   1.00
H815   H     0.12540   0.85145   0.87357   0.00000  Uiso   1.00
H816   H     0.39457   0.65428   0.90347   0.00000  Uiso   1.00
H817   H     0.42250   0.62158   0.82483   0.00000  Uiso   1.00
H818   H     0.37460   0.64854   0.79310   0.00000  Uiso   1.00
H819   H     0.36686   0.60286   0.83908   0.00000  Uiso   1.00
H820   H     0.39710   0.86545   0.85276   0.00000  Uiso   1.00
N821   N     0.25000   0.62623   0.83333   0.00000  Uiso   1.00
N822   N     0.25000   0.87376   0.83333   0.00000  Uiso   1.00
N823   N     0.11371   0.83184   0.79809   0.00000  Uiso   1.00
N824   N     0.38629   0.66816   0.86858   0.00000  Uiso   1.00
N825   N     0.38658   0.83820   0.83005   0.00000  Uiso   1.00
N826   N     0.11342   0.66180   0.83663   0.00000  Uiso   1.00
O827   O     0.18453   0.78974   0.83334   0.00000  Uiso   1.00
O828   O     0.31547   0.71026   0.83333   0.00000  Uiso   1.00
O829   O     0.31547   0.78974   0.83333   0.00000  Uiso   1.00
O830   O     0.18453   0.71026   0.83334   0.00000  Uiso   1.00
O831   O     0.25000   0.78973   0.76178   0.00000  Uiso   1.00
O832   O     0.25000   0.71027   0.90489   0.00000  Uiso   1.00
O833   O     0.25000   0.78973   0.90489   0.00000  Uiso   1.00
O834   O     0.25000   0.71027   0.76178   0.00000  Uiso   1.00
Zn835  Zn    0.25000   0.80307   0.83333   0.00000  Uiso   1.00
Zn836  Zn    0.25000   0.69693   0.83333   0.00000  Uiso   1.00
C837   C     0.66346   0.74971   0.83186   0.00000  Uiso   1.00
C838   C     0.73385   0.94733   0.79049   0.00000  Uiso   1.00
C839   C     0.74993   0.75013   0.73959   0.00000  Uiso   1.00
C840   C     0.75007   0.74987   0.92707   0.00000  Uiso   1.00
C841   C     0.74690   0.52673   0.83581   0.00000  Uiso   1.00
C842   C     0.75310   0.97327   0.83085   0.00000  Uiso   1.00
C843   C     0.74997   0.75019   0.68848   0.00000  Uiso   1.00
C844   C     0.75003   0.74981   0.97819   0.00000  Uiso   1.00
C845   C     0.54476   0.78693   0.80290   0.00000  Uiso   1.00
C846   C     0.95524   0.71306   0.86376   0.00000  Uiso   1.00
C847   C     0.95532   0.79495   0.84584   0.00000  Uiso   1.00
C848   C     0.83654   0.75029   0.83481   0.00000  Uiso   1.00
C849   C     0.54468   0.70505   0.82082   0.00000  Uiso   1.00
C850   C     0.59109   0.78919   0.80906   0.00000  Uiso   1.00
C851   C     0.90891   0.71080   0.85761   0.00000  Uiso   1.00
C852   C     0.90899   0.79494   0.83922   0.00000  Uiso   1.00
C853   C     0.59101   0.70506   0.82744   0.00000  Uiso   1.00
C854   C     0.61460   0.74848   0.82523   0.00000  Uiso   1.00
C855   C     0.88540   0.75152   0.84144   0.00000  Uiso   1.00
C856   C     0.52234   0.74794   0.82230   0.00000  Uiso   1.00
C857   C     0.97766   0.75206   0.84436   0.00000  Uiso   1.00
C858   C     0.61223   0.86638   0.83741   0.00000  Uiso   1.00
C859   C     0.72180   0.60241   0.80086   0.00000  Uiso   1.00
C860   C     0.88777   0.63361   0.82926   0.00000  Uiso   1.00
C861   C     0.88272   0.85173   0.77769   0.00000  Uiso   1.00
C862   C     0.61728   0.64828   0.88899   0.00000  Uiso   1.00
C863   C     0.77820   0.89759   0.86580   0.00000  Uiso   1.00
C864   C     0.77076   0.60183   0.87201   0.00000  Uiso   1.00
C865   C     0.72924   0.89817   0.79465   0.00000  Uiso   1.00
C866   C     0.71709   0.55310   0.80430   0.00000  Uiso   1.00
C867   C     0.78291   0.94690   0.86236   0.00000  Uiso   1.00
C868   C     0.76615   0.55267   0.87618   0.00000  Uiso   1.00
Cl869  Cl    0.68827   0.63320   0.75646   0.00000  Uiso   1.00
Cl870  Cl    0.83527   0.97098   0.88179   0.00000  Uiso   1.00
Cl871  Cl    0.76827   0.52833   0.93761   0.00000  Uiso   1.00
Cl872  Cl    0.73173   0.97167   0.72905   0.00000  Uiso   1.00
Cl873  Cl    0.81173   0.86680   0.91020   0.00000  Uiso   1.00
Cl874  Cl    0.80135   0.63114   0.91978   0.00000  Uiso   1.00
Cl875  Cl    0.69865   0.86886   0.74688   0.00000  Uiso   1.00
Cl876  Cl    0.51693   0.82665   0.76121   0.00000  Uiso   1.00
Cl877  Cl    0.98307   0.67335   0.90546   0.00000  Uiso   1.00
Cl878  Cl    0.98333   0.84625   0.86743   0.00000  Uiso   1.00
Cl879  Cl    0.51667   0.65375   0.79923   0.00000  Uiso   1.00
Cl880  Cl    0.66473   0.52902   0.78488   0.00000  Uiso   1.00
H881   H     0.60543   0.84573   0.76320   0.00000  Uiso   1.00
H882   H     0.91619   0.85966   0.76313   0.00000  Uiso   1.00
H883   H     0.86174   0.88353   0.77361   0.00000  Uiso   1.00
H884   H     0.86662   0.82327   0.75516   0.00000  Uiso   1.00
H885   H     0.60290   0.63454   0.81392   0.00000  Uiso   1.00
H886   H     0.58382   0.64036   0.90355   0.00000  Uiso   1.00
H887   H     0.63339   0.67675   0.91151   0.00000  Uiso   1.00
H888   H     0.63826   0.61648   0.89308   0.00000  Uiso   1.00
H889   H     0.57750   0.87841   0.84185   0.00000  Uiso   1.00
H890   H     0.63315   0.89713   0.82759   0.00000  Uiso   1.00
H891   H     0.62540   0.85145   0.87357   0.00000  Uiso   1.00
H892   H     0.89457   0.65428   0.90347   0.00000  Uiso   1.00
H893   H     0.92250   0.62158   0.82483   0.00000  Uiso   1.00
H894   H     0.87460   0.64854   0.79310   0.00000  Uiso   1.00
H895   H     0.86686   0.60286   0.83908   0.00000  Uiso   1.00
H896   H     0.89710   0.86545   0.85276   0.00000  Uiso   1.00
N897   N     0.75000   0.62623   0.83333   0.00000  Uiso   1.00
N898   N     0.75000   0.87376   0.83333   0.00000  Uiso   1.00
N899   N     0.61371   0.83184   0.79809   0.00000  Uiso   1.00
N900   N     0.88629   0.66816   0.86858   0.00000  Uiso   1.00
N901   N     0.88658   0.83820   0.83005   0.00000  Uiso   1.00
N902   N     0.61342   0.66180   0.83663   0.00000  Uiso   1.00
O903   O     0.68453   0.78974   0.83334   0.00000  Uiso   1.00
O904   O     0.81547   0.71026   0.83333   0.00000  Uiso   1.00
O905   O     0.81547   0.78974   0.83333   0.00000  Uiso   1.00
O906   O     0.68453   0.71026   0.83334   0.00000  Uiso   1.00
O907   O     0.75000   0.78973   0.76178   0.00000  Uiso   1.00
O908   O     0.75000   0.71027   0.90489   0.00000  Uiso   1.00
O909   O     0.75000   0.78973   0.90489   0.00000  Uiso   1.00
O910   O     0.75000   0.71027   0.76178   0.00000  Uiso   1.00
Zn911  Zn    0.75000   0.80307   0.83333   0.00000  Uiso   1.00
Zn912  Zn    0.75000   0.69693   0.83333   0.00000  Uiso   1.00
loop_
_geom_bond_atom_site_label_1
_geom_bond_atom_site_label_2
_geom_bond_distance
_geom_bond_site_symmetry_2
_ccdc_geom_bond_type
C1     O70     1.295   .     A
C1     C18     1.471   .     S
C1     O67     1.302   .     A
C2     C6      1.415   .     A
C2     C29     1.412   .     A
C2     Cl36    1.773   .     S
C3     O71     1.280   .     A
C3     C7      1.363   .     S
C3     O74     1.277   .     A
C4     C8      1.363   .     S
C4     O73     1.277   .     A
C4     O72     1.280   .     A
C5     C32     1.415   .     A
C5     C30     1.420   .     A
C5     C158    1.545   1_545 S
C6     C31     1.420   .     A
C6     C157    1.545   .     S
C7     C616    1.164   1_554 S
C8     C311    1.164   .     S
C9     Cl40    1.773   .     S
C9     C14     1.395   .     A
C9     C20     1.401   .     A
C10    Cl41    1.773   .     S
C10    C15     1.395   .     A
C10    C21     1.401   .     A
C11    C16     1.395   .     A
C11    Cl42    1.772   .     S
C11    C21     1.401   .     A
C12    O68     1.302   .     A
C12    C19     1.471   .     S
C12    O69     1.295   .     A
C13    Cl43    1.772   .     S
C13    C17     1.395   .     A
C13    C20     1.401   .     A
C14    N63     1.422   .     S
C14    C18     1.419   .     A
C15    N64     1.422   .     S
C15    C19     1.419   .     A
C16    C19     1.424   .     A
C16    N65     1.425   .     S
C17    C18     1.424   .     A
C17    N66     1.425   .     S
C20    C97     1.490   1_455 S
C21    C96     1.490   .     S
C22    H55     1.111   .     S
C22    H53     1.111   .     S
C22    H54     1.110   .     S
C22    N63     1.448   .     S
C23    C30     1.415   .     A
C23    N61     1.370   .     A
C23    Cl33    1.759   .     S
C24    N64     1.448   .     S
C24    H58     1.111   .     S
C24    H57     1.111   .     S
C24    H59     1.110   .     S
C25    H47     1.111   .     S
C25    N65     1.446   .     S
C25    H48     1.111   .     S
C25    H46     1.111   .     S
C26    H52     1.111   .     S
C26    H50     1.111   .     S
C26    H51     1.111   .     S
C26    N66     1.446   .     S
C27    N62     1.370   .     A
C27    Cl37    1.759   .     S
C27    C31     1.415   .     A
C28    Cl38    1.757   .     S
C28    N61     1.373   .     A
C28    C32     1.412   .     A
C29    Cl39    1.757   .     S
C29    N62     1.373   .     A
C30    Cl44    1.772   .     S
C31    Cl34    1.772   .     S
C32    Cl35    1.773   .     S
H45    N63     1.031   .     S
H49    N66     1.030   .     S
H56    N64     1.031   .     S
H60    N65     1.030   .     S
N61    Zn76    2.017   .     S
N62    Zn75    2.017   .     S
O67    Zn75    1.999   .     S
O68    Zn76    1.999   .     S
O69    Zn75    2.005   .     S
O70    Zn76    2.005   .     S
O71    Zn75    1.949   .     S
O72    Zn76    1.949   .     S
O73    Zn75    1.943   .     S
O74    Zn76    1.943   .     S
C77    O146    1.295   .     A
C77    C94     1.471   .     S
C77    O143    1.302   .     A
C78    C82     1.415   .     A
C78    C105    1.412   .     A
C78    Cl112   1.773   .     S
C79    O147    1.280   .     A
C79    C83     1.363   .     S
C79    O150    1.277   .     A
C80    C84     1.363   .     S
C80    O149    1.277   .     A
C80    O148    1.280   .     A
C81    C108    1.415   .     A
C81    C106    1.420   .     A
C81    C234    1.545   1_545 S
C82    C107    1.420   .     A
C82    C233    1.545   .     S
C83    C692    1.164   1_554 S
C84    C387    1.164   .     S
C85    Cl116   1.773   .     S
C85    C90     1.395   .     A
C85    C96     1.401   .     A
C86    Cl117   1.773   .     S
C86    C91     1.395   .     A
C86    C97     1.401   .     A
C87    C92     1.395   .     A
C87    Cl118   1.772   .     S
C87    C97     1.401   .     A
C88    O144    1.302   .     A
C88    C95     1.471   .     S
C88    O145    1.295   .     A
C89    Cl119   1.772   .     S
C89    C93     1.395   .     A
C89    C96     1.401   .     A
C90    N139    1.422   .     S
C90    C94     1.419   .     A
C91    N140    1.422   .     S
C91    C95     1.419   .     A
C92    C95     1.424   .     A
C92    N141    1.425   .     S
C93    C94     1.424   .     A
C93    N142    1.425   .     S
C97    C20     1.490   1_655 S
C98    H131    1.111   .     S
C98    H129    1.111   .     S
C98    H130    1.110   .     S
C98    N139    1.448   .     S
C99    C106    1.415   .     A
C99    N137    1.370   .     A
C99    Cl109   1.759   .     S
C100   N140    1.448   .     S
C100   H134    1.111   .     S
C100   H133    1.111   .     S
C100   H135    1.110   .     S
C101   H123    1.111   .     S
C101   N141    1.446   .     S
C101   H124    1.111   .     S
C101   H122    1.111   .     S
C102   H128    1.111   .     S
C102   H126    1.111   .     S
C102   H127    1.111   .     S
C102   N142    1.446   .     S
C103   N138    1.370   .     A
C103   Cl113   1.759   .     S
C103   C107    1.415   .     A
C104   Cl114   1.757   .     S
C104   N137    1.373   .     A
C104   C108    1.412   .     A
C105   Cl115   1.757   .     S
C105   N138    1.373   .     A
C106   Cl120   1.772   .     S
C107   Cl110   1.772   .     S
C108   Cl111   1.773   .     S
H121   N139    1.031   .     S
H125   N142    1.030   .     S
H132   N140    1.031   .     S
H136   N141    1.030   .     S
N137   Zn152   2.017   .     S
N138   Zn151   2.017   .     S
O143   Zn151   1.999   .     S
O144   Zn152   1.999   .     S
O145   Zn151   2.005   .     S
O146   Zn152   2.005   .     S
O147   Zn151   1.949   .     S
O148   Zn152   1.949   .     S
O149   Zn151   1.943   .     S
O150   Zn152   1.943   .     S
C153   O222    1.295   .     A
C153   C170    1.471   .     S
C153   O219    1.302   .     A
C154   C158    1.415   .     A
C154   C181    1.412   .     A
C154   Cl188   1.773   .     S
C155   O223    1.280   .     A
C155   C159    1.363   .     S
C155   O226    1.277   .     A
C156   C160    1.363   .     S
C156   O225    1.277   .     A
C156   O224    1.280   .     A
C157   C184    1.415   .     A
C157   C182    1.420   .     A
C158   C183    1.420   .     A
C158   C5      1.545   1_565 S
C159   C768    1.164   1_554 S
C160   C463    1.164   .     S
C161   Cl192   1.773   .     S
C161   C166    1.395   .     A
C161   C172    1.401   .     A
C162   Cl193   1.773   .     S
C162   C167    1.395   .     A
C162   C173    1.401   .     A
C163   C168    1.395   .     A
C163   Cl194   1.772   .     S
C163   C173    1.401   .     A
C164   O220    1.302   .     A
C164   C171    1.471   .     S
C164   O221    1.295   .     A
C165   Cl195   1.772   .     S
C165   C169    1.395   .     A
C165   C172    1.401   .     A
C166   N215    1.422   .     S
C166   C170    1.419   .     A
C167   N216    1.422   .     S
C167   C171    1.419   .     A
C168   C171    1.424   .     A
C168   N217    1.425   .     S
C169   C170    1.424   .     A
C169   N218    1.425   .     S
C172   C249    1.490   1_455 S
C173   C248    1.490   .     S
C174   H207    1.111   .     S
C174   H205    1.111   .     S
C174   H206    1.110   .     S
C174   N215    1.448   .     S
C175   C182    1.415   .     A
C175   N213    1.370   .     A
C175   Cl185   1.759   .     S
C176   N216    1.448   .     S
C176   H210    1.111   .     S
C176   H209    1.111   .     S
C176   H211    1.110   .     S
C177   H199    1.111   .     S
C177   N217    1.446   .     S
C177   H200    1.111   .     S
C177   H198    1.111   .     S
C178   H204    1.111   .     S
C178   H202    1.111   .     S
C178   H203    1.111   .     S
C178   N218    1.446   .     S
C179   N214    1.370   .     A
C179   Cl189   1.759   .     S
C179   C183    1.415   .     A
C180   Cl190   1.757   .     S
C180   N213    1.373   .     A
C180   C184    1.412   .     A
C181   Cl191   1.757   .     S
C181   N214    1.373   .     A
C182   Cl196   1.772   .     S
C183   Cl186   1.772   .     S
C184   Cl187   1.773   .     S
H197   N215    1.031   .     S
H201   N218    1.030   .     S
H208   N216    1.031   .     S
H212   N217    1.030   .     S
N213   Zn228   2.017   .     S
N214   Zn227   2.017   .     S
O219   Zn227   1.999   .     S
O220   Zn228   1.999   .     S
O221   Zn227   2.005   .     S
O222   Zn228   2.005   .     S
O223   Zn227   1.949   .     S
O224   Zn228   1.949   .     S
O225   Zn227   1.943   .     S
O226   Zn228   1.943   .     S
C229   O298    1.295   .     A
C229   C246    1.471   .     S
C229   O295    1.302   .     A
C230   C234    1.415   .     A
C230   C257    1.412   .     A
C230   Cl264   1.773   .     S
C231   O299    1.280   .     A
C231   C235    1.363   .     S
C231   O302    1.277   .     A
C232   C236    1.363   .     S
C232   O301    1.277   .     A
C232   O300    1.280   .     A
C233   C260    1.415   .     A
C233   C258    1.420   .     A
C234   C259    1.420   .     A
C234   C81     1.545   1_565 S
C235   C844    1.164   1_554 S
C236   C539    1.164   .     S
C237   Cl268   1.773   .     S
C237   C242    1.395   .     A
C237   C248    1.401   .     A
C238   Cl269   1.773   .     S
C238   C243    1.395   .     A
C238   C249    1.401   .     A
C239   C244    1.395   .     A
C239   Cl270   1.772   .     S
C239   C249    1.401   .     A
C240   O296    1.302   .     A
C240   C247    1.471   .     S
C240   O297    1.295   .     A
C241   Cl271   1.772   .     S
C241   C245    1.395   .     A
C241   C248    1.401   .     A
C242   N291    1.422   .     S
C242   C246    1.419   .     A
C243   N292    1.422   .     S
C243   C247    1.419   .     A
C244   C247    1.424   .     A
C244   N293    1.425   .     S
C245   C246    1.424   .     A
C245   N294    1.425   .     S
C249   C172    1.490   1_655 S
C250   H283    1.111   .     S
C250   H281    1.111   .     S
C250   H282    1.110   .     S
C250   N291    1.448   .     S
C251   C258    1.415   .     A
C251   N289    1.370   .     A
C251   Cl261   1.759   .     S
C252   N292    1.448   .     S
C252   H286    1.111   .     S
C252   H285    1.111   .     S
C252   H287    1.110   .     S
C253   H275    1.111   .     S
C253   N293    1.446   .     S
C253   H276    1.111   .     S
C253   H274    1.111   .     S
C254   H280    1.111   .     S
C254   H278    1.111   .     S
C254   H279    1.111   .     S
C254   N294    1.446   .     S
C255   N290    1.370   .     A
C255   Cl265   1.759   .     S
C255   C259    1.415   .     A
C256   Cl266   1.757   .     S
C256   N289    1.373   .     A
C256   C260    1.412   .     A
C257   Cl267   1.757   .     S
C257   N290    1.373   .     A
C258   Cl272   1.772   .     S
C259   Cl262   1.772   .     S
C260   Cl263   1.773   .     S
H273   N291    1.031   .     S
H277   N294    1.030   .     S
H284   N292    1.031   .     S
H288   N293    1.030   .     S
N289   Zn304   2.017   .     S
N290   Zn303   2.017   .     S
O295   Zn303   1.999   .     S
O296   Zn304   1.999   .     S
O297   Zn303   2.005   .     S
O298   Zn304   2.005   .     S
O299   Zn303   1.949   .     S
O300   Zn304   1.949   .     S
O301   Zn303   1.943   .     S
O302   Zn304   1.943   .     S
C305   O374    1.295   .     A
C305   C322    1.471   .     S
C305   O371    1.302   .     A
C306   C310    1.415   .     A
C306   C333    1.412   .     A
C306   Cl340   1.773   .     S
C307   O375    1.280   .     A
C307   C311    1.363   .     S
C307   O378    1.277   .     A
C308   C312    1.363   .     S
C308   O377    1.277   .     A
C308   O376    1.280   .     A
C309   C336    1.415   .     A
C309   C334    1.420   .     A
C309   C462    1.545   1_545 S
C310   C335    1.420   .     A
C310   C461    1.545   .     S
C312   C615    1.164   .     S
C313   Cl344   1.773   .     S
C313   C318    1.395   .     A
C313   C324    1.401   .     A
C314   Cl345   1.773   .     S
C314   C319    1.395   .     A
C314   C325    1.401   .     A
C315   C320    1.395   .     A
C315   Cl346   1.772   .     S
C315   C325    1.401   .     A
C316   O372    1.302   .     A
C316   C323    1.471   .     S
C316   O373    1.295   .     A
C317   Cl347   1.772   .     S
C317   C321    1.395   .     A
C317   C324    1.401   .     A
C318   N367    1.422   .     S
C318   C322    1.419   .     A
C319   N368    1.422   .     S
C319   C323    1.419   .     A
C320   C323    1.424   .     A
C320   N369    1.425   .     S
C321   C322    1.424   .     A
C321   N370    1.425   .     S
C324   C401    1.490   1_455 S
C325   C400    1.490   .     S
C326   H359    1.111   .     S
C326   H357    1.111   .     S
C326   H358    1.110   .     S
C326   N367    1.448   .     S
C327   C334    1.415   .     A
C327   N365    1.370   .     A
C327   Cl337   1.759   .     S
C328   N368    1.448   .     S
C328   H362    1.111   .     S
C328   H361    1.111   .     S
C328   H363    1.110   .     S
C329   H351    1.111   .     S
C329   N369    1.446   .     S
C329   H352    1.111   .     S
C329   H350    1.111   .     S
C330   H356    1.111   .     S
C330   H354    1.111   .     S
C330   H355    1.111   .     S
C330   N370    1.446   .     S
C331   N366    1.370   .     A
C331   Cl341   1.759   .     S
C331   C335    1.415   .     A
C332   Cl342   1.757   .     S
C332   N365    1.373   .     A
C332   C336    1.412   .     A
C333   Cl343   1.757   .     S
C333   N366    1.373   .     A
C334   Cl348   1.772   .     S
C335   Cl338   1.772   .     S
C336   Cl339   1.773   .     S
H349   N367    1.031   .     S
H353   N370    1.030   .     S
H360   N368    1.031   .     S
H364   N369    1.030   .     S
N365   Zn380   2.017   .     S
N366   Zn379   2.017   .     S
O371   Zn379   1.999   .     S
O372   Zn380   1.999   .     S
O373   Zn379   2.005   .     S
O374   Zn380   2.005   .     S
O375   Zn379   1.949   .     S
O376   Zn380   1.949   .     S
O377   Zn379   1.943   .     S
O378   Zn380   1.943   .     S
C381   O450    1.295   .     A
C381   C398    1.471   .     S
C381   O447    1.302   .     A
C382   C386    1.415   .     A
C382   C409    1.412   .     A
C382   Cl416   1.773   .     S
C383   O451    1.280   .     A
C383   C387    1.363   .     S
C383   O454    1.277   .     A
C384   C388    1.363   .     S
C384   O453    1.277   .     A
C384   O452    1.280   .     A
C385   C412    1.415   .     A
C385   C410    1.420   .     A
C385   C538    1.545   1_545 S
C386   C411    1.420   .     A
C386   C537    1.545   .     S
C388   C691    1.164   .     S
C389   Cl420   1.773   .     S
C389   C394    1.395   .     A
C389   C400    1.401   .     A
C390   Cl421   1.773   .     S
C390   C395    1.395   .     A
C390   C401    1.401   .     A
C391   C396    1.395   .     A
C391   Cl422   1.772   .     S
C391   C401    1.401   .     A
C392   O448    1.302   .     A
C392   C399    1.471   .     S
C392   O449    1.295   .     A
C393   Cl423   1.772   .     S
C393   C397    1.395   .     A
C393   C400    1.401   .     A
C394   N443    1.422   .     S
C394   C398    1.419   .     A
C395   N444    1.422   .     S
C395   C399    1.419   .     A
C396   C399    1.424   .     A
C396   N445    1.425   .     S
C397   C398    1.424   .     A
C397   N446    1.425   .     S
C401   C324    1.490   1_655 S
C402   H435    1.111   .     S
C402   H433    1.111   .     S
C402   H434    1.110   .     S
C402   N443    1.448   .     S
C403   C410    1.415   .     A
C403   N441    1.370   .     A
C403   Cl413   1.759   .     S
C404   N444    1.448   .     S
C404   H438    1.111   .     S
C404   H437    1.111   .     S
C404   H439    1.110   .     S
C405   H427    1.111   .     S
C405   N445    1.446   .     S
C405   H428    1.111   .     S
C405   H426    1.111   .     S
C406   H432    1.111   .     S
C406   H430    1.111   .     S
C406   H431    1.111   .     S
C406   N446    1.446   .     S
C407   N442    1.370   .     A
C407   Cl417   1.759   .     S
C407   C411    1.415   .     A
C408   Cl418   1.757   .     S
C408   N441    1.373   .     A
C408   C412    1.412   .     A
C409   Cl419   1.757   .     S
C409   N442    1.373   .     A
C410   Cl424   1.772   .     S
C411   Cl414   1.772   .     S
C412   Cl415   1.773   .     S
H425   N443    1.031   .     S
H429   N446    1.030   .     S
H436   N444    1.031   .     S
H440   N445    1.030   .     S
N441   Zn456   2.017   .     S
N442   Zn455   2.017   .     S
O447   Zn455   1.999   .     S
O448   Zn456   1.999   .     S
O449   Zn455   2.005   .     S
O450   Zn456   2.005   .     S
O451   Zn455   1.949   .     S
O452   Zn456   1.949   .     S
O453   Zn455   1.943   .     S
O454   Zn456   1.943   .     S
C457   O526    1.295   .     A
C457   C474    1.471   .     S
C457   O523    1.302   .     A
C458   C462    1.415   .     A
C458   C485    1.412   .     A
C458   Cl492   1.773   .     S
C459   O527    1.280   .     A
C459   C463    1.363   .     S
C459   O530    1.277   .     A
C460   C464    1.363   .     S
C460   O529    1.277   .     A
C460   O528    1.280   .     A
C461   C488    1.415   .     A
C461   C486    1.420   .     A
C462   C487    1.420   .     A
C462   C309    1.545   1_565 S
C464   C767    1.164   .     S
C465   Cl496   1.773   .     S
C465   C470    1.395   .     A
C465   C476    1.401   .     A
C466   Cl497   1.773   .     S
C466   C471    1.395   .     A
C466   C477    1.401   .     A
C467   C472    1.395   .     A
C467   Cl498   1.772   .     S
C467   C477    1.401   .     A
C468   O524    1.302   .     A
C468   C475    1.471   .     S
C468   O525    1.295   .     A
C469   Cl499   1.772   .     S
C469   C473    1.395   .     A
C469   C476    1.401   .     A
C470   N519    1.422   .     S
C470   C474    1.419   .     A
C471   N520    1.422   .     S
C471   C475    1.419   .     A
C472   C475    1.424   .     A
C472   N521    1.425   .     S
C473   C474    1.424   .     A
C473   N522    1.425   .     S
C476   C553    1.490   1_455 S
C477   C552    1.490   .     S
C478   H511    1.111   .     S
C478   H509    1.111   .     S
C478   H510    1.110   .     S
C478   N519    1.448   .     S
C479   C486    1.415   .     A
C479   N517    1.370   .     A
C479   Cl489   1.759   .     S
C480   N520    1.448   .     S
C480   H514    1.111   .     S
C480   H513    1.111   .     S
C480   H515    1.110   .     S
C481   H503    1.111   .     S
C481   N521    1.446   .     S
C481   H504    1.111   .     S
C481   H502    1.111   .     S
C482   H508    1.111   .     S
C482   H506    1.111   .     S
C482   H507    1.111   .     S
C482   N522    1.446   .     S
C483   N518    1.370   .     A
C483   Cl493   1.759   .     S
C483   C487    1.415   .     A
C484   Cl494   1.757   .     S
C484   N517    1.373   .     A
C484   C488    1.412   .     A
C485   Cl495   1.757   .     S
C485   N518    1.373   .     A
C486   Cl500   1.772   .     S
C487   Cl490   1.772   .     S
C488   Cl491   1.773   .     S
H501   N519    1.031   .     S
H505   N522    1.030   .     S
H512   N520    1.031   .     S
H516   N521    1.030   .     S
N517   Zn532   2.017   .     S
N518   Zn531   2.017   .     S
O523   Zn531   1.999   .     S
O524   Zn532   1.999   .     S
O525   Zn531   2.005   .     S
O526   Zn532   2.005   .     S
O527   Zn531   1.949   .     S
O528   Zn532   1.949   .     S
O529   Zn531   1.943   .     S
O530   Zn532   1.943   .     S
C533   O602    1.295   .     A
C533   C550    1.471   .     S
C533   O599    1.302   .     A
C534   C538    1.415   .     A
C534   C561    1.412   .     A
C534   Cl568   1.773   .     S
C535   O603    1.280   .     A
C535   C539    1.363   .     S
C535   O606    1.277   .     A
C536   C540    1.363   .     S
C536   O605    1.277   .     A
C536   O604    1.280   .     A
C537   C564    1.415   .     A
C537   C562    1.420   .     A
C538   C563    1.420   .     A
C538   C385    1.545   1_565 S
C540   C843    1.164   .     S
C541   Cl572   1.773   .     S
C541   C546    1.395   .     A
C541   C552    1.401   .     A
C542   Cl573   1.773   .     S
C542   C547    1.395   .     A
C542   C553    1.401   .     A
C543   C548    1.395   .     A
C543   Cl574   1.772   .     S
C543   C553    1.401   .     A
C544   O600    1.302   .     A
C544   C551    1.471   .     S
C544   O601    1.295   .     A
C545   Cl575   1.772   .     S
C545   C549    1.395   .     A
C545   C552    1.401   .     A
C546   N595    1.422   .     S
C546   C550    1.419   .     A
C547   N596    1.422   .     S
C547   C551    1.419   .     A
C548   C551    1.424   .     A
C548   N597    1.425   .     S
C549   C550    1.424   .     A
C549   N598    1.425   .     S
C553   C476    1.490   1_655 S
C554   H587    1.111   .     S
C554   H585    1.111   .     S
C554   H586    1.110   .     S
C554   N595    1.448   .     S
C555   C562    1.415   .     A
C555   N593    1.370   .     A
C555   Cl565   1.759   .     S
C556   N596    1.448   .     S
C556   H590    1.111   .     S
C556   H589    1.111   .     S
C556   H591    1.110   .     S
C557   H579    1.111   .     S
C557   N597    1.446   .     S
C557   H580    1.111   .     S
C557   H578    1.111   .     S
C558   H584    1.111   .     S
C558   H582    1.111   .     S
C558   H583    1.111   .     S
C558   N598    1.446   .     S
C559   N594    1.370   .     A
C559   Cl569   1.759   .     S
C559   C563    1.415   .     A
C560   Cl570   1.757   .     S
C560   N593    1.373   .     A
C560   C564    1.412   .     A
C561   Cl571   1.757   .     S
C561   N594    1.373   .     A
C562   Cl576   1.772   .     S
C563   Cl566   1.772   .     S
C564   Cl567   1.773   .     S
H577   N595    1.031   .     S
H581   N598    1.030   .     S
H588   N596    1.031   .     S
H592   N597    1.030   .     S
N593   Zn608   2.017   .     S
N594   Zn607   2.017   .     S
O599   Zn607   1.999   .     S
O600   Zn608   1.999   .     S
O601   Zn607   2.005   .     S
O602   Zn608   2.005   .     S
O603   Zn607   1.949   .     S
O604   Zn608   1.949   .     S
O605   Zn607   1.943   .     S
O606   Zn608   1.943   .     S
C609   O678    1.295   .     A
C609   C626    1.471   .     S
C609   O675    1.302   .     A
C610   C614    1.415   .     A
C610   C637    1.412   .     A
C610   Cl644   1.773   .     S
C611   O679    1.280   .     A
C611   C615    1.363   .     S
C611   O682    1.277   .     A
C612   C616    1.363   .     S
C612   O681    1.277   .     A
C612   O680    1.280   .     A
C613   C640    1.415   .     A
C613   C638    1.420   .     A
C613   C766    1.545   1_545 S
C614   C639    1.420   .     A
C614   C765    1.545   .     S
C616   C7      1.164   1_556 S
C617   Cl648   1.773   .     S
C617   C622    1.395   .     A
C617   C628    1.401   .     A
C618   Cl649   1.773   .     S
C618   C623    1.395   .     A
C618   C629    1.401   .     A
C619   C624    1.395   .     A
C619   Cl650   1.772   .     S
C619   C629    1.401   .     A
C620   O676    1.302   .     A
C620   C627    1.471   .     S
C620   O677    1.295   .     A
C621   Cl651   1.772   .     S
C621   C625    1.395   .     A
C621   C628    1.401   .     A
C622   N671    1.422   .     S
C622   C626    1.419   .     A
C623   N672    1.422   .     S
C623   C627    1.419   .     A
C624   C627    1.424   .     A
C624   N673    1.425   .     S
C625   C626    1.424   .     A
C625   N674    1.425   .     S
C628   C705    1.490   1_455 S
C629   C704    1.490   .     S
C630   H663    1.111   .     S
C630   H661    1.111   .     S
C630   H662    1.110   .     S
C630   N671    1.448   .     S
C631   C638    1.415   .     A
C631   N669    1.370   .     A
C631   Cl641   1.759   .     S
C632   N672    1.448   .     S
C632   H666    1.111   .     S
C632   H665    1.111   .     S
C632   H667    1.110   .     S
C633   H655    1.111   .     S
C633   N673    1.446   .     S
C633   H656    1.111   .     S
C633   H654    1.111   .     S
C634   H660    1.111   .     S
C634   H658    1.111   .     S
C634   H659    1.111   .     S
C634   N674    1.446   .     S
C635   N670    1.370   .     A
C635   Cl645   1.759   .     S
C635   C639    1.415   .     A
C636   Cl646   1.757   .     S
C636   N669    1.373   .     A
C636   C640    1.412   .     A
C637   Cl647   1.757   .     S
C637   N670    1.373   .     A
C638   Cl652   1.772   .     S
C639   Cl642   1.772   .     S
C640   Cl643   1.773   .     S
H653   N671    1.031   .     S
H657   N674    1.030   .     S
H664   N672    1.031   .     S
H668   N673    1.030   .     S
N669   Zn684   2.017   .     S
N670   Zn683   2.017   .     S
O675   Zn683   1.999   .     S
O676   Zn684   1.999   .     S
O677   Zn683   2.005   .     S
O678   Zn684   2.005   .     S
O679   Zn683   1.949   .     S
O680   Zn684   1.949   .     S
O681   Zn683   1.943   .     S
O682   Zn684   1.943   .     S
C685   O754    1.295   .     A
C685   C702    1.471   .     S
C685   O751    1.302   .     A
C686   C690    1.415   .     A
C686   C713    1.412   .     A
C686   Cl720   1.773   .     S
C687   O755    1.280   .     A
C687   C691    1.363   .     S
C687   O758    1.277   .     A
C688   C692    1.363   .     S
C688   O757    1.277   .     A
C688   O756    1.280   .     A
C689   C716    1.415   .     A
C689   C714    1.420   .     A
C689   C842    1.545   1_545 S
C690   C715    1.420   .     A
C690   C841    1.545   .     S
C692   C83     1.164   1_556 S
C693   Cl724   1.773   .     S
C693   C698    1.395   .     A
C693   C704    1.401   .     A
C694   Cl725   1.773   .     S
C694   C699    1.395   .     A
C694   C705    1.401   .     A
C695   C700    1.395   .     A
C695   Cl726   1.772   .     S
C695   C705    1.401   .     A
C696   O752    1.302   .     A
C696   C703    1.471   .     S
C696   O753    1.295   .     A
C697   Cl727   1.772   .     S
C697   C701    1.395   .     A
C697   C704    1.401   .     A
C698   N747    1.422   .     S
C698   C702    1.419   .     A
C699   N748    1.422   .     S
C699   C703    1.419   .     A
C700   C703    1.424   .     A
C700   N749    1.425   .     S
C701   C702    1.424   .     A
C701   N750    1.425   .     S
C705   C628    1.490   1_655 S
C706   H739    1.111   .     S
C706   H737    1.111   .     S
C706   H738    1.110   .     S
C706   N747    1.448   .     S
C707   C714    1.415   .     A
C707   N745    1.370   .     A
C707   Cl717   1.759   .     S
C708   N748    1.448   .     S
C708   H742    1.111   .     S
C708   H741    1.111   .     S
C708   H743    1.110   .     S
C709   H731    1.111   .     S
C709   N749    1.446   .     S
C709   H732    1.111   .     S
C709   H730    1.111   .     S
C710   H736    1.111   .     S
C710   H734    1.111   .     S
C710   H735    1.111   .     S
C710   N750    1.446   .     S
C711   N746    1.370   .     A
C711   Cl721   1.759   .     S
C711   C715    1.415   .     A
C712   Cl722   1.757   .     S
C712   N745    1.373   .     A
C712   C716    1.412   .     A
C713   Cl723   1.757   .     S
C713   N746    1.373   .     A
C714   Cl728   1.772   .     S
C715   Cl718   1.772   .     S
C716   Cl719   1.773   .     S
H729   N747    1.031   .     S
H733   N750    1.030   .     S
H740   N748    1.031   .     S
H744   N749    1.030   .     S
N745   Zn760   2.017   .     S
N746   Zn759   2.017   .     S
O751   Zn759   1.999   .     S
O752   Zn760   1.999   .     S
O753   Zn759   2.005   .     S
O754   Zn760   2.005   .     S
O755   Zn759   1.949   .     S
O756   Zn760   1.949   .     S
O757   Zn759   1.943   .     S
O758   Zn760   1.943   .     S
C761   O830    1.295   .     A
C761   C778    1.471   .     S
C761   O827    1.302   .     A
C762   C766    1.415   .     A
C762   C789    1.412   .     A
C762   Cl796   1.773   .     S
C763   O831    1.280   .     A
C763   C767    1.363   .     S
C763   O834    1.277   .     A
C764   C768    1.363   .     S
C764   O833    1.277   .     A
C764   O832    1.280   .     A
C765   C792    1.415   .     A
C765   C790    1.420   .     A
C766   C791    1.420   .     A
C766   C613    1.545   1_565 S
C768   C159    1.164   1_556 S
C769   Cl800   1.773   .     S
C769   C774    1.395   .     A
C769   C780    1.401   .     A
C770   Cl801   1.773   .     S
C770   C775    1.395   .     A
C770   C781    1.401   .     A
C771   C776    1.395   .     A
C771   Cl802   1.772   .     S
C771   C781    1.401   .     A
C772   O828    1.302   .     A
C772   C779    1.471   .     S
C772   O829    1.295   .     A
C773   Cl803   1.772   .     S
C773   C777    1.395   .     A
C773   C780    1.401   .     A
C774   N823    1.422   .     S
C774   C778    1.419   .     A
C775   N824    1.422   .     S
C775   C779    1.419   .     A
C776   C779    1.424   .     A
C776   N825    1.425   .     S
C777   C778    1.424   .     A
C777   N826    1.425   .     S
C780   C857    1.490   1_455 S
C781   C856    1.490   .     S
C782   H815    1.111   .     S
C782   H813    1.111   .     S
C782   H814    1.110   .     S
C782   N823    1.448   .     S
C783   C790    1.415   .     A
C783   N821    1.370   .     A
C783   Cl793   1.759   .     S
C784   N824    1.448   .     S
C784   H818    1.111   .     S
C784   H817    1.111   .     S
C784   H819    1.110   .     S
C785   H807    1.111   .     S
C785   N825    1.446   .     S
C785   H808    1.111   .     S
C785   H806    1.111   .     S
C786   H812    1.111   .     S
C786   H810    1.111   .     S
C786   H811    1.111   .     S
C786   N826    1.446   .     S
C787   N822    1.370   .     A
C787   Cl797   1.759   .     S
C787   C791    1.415   .     A
C788   Cl798   1.757   .     S
C788   N821    1.373   .     A
C788   C792    1.412   .     A
C789   Cl799   1.757   .     S
C789   N822    1.373   .     A
C790   Cl804   1.772   .     S
C791   Cl794   1.772   .     S
C792   Cl795   1.773   .     S
H805   N823    1.031   .     S
H809   N826    1.030   .     S
H816   N824    1.031   .     S
H820   N825    1.030   .     S
N821   Zn836   2.017   .     S
N822   Zn835   2.017   .     S
O827   Zn835   1.999   .     S
O828   Zn836   1.999   .     S
O829   Zn835   2.005   .     S
O830   Zn836   2.005   .     S
O831   Zn835   1.949   .     S
O832   Zn836   1.949   .     S
O833   Zn835   1.943   .     S
O834   Zn836   1.943   .     S
C837   O906    1.295   .     A
C837   C854    1.471   .     S
C837   O903    1.302   .     A
C838   C842    1.415   .     A
C838   C865    1.412   .     A
C838   Cl872   1.773   .     S
C839   O907    1.280   .     A
C839   C843    1.363   .     S
C839   O910    1.277   .     A
C840   C844    1.363   .     S
C840   O909    1.277   .     A
C840   O908    1.280   .     A
C841   C868    1.415   .     A
C841   C866    1.420   .     A
C842   C867    1.420   .     A
C842   C689    1.545   1_565 S
C844   C235    1.164   1_556 S
C845   Cl876   1.773   .     S
C845   C850    1.395   .     A
C845   C856    1.401   .     A
C846   Cl877   1.773   .     S
C846   C851    1.395   .     A
C846   C857    1.401   .     A
C847   C852    1.395   .     A
C847   Cl878   1.772   .     S
C847   C857    1.401   .     A
C848   O904    1.302   .     A
C848   C855    1.471   .     S
C848   O905    1.295   .     A
C849   Cl879   1.772   .     S
C849   C853    1.395   .     A
C849   C856    1.401   .     A
C850   N899    1.422   .     S
C850   C854    1.419   .     A
C851   N900    1.422   .     S
C851   C855    1.419   .     A
C852   C855    1.424   .     A
C852   N901    1.425   .     S
C853   C854    1.424   .     A
C853   N902    1.425   .     S
C857   C780    1.490   1_655 S
C858   H891    1.111   .     S
C858   H889    1.111   .     S
C858   H890    1.110   .     S
C858   N899    1.448   .     S
C859   C866    1.415   .     A
C859   N897    1.370   .     A
C859   Cl869   1.759   .     S
C860   N900    1.448   .     S
C860   H894    1.111   .     S
C860   H893    1.111   .     S
C860   H895    1.110   .     S
C861   H883    1.111   .     S
C861   N901    1.446   .     S
C861   H884    1.111   .     S
C861   H882    1.111   .     S
C862   H888    1.111   .     S
C862   H886    1.111   .     S
C862   H887    1.111   .     S
C862   N902    1.446   .     S
C863   N898    1.370   .     A
C863   Cl873   1.759   .     S
C863   C867    1.415   .     A
C864   Cl874   1.757   .     S
C864   N897    1.373   .     A
C864   C868    1.412   .     A
C865   Cl875   1.757   .     S
C865   N898    1.373   .     A
C866   Cl880   1.772   .     S
C867   Cl870   1.772   .     S
C868   Cl871   1.773   .     S
H881   N899    1.031   .     S
H885   N902    1.030   .     S
H892   N900    1.031   .     S
H896   N901    1.030   .     S
N897   Zn912   2.017   .     S
N898   Zn911   2.017   .     S
O903   Zn911   1.999   .     S
O904   Zn912   1.999   .     S
O905   Zn911   2.005   .     S
O906   Zn912   2.005   .     S
O907   Zn911   1.949   .     S
O908   Zn912   1.949   .     S
O909   Zn911   1.943   .     S
O910   Zn912   1.943   .     S
