data_str_m1_o10_o18_pcu_sym.222
_audit_creation_date              2020-01-03
_audit_creation_method            'Materials Studio'
_symmetry_space_group_name_H-M    'P1'
_symmetry_Int_Tables_number       1
_symmetry_cell_setting            triclinic
loop_
_symmetry_equiv_pos_as_xyz
  x,y,z
_cell_length_a                    32.5317
_cell_length_b                    32.6484
_cell_length_c                    35.6836
_cell_angle_alpha                 98.5672
_cell_angle_beta                  72.8808
_cell_angle_gamma                 98.5933
loop_
_atom_site_label
_atom_site_type_symbol
_atom_site_fract_x
_atom_site_fract_y
_atom_site_fract_z
_atom_site_U_iso_or_equiv
_atom_site_adp_type
_atom_site_occupancy
Zn1    Zn    0.19244   0.14090   0.28278   0.00000  Uiso   1.00
Zn2    Zn    0.13459   0.12378   0.22258   0.00000  Uiso   1.00
Zn3    Zn    0.21166   0.19664   0.21188   0.00000  Uiso   1.00
Zn4    Zn    0.12798   0.20535   0.28277   0.00000  Uiso   1.00
O5     O     0.16667   0.16667   0.25000   0.00000  Uiso   1.00
O6     O     0.06990   0.18960   0.27820   0.00000  Uiso   1.00
O7     O     0.25440   0.15277   0.26768   0.00000  Uiso   1.00
O8     O     0.13800   0.06903   0.23607   0.00000  Uiso   1.00
O9     O     0.20437   0.25527   0.21806   0.00000  Uiso   1.00
O10    O     0.15693   0.12393   0.16625   0.00000  Uiso   1.00
O11    O     0.12687   0.20646   0.33749   0.00000  Uiso   1.00
O12    O     0.21088   0.17493   0.15877   0.00000  Uiso   1.00
O13    O     0.17198   0.16135   0.33749   0.00000  Uiso   1.00
O14    O     0.17849   0.08101   0.27821   0.00000  Uiso   1.00
O15    O     0.14581   0.26136   0.26767   0.00000  Uiso   1.00
O16    O     0.07452   0.13251   0.23607   0.00000  Uiso   1.00
O17    O     0.26785   0.19179   0.21806   0.00000  Uiso   1.00
C18    C     0.05238   0.15971   0.25908   0.00000  Uiso   1.00
C19    C     0.28110   0.17363   0.24112   0.00000  Uiso   1.00
C20    C     0.15643   0.05623   0.25836   0.00000  Uiso   1.00
C21    C     0.17650   0.27764   0.24157   0.00000  Uiso   1.00
C22    C     0.18808   0.14527   0.14403   0.00000  Uiso   1.00
C23    C     0.14566   0.18807   0.35618   0.00000  Uiso   1.00
C24    C     0.13814   0.19829   0.39908   0.00000  Uiso   1.00
C25    C     0.19659   0.13631   0.10152   0.00000  Uiso   1.00
C26    C     0.11062   0.24212   0.45974   0.00000  Uiso   1.00
C27    C     0.11295   0.22993   0.42008   0.00000  Uiso   1.00
C28    C     0.15766   0.17689   0.41912   0.00000  Uiso   1.00
C29    C     0.15103   0.18510   0.46002   0.00000  Uiso   1.00
C30    C     0.13196   0.22157   0.47939   0.00000  Uiso   1.00
C31    C     0.16628   0.16006   0.48122   0.00000  Uiso   1.00
C32    C     0.17150   0.17693   0.01896   0.00000  Uiso   1.00
C33    C     0.16176   0.21848   0.03370   0.00000  Uiso   1.00
C34    C     0.13758   0.23836   0.01644   0.00000  Uiso   1.00
C35    C     0.17602   0.11855   0.46645   0.00000  Uiso   1.00
C36    C     0.19837   0.09823   0.48450   0.00000  Uiso   1.00
C37    C     0.20382   0.11405   0.02143   0.00000  Uiso   1.00
C38    C     0.18632   0.15158   0.04043   0.00000  Uiso   1.00
C39    C     0.22199   0.09078   0.04172   0.00000  Uiso   1.00
C40    C     0.21872   0.10254   0.08158   0.00000  Uiso   1.00
C41    C     0.17990   0.16003   0.08137   0.00000  Uiso   1.00
H42    H     0.15936   0.18321   0.09854   0.00000  Uiso   1.00
H43    H     0.23168   0.08421   0.09746   0.00000  Uiso   1.00
H44    H     0.20685   0.06750   0.47141   0.00000  Uiso   1.00
H45    H     0.09304   0.26834   0.47447   0.00000  Uiso   1.00
H46    H     0.09705   0.24675   0.40541   0.00000  Uiso   1.00
H47    H     0.18009   0.15524   0.40224   0.00000  Uiso   1.00
C48    C     0.32732   0.17648   0.23713   0.00000  Uiso   1.00
C49    C     0.00720   0.15795   0.26189   0.00000  Uiso   1.00
H50    H     0.31785   0.14110   0.28494   0.00000  Uiso   1.00
C51    C     0.17981   0.32207   0.23943   0.00000  Uiso   1.00
H52    H     0.20775   0.00259   0.21805   0.00000  Uiso   1.00
C53    C     0.15005   0.01280   0.26280   0.00000  Uiso   1.00
N54    N     0.12337   0.27803   0.03455   0.00000  Uiso   1.00
O55    O     0.09929   0.28181   0.07088   0.00000  Uiso   1.00
O56    O     0.13823   0.31119   0.01638   0.00000  Uiso   1.00
I57    I     0.25328   0.03663   0.01532   0.00000  Uiso   1.00
I58    I     0.03836   0.20995   0.19193   0.00000  Uiso   1.00
I59    I     0.09123   0.32818   0.30592   0.00000  Uiso   1.00
I60    I     0.19524   0.25875   0.07147   0.00000  Uiso   1.00
I61    I     0.14836   0.07753   0.42527   0.00000  Uiso   1.00
Zn62   Zn    0.52577   0.14090   0.28278   0.00000  Uiso   1.00
Zn63   Zn    0.46792   0.12378   0.22258   0.00000  Uiso   1.00
Zn64   Zn    0.54500   0.19664   0.21188   0.00000  Uiso   1.00
Zn65   Zn    0.46131   0.20535   0.28277   0.00000  Uiso   1.00
O66    O     0.50000   0.16667   0.25000   0.00000  Uiso   1.00
O67    O     0.40323   0.18960   0.27820   0.00000  Uiso   1.00
O68    O     0.58773   0.15277   0.26768   0.00000  Uiso   1.00
O69    O     0.47133   0.06903   0.23607   0.00000  Uiso   1.00
O70    O     0.53771   0.25527   0.21806   0.00000  Uiso   1.00
O71    O     0.49027   0.12393   0.16625   0.00000  Uiso   1.00
O72    O     0.46020   0.20646   0.33749   0.00000  Uiso   1.00
O73    O     0.54421   0.17493   0.15877   0.00000  Uiso   1.00
O74    O     0.50532   0.16135   0.33749   0.00000  Uiso   1.00
O75    O     0.51182   0.08101   0.27821   0.00000  Uiso   1.00
O76    O     0.47914   0.26136   0.26767   0.00000  Uiso   1.00
O77    O     0.40785   0.13251   0.23607   0.00000  Uiso   1.00
O78    O     0.60119   0.19179   0.21806   0.00000  Uiso   1.00
C79    C     0.38572   0.15971   0.25908   0.00000  Uiso   1.00
C80    C     0.61443   0.17363   0.24112   0.00000  Uiso   1.00
C81    C     0.48976   0.05623   0.25836   0.00000  Uiso   1.00
C82    C     0.50984   0.27764   0.24157   0.00000  Uiso   1.00
C83    C     0.52141   0.14527   0.14403   0.00000  Uiso   1.00
C84    C     0.47899   0.18807   0.35618   0.00000  Uiso   1.00
C85    C     0.47147   0.19829   0.39908   0.00000  Uiso   1.00
C86    C     0.52993   0.13631   0.10152   0.00000  Uiso   1.00
C87    C     0.44395   0.24212   0.45974   0.00000  Uiso   1.00
C88    C     0.44628   0.22993   0.42008   0.00000  Uiso   1.00
C89    C     0.49099   0.17689   0.41912   0.00000  Uiso   1.00
C90    C     0.48436   0.18510   0.46002   0.00000  Uiso   1.00
C91    C     0.46529   0.22157   0.47939   0.00000  Uiso   1.00
C92    C     0.49961   0.16006   0.48122   0.00000  Uiso   1.00
C93    C     0.50483   0.17693   0.01896   0.00000  Uiso   1.00
C94    C     0.49509   0.21848   0.03370   0.00000  Uiso   1.00
C95    C     0.47092   0.23836   0.01644   0.00000  Uiso   1.00
C96    C     0.50935   0.11855   0.46645   0.00000  Uiso   1.00
C97    C     0.53170   0.09823   0.48450   0.00000  Uiso   1.00
C98    C     0.53716   0.11405   0.02143   0.00000  Uiso   1.00
C99    C     0.51966   0.15158   0.04043   0.00000  Uiso   1.00
C100   C     0.55533   0.09078   0.04172   0.00000  Uiso   1.00
C101   C     0.55205   0.10254   0.08158   0.00000  Uiso   1.00
C102   C     0.51323   0.16003   0.08137   0.00000  Uiso   1.00
H103   H     0.49269   0.18321   0.09854   0.00000  Uiso   1.00
H104   H     0.56501   0.08421   0.09746   0.00000  Uiso   1.00
H105   H     0.54018   0.06750   0.47141   0.00000  Uiso   1.00
H106   H     0.42637   0.26834   0.47447   0.00000  Uiso   1.00
H107   H     0.43039   0.24675   0.40541   0.00000  Uiso   1.00
H108   H     0.51342   0.15524   0.40224   0.00000  Uiso   1.00
C109   C     0.66066   0.17648   0.23713   0.00000  Uiso   1.00
C110   C     0.34053   0.15795   0.26189   0.00000  Uiso   1.00
H111   H     0.65118   0.14110   0.28494   0.00000  Uiso   1.00
C112   C     0.51314   0.32207   0.23943   0.00000  Uiso   1.00
H113   H     0.54108   0.00259   0.21805   0.00000  Uiso   1.00
C114   C     0.48338   0.01280   0.26280   0.00000  Uiso   1.00
N115   N     0.45671   0.27803   0.03455   0.00000  Uiso   1.00
O116   O     0.43263   0.28181   0.07088   0.00000  Uiso   1.00
O117   O     0.47156   0.31119   0.01638   0.00000  Uiso   1.00
I118   I     0.58661   0.03663   0.01532   0.00000  Uiso   1.00
I119   I     0.37170   0.20995   0.19193   0.00000  Uiso   1.00
I120   I     0.42456   0.32818   0.30592   0.00000  Uiso   1.00
I121   I     0.52857   0.25875   0.07147   0.00000  Uiso   1.00
I122   I     0.48170   0.07753   0.42527   0.00000  Uiso   1.00
Zn123  Zn    0.85910   0.14090   0.28278   0.00000  Uiso   1.00
Zn124  Zn    0.80125   0.12378   0.22258   0.00000  Uiso   1.00
Zn125  Zn    0.87833   0.19664   0.21188   0.00000  Uiso   1.00
Zn126  Zn    0.79465   0.20535   0.28277   0.00000  Uiso   1.00
O127   O     0.83333   0.16667   0.25000   0.00000  Uiso   1.00
O128   O     0.73656   0.18960   0.27820   0.00000  Uiso   1.00
O129   O     0.92106   0.15277   0.26768   0.00000  Uiso   1.00
O130   O     0.80467   0.06903   0.23607   0.00000  Uiso   1.00
O131   O     0.87104   0.25527   0.21806   0.00000  Uiso   1.00
O132   O     0.82360   0.12393   0.16625   0.00000  Uiso   1.00
O133   O     0.79354   0.20646   0.33749   0.00000  Uiso   1.00
O134   O     0.87755   0.17493   0.15877   0.00000  Uiso   1.00
O135   O     0.83865   0.16135   0.33749   0.00000  Uiso   1.00
O136   O     0.84515   0.08101   0.27821   0.00000  Uiso   1.00
O137   O     0.81247   0.26136   0.26767   0.00000  Uiso   1.00
O138   O     0.74119   0.13251   0.23607   0.00000  Uiso   1.00
O139   O     0.93452   0.19179   0.21806   0.00000  Uiso   1.00
C140   C     0.71905   0.15971   0.25908   0.00000  Uiso   1.00
C141   C     0.94777   0.17363   0.24112   0.00000  Uiso   1.00
C142   C     0.82310   0.05623   0.25836   0.00000  Uiso   1.00
C143   C     0.84317   0.27764   0.24157   0.00000  Uiso   1.00
C144   C     0.85474   0.14527   0.14403   0.00000  Uiso   1.00
C145   C     0.81232   0.18807   0.35618   0.00000  Uiso   1.00
C146   C     0.80481   0.19829   0.39908   0.00000  Uiso   1.00
C147   C     0.86326   0.13631   0.10152   0.00000  Uiso   1.00
C148   C     0.77729   0.24212   0.45974   0.00000  Uiso   1.00
C149   C     0.77962   0.22993   0.42008   0.00000  Uiso   1.00
C150   C     0.82433   0.17689   0.41912   0.00000  Uiso   1.00
C151   C     0.81770   0.18510   0.46002   0.00000  Uiso   1.00
C152   C     0.79863   0.22157   0.47939   0.00000  Uiso   1.00
C153   C     0.83295   0.16006   0.48122   0.00000  Uiso   1.00
C154   C     0.83816   0.17693   0.01896   0.00000  Uiso   1.00
C155   C     0.82842   0.21848   0.03370   0.00000  Uiso   1.00
C156   C     0.80425   0.23836   0.01644   0.00000  Uiso   1.00
C157   C     0.84269   0.11855   0.46645   0.00000  Uiso   1.00
C158   C     0.86503   0.09823   0.48450   0.00000  Uiso   1.00
C159   C     0.87049   0.11405   0.02143   0.00000  Uiso   1.00
C160   C     0.85299   0.15158   0.04043   0.00000  Uiso   1.00
C161   C     0.88866   0.09078   0.04172   0.00000  Uiso   1.00
C162   C     0.88538   0.10254   0.08158   0.00000  Uiso   1.00
C163   C     0.84657   0.16003   0.08137   0.00000  Uiso   1.00
H164   H     0.82602   0.18321   0.09854   0.00000  Uiso   1.00
H165   H     0.89834   0.08421   0.09746   0.00000  Uiso   1.00
H166   H     0.87351   0.06750   0.47141   0.00000  Uiso   1.00
H167   H     0.75971   0.26834   0.47447   0.00000  Uiso   1.00
H168   H     0.76372   0.24675   0.40541   0.00000  Uiso   1.00
H169   H     0.84676   0.15524   0.40224   0.00000  Uiso   1.00
C170   C     0.99399   0.17648   0.23713   0.00000  Uiso   1.00
C171   C     0.67387   0.15795   0.26189   0.00000  Uiso   1.00
H172   H     0.98451   0.14110   0.28494   0.00000  Uiso   1.00
C173   C     0.84648   0.32207   0.23943   0.00000  Uiso   1.00
H174   H     0.87442   0.00259   0.21805   0.00000  Uiso   1.00
C175   C     0.81671   0.01280   0.26280   0.00000  Uiso   1.00
N176   N     0.79004   0.27803   0.03455   0.00000  Uiso   1.00
O177   O     0.76596   0.28181   0.07088   0.00000  Uiso   1.00
O178   O     0.80490   0.31119   0.01638   0.00000  Uiso   1.00
I179   I     0.91995   0.03663   0.01532   0.00000  Uiso   1.00
I180   I     0.70503   0.20995   0.19193   0.00000  Uiso   1.00
I181   I     0.75790   0.32818   0.30592   0.00000  Uiso   1.00
I182   I     0.86190   0.25875   0.07147   0.00000  Uiso   1.00
I183   I     0.81503   0.07753   0.42527   0.00000  Uiso   1.00
Zn184  Zn    0.19244   0.47423   0.28278   0.00000  Uiso   1.00
Zn185  Zn    0.13459   0.45711   0.22258   0.00000  Uiso   1.00
Zn186  Zn    0.21166   0.52997   0.21188   0.00000  Uiso   1.00
Zn187  Zn    0.12798   0.53868   0.28277   0.00000  Uiso   1.00
O188   O     0.16667   0.50000   0.25000   0.00000  Uiso   1.00
O189   O     0.06990   0.52293   0.27820   0.00000  Uiso   1.00
O190   O     0.25440   0.48610   0.26768   0.00000  Uiso   1.00
O191   O     0.13800   0.40236   0.23607   0.00000  Uiso   1.00
O192   O     0.20437   0.58860   0.21806   0.00000  Uiso   1.00
O193   O     0.15693   0.45726   0.16625   0.00000  Uiso   1.00
O194   O     0.12687   0.53979   0.33749   0.00000  Uiso   1.00
O195   O     0.21088   0.50826   0.15877   0.00000  Uiso   1.00
O196   O     0.17198   0.49468   0.33749   0.00000  Uiso   1.00
O197   O     0.17849   0.41434   0.27821   0.00000  Uiso   1.00
O198   O     0.14581   0.59469   0.26767   0.00000  Uiso   1.00
O199   O     0.07452   0.46584   0.23607   0.00000  Uiso   1.00
O200   O     0.26785   0.52512   0.21806   0.00000  Uiso   1.00
C201   C     0.05238   0.49305   0.25908   0.00000  Uiso   1.00
C202   C     0.28110   0.50696   0.24112   0.00000  Uiso   1.00
C203   C     0.15643   0.38956   0.25836   0.00000  Uiso   1.00
C204   C     0.17650   0.61098   0.24157   0.00000  Uiso   1.00
C205   C     0.18808   0.47860   0.14403   0.00000  Uiso   1.00
C206   C     0.14566   0.52140   0.35618   0.00000  Uiso   1.00
C207   C     0.13814   0.53163   0.39908   0.00000  Uiso   1.00
C208   C     0.19659   0.46965   0.10152   0.00000  Uiso   1.00
C209   C     0.11062   0.57546   0.45974   0.00000  Uiso   1.00
C210   C     0.11295   0.56326   0.42008   0.00000  Uiso   1.00
C211   C     0.15766   0.51022   0.41912   0.00000  Uiso   1.00
C212   C     0.15103   0.51843   0.46002   0.00000  Uiso   1.00
C213   C     0.13196   0.55491   0.47939   0.00000  Uiso   1.00
C214   C     0.16628   0.49339   0.48122   0.00000  Uiso   1.00
C215   C     0.17150   0.51027   0.01896   0.00000  Uiso   1.00
C216   C     0.16176   0.55181   0.03370   0.00000  Uiso   1.00
C217   C     0.13758   0.57170   0.01644   0.00000  Uiso   1.00
C218   C     0.17602   0.45188   0.46645   0.00000  Uiso   1.00
C219   C     0.19837   0.43156   0.48450   0.00000  Uiso   1.00
C220   C     0.20382   0.44739   0.02143   0.00000  Uiso   1.00
C221   C     0.18632   0.48492   0.04043   0.00000  Uiso   1.00
C222   C     0.22199   0.42412   0.04172   0.00000  Uiso   1.00
C223   C     0.21872   0.43588   0.08158   0.00000  Uiso   1.00
C224   C     0.17990   0.49336   0.08137   0.00000  Uiso   1.00
H225   H     0.15936   0.51654   0.09854   0.00000  Uiso   1.00
H226   H     0.23168   0.41755   0.09746   0.00000  Uiso   1.00
H227   H     0.20685   0.40083   0.47141   0.00000  Uiso   1.00
H228   H     0.09304   0.60167   0.47447   0.00000  Uiso   1.00
H229   H     0.09705   0.58008   0.40541   0.00000  Uiso   1.00
H230   H     0.18009   0.48857   0.40224   0.00000  Uiso   1.00
C231   C     0.32732   0.50981   0.23713   0.00000  Uiso   1.00
C232   C     0.00720   0.49128   0.26189   0.00000  Uiso   1.00
H233   H     0.31785   0.47444   0.28494   0.00000  Uiso   1.00
C234   C     0.17981   0.65540   0.23943   0.00000  Uiso   1.00
H235   H     0.20775   0.33592   0.21805   0.00000  Uiso   1.00
C236   C     0.15005   0.34613   0.26280   0.00000  Uiso   1.00
N237   N     0.12337   0.61136   0.03455   0.00000  Uiso   1.00
O238   O     0.09929   0.61514   0.07088   0.00000  Uiso   1.00
O239   O     0.13823   0.64452   0.01638   0.00000  Uiso   1.00
I240   I     0.25328   0.36997   0.01532   0.00000  Uiso   1.00
I241   I     0.03836   0.54328   0.19193   0.00000  Uiso   1.00
I242   I     0.09123   0.66152   0.30592   0.00000  Uiso   1.00
I243   I     0.19524   0.59209   0.07147   0.00000  Uiso   1.00
I244   I     0.14836   0.41087   0.42527   0.00000  Uiso   1.00
Zn245  Zn    0.52577   0.47423   0.28278   0.00000  Uiso   1.00
Zn246  Zn    0.46792   0.45711   0.22258   0.00000  Uiso   1.00
Zn247  Zn    0.54500   0.52997   0.21188   0.00000  Uiso   1.00
Zn248  Zn    0.46131   0.53868   0.28277   0.00000  Uiso   1.00
O249   O     0.50000   0.50000   0.25000   0.00000  Uiso   1.00
O250   O     0.40323   0.52293   0.27820   0.00000  Uiso   1.00
O251   O     0.58773   0.48610   0.26768   0.00000  Uiso   1.00
O252   O     0.47133   0.40236   0.23607   0.00000  Uiso   1.00
O253   O     0.53771   0.58860   0.21806   0.00000  Uiso   1.00
O254   O     0.49027   0.45726   0.16625   0.00000  Uiso   1.00
O255   O     0.46020   0.53979   0.33749   0.00000  Uiso   1.00
O256   O     0.54421   0.50826   0.15877   0.00000  Uiso   1.00
O257   O     0.50532   0.49468   0.33749   0.00000  Uiso   1.00
O258   O     0.51182   0.41434   0.27821   0.00000  Uiso   1.00
O259   O     0.47914   0.59469   0.26767   0.00000  Uiso   1.00
O260   O     0.40785   0.46584   0.23607   0.00000  Uiso   1.00
O261   O     0.60119   0.52512   0.21806   0.00000  Uiso   1.00
C262   C     0.38572   0.49305   0.25908   0.00000  Uiso   1.00
C263   C     0.61443   0.50696   0.24112   0.00000  Uiso   1.00
C264   C     0.48976   0.38956   0.25836   0.00000  Uiso   1.00
C265   C     0.50984   0.61098   0.24157   0.00000  Uiso   1.00
C266   C     0.52141   0.47860   0.14403   0.00000  Uiso   1.00
C267   C     0.47899   0.52140   0.35618   0.00000  Uiso   1.00
C268   C     0.47147   0.53163   0.39908   0.00000  Uiso   1.00
C269   C     0.52993   0.46965   0.10152   0.00000  Uiso   1.00
C270   C     0.44395   0.57546   0.45974   0.00000  Uiso   1.00
C271   C     0.44628   0.56326   0.42008   0.00000  Uiso   1.00
C272   C     0.49099   0.51022   0.41912   0.00000  Uiso   1.00
C273   C     0.48436   0.51843   0.46002   0.00000  Uiso   1.00
C274   C     0.46529   0.55491   0.47939   0.00000  Uiso   1.00
C275   C     0.49961   0.49339   0.48122   0.00000  Uiso   1.00
C276   C     0.50483   0.51027   0.01896   0.00000  Uiso   1.00
C277   C     0.49509   0.55181   0.03370   0.00000  Uiso   1.00
C278   C     0.47092   0.57170   0.01644   0.00000  Uiso   1.00
C279   C     0.50935   0.45188   0.46645   0.00000  Uiso   1.00
C280   C     0.53170   0.43156   0.48450   0.00000  Uiso   1.00
C281   C     0.53716   0.44739   0.02143   0.00000  Uiso   1.00
C282   C     0.51966   0.48492   0.04043   0.00000  Uiso   1.00
C283   C     0.55533   0.42412   0.04172   0.00000  Uiso   1.00
C284   C     0.55205   0.43588   0.08158   0.00000  Uiso   1.00
C285   C     0.51323   0.49336   0.08137   0.00000  Uiso   1.00
H286   H     0.49269   0.51654   0.09854   0.00000  Uiso   1.00
H287   H     0.56501   0.41755   0.09746   0.00000  Uiso   1.00
H288   H     0.54018   0.40083   0.47141   0.00000  Uiso   1.00
H289   H     0.42637   0.60167   0.47447   0.00000  Uiso   1.00
H290   H     0.43039   0.58008   0.40541   0.00000  Uiso   1.00
H291   H     0.51342   0.48857   0.40224   0.00000  Uiso   1.00
C292   C     0.66066   0.50981   0.23713   0.00000  Uiso   1.00
C293   C     0.34053   0.49128   0.26189   0.00000  Uiso   1.00
H294   H     0.65118   0.47444   0.28494   0.00000  Uiso   1.00
C295   C     0.51314   0.65540   0.23943   0.00000  Uiso   1.00
H296   H     0.54108   0.33592   0.21805   0.00000  Uiso   1.00
C297   C     0.48338   0.34613   0.26280   0.00000  Uiso   1.00
N298   N     0.45671   0.61136   0.03455   0.00000  Uiso   1.00
O299   O     0.43263   0.61514   0.07088   0.00000  Uiso   1.00
O300   O     0.47156   0.64452   0.01638   0.00000  Uiso   1.00
I301   I     0.58661   0.36997   0.01532   0.00000  Uiso   1.00
I302   I     0.37170   0.54328   0.19193   0.00000  Uiso   1.00
I303   I     0.42456   0.66152   0.30592   0.00000  Uiso   1.00
I304   I     0.52857   0.59209   0.07147   0.00000  Uiso   1.00
I305   I     0.48170   0.41087   0.42527   0.00000  Uiso   1.00
Zn306  Zn    0.85910   0.47423   0.28278   0.00000  Uiso   1.00
Zn307  Zn    0.80125   0.45711   0.22258   0.00000  Uiso   1.00
Zn308  Zn    0.87833   0.52997   0.21188   0.00000  Uiso   1.00
Zn309  Zn    0.79465   0.53868   0.28277   0.00000  Uiso   1.00
O310   O     0.83333   0.50000   0.25000   0.00000  Uiso   1.00
O311   O     0.73656   0.52293   0.27820   0.00000  Uiso   1.00
O312   O     0.92106   0.48610   0.26768   0.00000  Uiso   1.00
O313   O     0.80467   0.40236   0.23607   0.00000  Uiso   1.00
O314   O     0.87104   0.58860   0.21806   0.00000  Uiso   1.00
O315   O     0.82360   0.45726   0.16625   0.00000  Uiso   1.00
O316   O     0.79354   0.53979   0.33749   0.00000  Uiso   1.00
O317   O     0.87755   0.50826   0.15877   0.00000  Uiso   1.00
O318   O     0.83865   0.49468   0.33749   0.00000  Uiso   1.00
O319   O     0.84515   0.41434   0.27821   0.00000  Uiso   1.00
O320   O     0.81247   0.59469   0.26767   0.00000  Uiso   1.00
O321   O     0.74119   0.46584   0.23607   0.00000  Uiso   1.00
O322   O     0.93452   0.52512   0.21806   0.00000  Uiso   1.00
C323   C     0.71905   0.49305   0.25908   0.00000  Uiso   1.00
C324   C     0.94777   0.50696   0.24112   0.00000  Uiso   1.00
C325   C     0.82310   0.38956   0.25836   0.00000  Uiso   1.00
C326   C     0.84317   0.61098   0.24157   0.00000  Uiso   1.00
C327   C     0.85474   0.47860   0.14403   0.00000  Uiso   1.00
C328   C     0.81232   0.52140   0.35618   0.00000  Uiso   1.00
C329   C     0.80481   0.53163   0.39908   0.00000  Uiso   1.00
C330   C     0.86326   0.46965   0.10152   0.00000  Uiso   1.00
C331   C     0.77729   0.57546   0.45974   0.00000  Uiso   1.00
C332   C     0.77962   0.56326   0.42008   0.00000  Uiso   1.00
C333   C     0.82433   0.51022   0.41912   0.00000  Uiso   1.00
C334   C     0.81770   0.51843   0.46002   0.00000  Uiso   1.00
C335   C     0.79863   0.55491   0.47939   0.00000  Uiso   1.00
C336   C     0.83295   0.49339   0.48122   0.00000  Uiso   1.00
C337   C     0.83816   0.51027   0.01896   0.00000  Uiso   1.00
C338   C     0.82842   0.55181   0.03370   0.00000  Uiso   1.00
C339   C     0.80425   0.57170   0.01644   0.00000  Uiso   1.00
C340   C     0.84269   0.45188   0.46645   0.00000  Uiso   1.00
C341   C     0.86503   0.43156   0.48450   0.00000  Uiso   1.00
C342   C     0.87049   0.44739   0.02143   0.00000  Uiso   1.00
C343   C     0.85299   0.48492   0.04043   0.00000  Uiso   1.00
C344   C     0.88866   0.42412   0.04172   0.00000  Uiso   1.00
C345   C     0.88538   0.43588   0.08158   0.00000  Uiso   1.00
C346   C     0.84657   0.49336   0.08137   0.00000  Uiso   1.00
H347   H     0.82602   0.51654   0.09854   0.00000  Uiso   1.00
H348   H     0.89834   0.41755   0.09746   0.00000  Uiso   1.00
H349   H     0.87351   0.40083   0.47141   0.00000  Uiso   1.00
H350   H     0.75971   0.60167   0.47447   0.00000  Uiso   1.00
H351   H     0.76372   0.58008   0.40541   0.00000  Uiso   1.00
H352   H     0.84676   0.48857   0.40224   0.00000  Uiso   1.00
C353   C     0.99399   0.50981   0.23713   0.00000  Uiso   1.00
C354   C     0.67387   0.49128   0.26189   0.00000  Uiso   1.00
H355   H     0.98451   0.47444   0.28494   0.00000  Uiso   1.00
C356   C     0.84648   0.65540   0.23943   0.00000  Uiso   1.00
H357   H     0.87442   0.33592   0.21805   0.00000  Uiso   1.00
C358   C     0.81671   0.34613   0.26280   0.00000  Uiso   1.00
N359   N     0.79004   0.61136   0.03455   0.00000  Uiso   1.00
O360   O     0.76596   0.61514   0.07088   0.00000  Uiso   1.00
O361   O     0.80490   0.64452   0.01638   0.00000  Uiso   1.00
I362   I     0.91995   0.36997   0.01532   0.00000  Uiso   1.00
I363   I     0.70503   0.54328   0.19193   0.00000  Uiso   1.00
I364   I     0.75790   0.66152   0.30592   0.00000  Uiso   1.00
I365   I     0.86190   0.59209   0.07147   0.00000  Uiso   1.00
I366   I     0.81503   0.41087   0.42527   0.00000  Uiso   1.00
Zn367  Zn    0.19244   0.80756   0.28278   0.00000  Uiso   1.00
Zn368  Zn    0.13459   0.79044   0.22258   0.00000  Uiso   1.00
Zn369  Zn    0.21166   0.86331   0.21188   0.00000  Uiso   1.00
Zn370  Zn    0.12798   0.87202   0.28277   0.00000  Uiso   1.00
O371   O     0.16667   0.83333   0.25000   0.00000  Uiso   1.00
O372   O     0.06990   0.85627   0.27820   0.00000  Uiso   1.00
O373   O     0.25440   0.81944   0.26768   0.00000  Uiso   1.00
O374   O     0.13800   0.73570   0.23607   0.00000  Uiso   1.00
O375   O     0.20437   0.92193   0.21806   0.00000  Uiso   1.00
O376   O     0.15693   0.79060   0.16625   0.00000  Uiso   1.00
O377   O     0.12687   0.87313   0.33749   0.00000  Uiso   1.00
O378   O     0.21088   0.84159   0.15877   0.00000  Uiso   1.00
O379   O     0.17198   0.82802   0.33749   0.00000  Uiso   1.00
O380   O     0.17849   0.74768   0.27821   0.00000  Uiso   1.00
O381   O     0.14581   0.92803   0.26767   0.00000  Uiso   1.00
O382   O     0.07452   0.79917   0.23607   0.00000  Uiso   1.00
O383   O     0.26785   0.85845   0.21806   0.00000  Uiso   1.00
C384   C     0.05238   0.82638   0.25908   0.00000  Uiso   1.00
C385   C     0.28110   0.84029   0.24112   0.00000  Uiso   1.00
C386   C     0.15643   0.72290   0.25836   0.00000  Uiso   1.00
C387   C     0.17650   0.94431   0.24157   0.00000  Uiso   1.00
C388   C     0.18808   0.81194   0.14403   0.00000  Uiso   1.00
C389   C     0.14566   0.85473   0.35618   0.00000  Uiso   1.00
C390   C     0.13814   0.86496   0.39908   0.00000  Uiso   1.00
C391   C     0.19659   0.80298   0.10152   0.00000  Uiso   1.00
C392   C     0.11062   0.90879   0.45974   0.00000  Uiso   1.00
C393   C     0.11295   0.89659   0.42008   0.00000  Uiso   1.00
C394   C     0.15766   0.84355   0.41912   0.00000  Uiso   1.00
C395   C     0.15103   0.85177   0.46002   0.00000  Uiso   1.00
C396   C     0.13196   0.88824   0.47939   0.00000  Uiso   1.00
C397   C     0.16628   0.82673   0.48122   0.00000  Uiso   1.00
C398   C     0.17150   0.84360   0.01896   0.00000  Uiso   1.00
C399   C     0.16176   0.88514   0.03370   0.00000  Uiso   1.00
C400   C     0.13758   0.90503   0.01644   0.00000  Uiso   1.00
C401   C     0.17602   0.78521   0.46645   0.00000  Uiso   1.00
C402   C     0.19837   0.76490   0.48450   0.00000  Uiso   1.00
C403   C     0.20382   0.78072   0.02143   0.00000  Uiso   1.00
C404   C     0.18632   0.81825   0.04043   0.00000  Uiso   1.00
C405   C     0.22199   0.75745   0.04172   0.00000  Uiso   1.00
C406   C     0.21872   0.76921   0.08158   0.00000  Uiso   1.00
C407   C     0.17990   0.82670   0.08137   0.00000  Uiso   1.00
H408   H     0.15936   0.84988   0.09854   0.00000  Uiso   1.00
H409   H     0.23168   0.75088   0.09746   0.00000  Uiso   1.00
H410   H     0.20685   0.73417   0.47141   0.00000  Uiso   1.00
H411   H     0.09304   0.93500   0.47447   0.00000  Uiso   1.00
H412   H     0.09705   0.91342   0.40541   0.00000  Uiso   1.00
H413   H     0.18009   0.82190   0.40224   0.00000  Uiso   1.00
C414   C     0.32732   0.84314   0.23713   0.00000  Uiso   1.00
C415   C     0.00720   0.82462   0.26189   0.00000  Uiso   1.00
H416   H     0.31785   0.80777   0.28494   0.00000  Uiso   1.00
C417   C     0.17981   0.98874   0.23943   0.00000  Uiso   1.00
H418   H     0.20775   0.66925   0.21805   0.00000  Uiso   1.00
C419   C     0.15005   0.67946   0.26280   0.00000  Uiso   1.00
N420   N     0.12337   0.94470   0.03455   0.00000  Uiso   1.00
O421   O     0.09929   0.94848   0.07088   0.00000  Uiso   1.00
O422   O     0.13823   0.97786   0.01638   0.00000  Uiso   1.00
I423   I     0.25328   0.70330   0.01532   0.00000  Uiso   1.00
I424   I     0.03836   0.87661   0.19193   0.00000  Uiso   1.00
I425   I     0.09123   0.99485   0.30592   0.00000  Uiso   1.00
I426   I     0.19524   0.92542   0.07147   0.00000  Uiso   1.00
I427   I     0.14836   0.74420   0.42527   0.00000  Uiso   1.00
Zn428  Zn    0.52577   0.80756   0.28278   0.00000  Uiso   1.00
Zn429  Zn    0.46792   0.79044   0.22258   0.00000  Uiso   1.00
Zn430  Zn    0.54500   0.86331   0.21188   0.00000  Uiso   1.00
Zn431  Zn    0.46131   0.87202   0.28277   0.00000  Uiso   1.00
O432   O     0.50000   0.83333   0.25000   0.00000  Uiso   1.00
O433   O     0.40323   0.85627   0.27820   0.00000  Uiso   1.00
O434   O     0.58773   0.81944   0.26768   0.00000  Uiso   1.00
O435   O     0.47133   0.73570   0.23607   0.00000  Uiso   1.00
O436   O     0.53771   0.92193   0.21806   0.00000  Uiso   1.00
O437   O     0.49027   0.79060   0.16625   0.00000  Uiso   1.00
O438   O     0.46020   0.87313   0.33749   0.00000  Uiso   1.00
O439   O     0.54421   0.84159   0.15877   0.00000  Uiso   1.00
O440   O     0.50532   0.82802   0.33749   0.00000  Uiso   1.00
O441   O     0.51182   0.74768   0.27821   0.00000  Uiso   1.00
O442   O     0.47914   0.92803   0.26767   0.00000  Uiso   1.00
O443   O     0.40785   0.79917   0.23607   0.00000  Uiso   1.00
O444   O     0.60119   0.85845   0.21806   0.00000  Uiso   1.00
C445   C     0.38572   0.82638   0.25908   0.00000  Uiso   1.00
C446   C     0.61443   0.84029   0.24112   0.00000  Uiso   1.00
C447   C     0.48976   0.72290   0.25836   0.00000  Uiso   1.00
C448   C     0.50984   0.94431   0.24157   0.00000  Uiso   1.00
C449   C     0.52141   0.81194   0.14403   0.00000  Uiso   1.00
C450   C     0.47899   0.85473   0.35618   0.00000  Uiso   1.00
C451   C     0.47147   0.86496   0.39908   0.00000  Uiso   1.00
C452   C     0.52993   0.80298   0.10152   0.00000  Uiso   1.00
C453   C     0.44395   0.90879   0.45974   0.00000  Uiso   1.00
C454   C     0.44628   0.89659   0.42008   0.00000  Uiso   1.00
C455   C     0.49099   0.84355   0.41912   0.00000  Uiso   1.00
C456   C     0.48436   0.85177   0.46002   0.00000  Uiso   1.00
C457   C     0.46529   0.88824   0.47939   0.00000  Uiso   1.00
C458   C     0.49961   0.82673   0.48122   0.00000  Uiso   1.00
C459   C     0.50483   0.84360   0.01896   0.00000  Uiso   1.00
C460   C     0.49509   0.88514   0.03370   0.00000  Uiso   1.00
C461   C     0.47092   0.90503   0.01644   0.00000  Uiso   1.00
C462   C     0.50935   0.78521   0.46645   0.00000  Uiso   1.00
C463   C     0.53170   0.76490   0.48450   0.00000  Uiso   1.00
C464   C     0.53716   0.78072   0.02143   0.00000  Uiso   1.00
C465   C     0.51966   0.81825   0.04043   0.00000  Uiso   1.00
C466   C     0.55533   0.75745   0.04172   0.00000  Uiso   1.00
C467   C     0.55205   0.76921   0.08158   0.00000  Uiso   1.00
C468   C     0.51323   0.82670   0.08137   0.00000  Uiso   1.00
H469   H     0.49269   0.84988   0.09854   0.00000  Uiso   1.00
H470   H     0.56501   0.75088   0.09746   0.00000  Uiso   1.00
H471   H     0.54018   0.73417   0.47141   0.00000  Uiso   1.00
H472   H     0.42637   0.93500   0.47447   0.00000  Uiso   1.00
H473   H     0.43039   0.91342   0.40541   0.00000  Uiso   1.00
H474   H     0.51342   0.82190   0.40224   0.00000  Uiso   1.00
C475   C     0.66066   0.84314   0.23713   0.00000  Uiso   1.00
C476   C     0.34053   0.82462   0.26189   0.00000  Uiso   1.00
H477   H     0.65118   0.80777   0.28494   0.00000  Uiso   1.00
C478   C     0.51314   0.98874   0.23943   0.00000  Uiso   1.00
H479   H     0.54108   0.66925   0.21805   0.00000  Uiso   1.00
C480   C     0.48338   0.67946   0.26280   0.00000  Uiso   1.00
N481   N     0.45671   0.94470   0.03455   0.00000  Uiso   1.00
O482   O     0.43263   0.94848   0.07088   0.00000  Uiso   1.00
O483   O     0.47156   0.97786   0.01638   0.00000  Uiso   1.00
I484   I     0.58661   0.70330   0.01532   0.00000  Uiso   1.00
I485   I     0.37170   0.87661   0.19193   0.00000  Uiso   1.00
I486   I     0.42456   0.99485   0.30592   0.00000  Uiso   1.00
I487   I     0.52857   0.92542   0.07147   0.00000  Uiso   1.00
I488   I     0.48170   0.74420   0.42527   0.00000  Uiso   1.00
Zn489  Zn    0.85910   0.80756   0.28278   0.00000  Uiso   1.00
Zn490  Zn    0.80125   0.79044   0.22258   0.00000  Uiso   1.00
Zn491  Zn    0.87833   0.86331   0.21188   0.00000  Uiso   1.00
Zn492  Zn    0.79465   0.87202   0.28277   0.00000  Uiso   1.00
O493   O     0.83333   0.83333   0.25000   0.00000  Uiso   1.00
O494   O     0.73656   0.85627   0.27820   0.00000  Uiso   1.00
O495   O     0.92106   0.81944   0.26768   0.00000  Uiso   1.00
O496   O     0.80467   0.73570   0.23607   0.00000  Uiso   1.00
O497   O     0.87104   0.92193   0.21806   0.00000  Uiso   1.00
O498   O     0.82360   0.79060   0.16625   0.00000  Uiso   1.00
O499   O     0.79354   0.87313   0.33749   0.00000  Uiso   1.00
O500   O     0.87755   0.84159   0.15877   0.00000  Uiso   1.00
O501   O     0.83865   0.82802   0.33749   0.00000  Uiso   1.00
O502   O     0.84515   0.74768   0.27821   0.00000  Uiso   1.00
O503   O     0.81247   0.92803   0.26767   0.00000  Uiso   1.00
O504   O     0.74119   0.79917   0.23607   0.00000  Uiso   1.00
O505   O     0.93452   0.85845   0.21806   0.00000  Uiso   1.00
C506   C     0.71905   0.82638   0.25908   0.00000  Uiso   1.00
C507   C     0.94777   0.84029   0.24112   0.00000  Uiso   1.00
C508   C     0.82310   0.72290   0.25836   0.00000  Uiso   1.00
C509   C     0.84317   0.94431   0.24157   0.00000  Uiso   1.00
C510   C     0.85474   0.81194   0.14403   0.00000  Uiso   1.00
C511   C     0.81232   0.85473   0.35618   0.00000  Uiso   1.00
C512   C     0.80481   0.86496   0.39908   0.00000  Uiso   1.00
C513   C     0.86326   0.80298   0.10152   0.00000  Uiso   1.00
C514   C     0.77729   0.90879   0.45974   0.00000  Uiso   1.00
C515   C     0.77962   0.89659   0.42008   0.00000  Uiso   1.00
C516   C     0.82433   0.84355   0.41912   0.00000  Uiso   1.00
C517   C     0.81770   0.85177   0.46002   0.00000  Uiso   1.00
C518   C     0.79863   0.88824   0.47939   0.00000  Uiso   1.00
C519   C     0.83295   0.82673   0.48122   0.00000  Uiso   1.00
C520   C     0.83816   0.84360   0.01896   0.00000  Uiso   1.00
C521   C     0.82842   0.88514   0.03370   0.00000  Uiso   1.00
C522   C     0.80425   0.90503   0.01644   0.00000  Uiso   1.00
C523   C     0.84269   0.78521   0.46645   0.00000  Uiso   1.00
C524   C     0.86503   0.76490   0.48450   0.00000  Uiso   1.00
C525   C     0.87049   0.78072   0.02143   0.00000  Uiso   1.00
C526   C     0.85299   0.81825   0.04043   0.00000  Uiso   1.00
C527   C     0.88866   0.75745   0.04172   0.00000  Uiso   1.00
C528   C     0.88538   0.76921   0.08158   0.00000  Uiso   1.00
C529   C     0.84657   0.82670   0.08137   0.00000  Uiso   1.00
H530   H     0.82602   0.84988   0.09854   0.00000  Uiso   1.00
H531   H     0.89834   0.75088   0.09746   0.00000  Uiso   1.00
H532   H     0.87351   0.73417   0.47141   0.00000  Uiso   1.00
H533   H     0.75971   0.93500   0.47447   0.00000  Uiso   1.00
H534   H     0.76372   0.91342   0.40541   0.00000  Uiso   1.00
H535   H     0.84676   0.82190   0.40224   0.00000  Uiso   1.00
C536   C     0.99399   0.84314   0.23713   0.00000  Uiso   1.00
C537   C     0.67387   0.82462   0.26189   0.00000  Uiso   1.00
H538   H     0.98451   0.80777   0.28494   0.00000  Uiso   1.00
C539   C     0.84648   0.98874   0.23943   0.00000  Uiso   1.00
H540   H     0.87442   0.66925   0.21805   0.00000  Uiso   1.00
C541   C     0.81671   0.67946   0.26280   0.00000  Uiso   1.00
N542   N     0.79004   0.94470   0.03455   0.00000  Uiso   1.00
O543   O     0.76596   0.94848   0.07088   0.00000  Uiso   1.00
O544   O     0.80490   0.97786   0.01638   0.00000  Uiso   1.00
I545   I     0.91995   0.70330   0.01532   0.00000  Uiso   1.00
I546   I     0.70503   0.87661   0.19193   0.00000  Uiso   1.00
I547   I     0.75790   0.99485   0.30592   0.00000  Uiso   1.00
I548   I     0.86190   0.92542   0.07147   0.00000  Uiso   1.00
I549   I     0.81503   0.74420   0.42527   0.00000  Uiso   1.00
Zn550  Zn    0.19244   0.14090   0.78278   0.00000  Uiso   1.00
Zn551  Zn    0.13459   0.12378   0.72258   0.00000  Uiso   1.00
Zn552  Zn    0.21166   0.19664   0.71188   0.00000  Uiso   1.00
Zn553  Zn    0.12798   0.20535   0.78277   0.00000  Uiso   1.00
O554   O     0.16667   0.16667   0.75000   0.00000  Uiso   1.00
O555   O     0.06990   0.18960   0.77820   0.00000  Uiso   1.00
O556   O     0.25440   0.15277   0.76768   0.00000  Uiso   1.00
O557   O     0.13800   0.06903   0.73607   0.00000  Uiso   1.00
O558   O     0.20437   0.25527   0.71806   0.00000  Uiso   1.00
O559   O     0.15693   0.12393   0.66625   0.00000  Uiso   1.00
O560   O     0.12687   0.20646   0.83749   0.00000  Uiso   1.00
O561   O     0.21088   0.17493   0.65877   0.00000  Uiso   1.00
O562   O     0.17198   0.16135   0.83749   0.00000  Uiso   1.00
O563   O     0.17849   0.08101   0.77821   0.00000  Uiso   1.00
O564   O     0.14581   0.26136   0.76767   0.00000  Uiso   1.00
O565   O     0.07452   0.13251   0.73607   0.00000  Uiso   1.00
O566   O     0.26785   0.19179   0.71806   0.00000  Uiso   1.00
C567   C     0.05238   0.15971   0.75908   0.00000  Uiso   1.00
C568   C     0.28110   0.17363   0.74112   0.00000  Uiso   1.00
C569   C     0.15643   0.05623   0.75836   0.00000  Uiso   1.00
C570   C     0.17650   0.27764   0.74157   0.00000  Uiso   1.00
C571   C     0.18808   0.14527   0.64403   0.00000  Uiso   1.00
C572   C     0.14566   0.18807   0.85618   0.00000  Uiso   1.00
C573   C     0.13814   0.19829   0.89908   0.00000  Uiso   1.00
C574   C     0.19659   0.13631   0.60152   0.00000  Uiso   1.00
C575   C     0.11062   0.24212   0.95974   0.00000  Uiso   1.00
C576   C     0.11295   0.22993   0.92008   0.00000  Uiso   1.00
C577   C     0.15766   0.17689   0.91912   0.00000  Uiso   1.00
C578   C     0.15103   0.18510   0.96002   0.00000  Uiso   1.00
C579   C     0.13196   0.22157   0.97939   0.00000  Uiso   1.00
C580   C     0.16628   0.16006   0.98122   0.00000  Uiso   1.00
C581   C     0.17150   0.17693   0.51896   0.00000  Uiso   1.00
C582   C     0.16176   0.21848   0.53370   0.00000  Uiso   1.00
C583   C     0.13758   0.23836   0.51644   0.00000  Uiso   1.00
C584   C     0.17602   0.11855   0.96645   0.00000  Uiso   1.00
C585   C     0.19837   0.09823   0.98450   0.00000  Uiso   1.00
C586   C     0.20382   0.11405   0.52143   0.00000  Uiso   1.00
C587   C     0.18632   0.15158   0.54043   0.00000  Uiso   1.00
C588   C     0.22199   0.09078   0.54172   0.00000  Uiso   1.00
C589   C     0.21872   0.10254   0.58158   0.00000  Uiso   1.00
C590   C     0.17990   0.16003   0.58137   0.00000  Uiso   1.00
H591   H     0.15936   0.18321   0.59854   0.00000  Uiso   1.00
H592   H     0.23168   0.08421   0.59746   0.00000  Uiso   1.00
H593   H     0.20685   0.06750   0.97141   0.00000  Uiso   1.00
H594   H     0.09304   0.26834   0.97447   0.00000  Uiso   1.00
H595   H     0.09705   0.24675   0.90541   0.00000  Uiso   1.00
H596   H     0.18009   0.15524   0.90224   0.00000  Uiso   1.00
C597   C     0.32732   0.17648   0.73713   0.00000  Uiso   1.00
C598   C     0.00720   0.15795   0.76189   0.00000  Uiso   1.00
H599   H     0.31785   0.14110   0.78494   0.00000  Uiso   1.00
C600   C     0.17981   0.32207   0.73943   0.00000  Uiso   1.00
H601   H     0.20775   0.00259   0.71805   0.00000  Uiso   1.00
C602   C     0.15005   0.01280   0.76280   0.00000  Uiso   1.00
N603   N     0.12337   0.27803   0.53455   0.00000  Uiso   1.00
O604   O     0.09929   0.28181   0.57088   0.00000  Uiso   1.00
O605   O     0.13823   0.31119   0.51638   0.00000  Uiso   1.00
I606   I     0.25328   0.03663   0.51532   0.00000  Uiso   1.00
I607   I     0.03836   0.20995   0.69193   0.00000  Uiso   1.00
I608   I     0.09123   0.32818   0.80592   0.00000  Uiso   1.00
I609   I     0.19524   0.25875   0.57147   0.00000  Uiso   1.00
I610   I     0.14836   0.07753   0.92527   0.00000  Uiso   1.00
Zn611  Zn    0.52577   0.14090   0.78278   0.00000  Uiso   1.00
Zn612  Zn    0.46792   0.12378   0.72258   0.00000  Uiso   1.00
Zn613  Zn    0.54500   0.19664   0.71188   0.00000  Uiso   1.00
Zn614  Zn    0.46131   0.20535   0.78277   0.00000  Uiso   1.00
O615   O     0.50000   0.16667   0.75000   0.00000  Uiso   1.00
O616   O     0.40323   0.18960   0.77820   0.00000  Uiso   1.00
O617   O     0.58773   0.15277   0.76768   0.00000  Uiso   1.00
O618   O     0.47133   0.06903   0.73607   0.00000  Uiso   1.00
O619   O     0.53771   0.25527   0.71806   0.00000  Uiso   1.00
O620   O     0.49027   0.12393   0.66625   0.00000  Uiso   1.00
O621   O     0.46020   0.20646   0.83749   0.00000  Uiso   1.00
O622   O     0.54421   0.17493   0.65877   0.00000  Uiso   1.00
O623   O     0.50532   0.16135   0.83749   0.00000  Uiso   1.00
O624   O     0.51182   0.08101   0.77821   0.00000  Uiso   1.00
O625   O     0.47914   0.26136   0.76767   0.00000  Uiso   1.00
O626   O     0.40785   0.13251   0.73607   0.00000  Uiso   1.00
O627   O     0.60119   0.19179   0.71806   0.00000  Uiso   1.00
C628   C     0.38572   0.15971   0.75908   0.00000  Uiso   1.00
C629   C     0.61443   0.17363   0.74112   0.00000  Uiso   1.00
C630   C     0.48976   0.05623   0.75836   0.00000  Uiso   1.00
C631   C     0.50984   0.27764   0.74157   0.00000  Uiso   1.00
C632   C     0.52141   0.14527   0.64403   0.00000  Uiso   1.00
C633   C     0.47899   0.18807   0.85618   0.00000  Uiso   1.00
C634   C     0.47147   0.19829   0.89908   0.00000  Uiso   1.00
C635   C     0.52993   0.13631   0.60152   0.00000  Uiso   1.00
C636   C     0.44395   0.24212   0.95974   0.00000  Uiso   1.00
C637   C     0.44628   0.22993   0.92008   0.00000  Uiso   1.00
C638   C     0.49099   0.17689   0.91912   0.00000  Uiso   1.00
C639   C     0.48436   0.18510   0.96002   0.00000  Uiso   1.00
C640   C     0.46529   0.22157   0.97939   0.00000  Uiso   1.00
C641   C     0.49961   0.16006   0.98122   0.00000  Uiso   1.00
C642   C     0.50483   0.17693   0.51896   0.00000  Uiso   1.00
C643   C     0.49509   0.21848   0.53370   0.00000  Uiso   1.00
C644   C     0.47092   0.23836   0.51644   0.00000  Uiso   1.00
C645   C     0.50935   0.11855   0.96645   0.00000  Uiso   1.00
C646   C     0.53170   0.09823   0.98450   0.00000  Uiso   1.00
C647   C     0.53716   0.11405   0.52143   0.00000  Uiso   1.00
C648   C     0.51966   0.15158   0.54043   0.00000  Uiso   1.00
C649   C     0.55533   0.09078   0.54172   0.00000  Uiso   1.00
C650   C     0.55205   0.10254   0.58158   0.00000  Uiso   1.00
C651   C     0.51323   0.16003   0.58137   0.00000  Uiso   1.00
H652   H     0.49269   0.18321   0.59854   0.00000  Uiso   1.00
H653   H     0.56501   0.08421   0.59746   0.00000  Uiso   1.00
H654   H     0.54018   0.06750   0.97141   0.00000  Uiso   1.00
H655   H     0.42637   0.26834   0.97447   0.00000  Uiso   1.00
H656   H     0.43039   0.24675   0.90541   0.00000  Uiso   1.00
H657   H     0.51342   0.15524   0.90224   0.00000  Uiso   1.00
C658   C     0.66066   0.17648   0.73713   0.00000  Uiso   1.00
C659   C     0.34053   0.15795   0.76189   0.00000  Uiso   1.00
H660   H     0.65118   0.14110   0.78494   0.00000  Uiso   1.00
C661   C     0.51314   0.32207   0.73943   0.00000  Uiso   1.00
H662   H     0.54108   0.00259   0.71805   0.00000  Uiso   1.00
C663   C     0.48338   0.01280   0.76280   0.00000  Uiso   1.00
N664   N     0.45671   0.27803   0.53455   0.00000  Uiso   1.00
O665   O     0.43263   0.28181   0.57088   0.00000  Uiso   1.00
O666   O     0.47156   0.31119   0.51638   0.00000  Uiso   1.00
I667   I     0.58661   0.03663   0.51532   0.00000  Uiso   1.00
I668   I     0.37170   0.20995   0.69193   0.00000  Uiso   1.00
I669   I     0.42456   0.32818   0.80592   0.00000  Uiso   1.00
I670   I     0.52857   0.25875   0.57147   0.00000  Uiso   1.00
I671   I     0.48170   0.07753   0.92527   0.00000  Uiso   1.00
Zn672  Zn    0.85910   0.14090   0.78278   0.00000  Uiso   1.00
Zn673  Zn    0.80125   0.12378   0.72258   0.00000  Uiso   1.00
Zn674  Zn    0.87833   0.19664   0.71188   0.00000  Uiso   1.00
Zn675  Zn    0.79465   0.20535   0.78277   0.00000  Uiso   1.00
O676   O     0.83333   0.16667   0.75000   0.00000  Uiso   1.00
O677   O     0.73656   0.18960   0.77820   0.00000  Uiso   1.00
O678   O     0.92106   0.15277   0.76768   0.00000  Uiso   1.00
O679   O     0.80467   0.06903   0.73607   0.00000  Uiso   1.00
O680   O     0.87104   0.25527   0.71806   0.00000  Uiso   1.00
O681   O     0.82360   0.12393   0.66625   0.00000  Uiso   1.00
O682   O     0.79354   0.20646   0.83749   0.00000  Uiso   1.00
O683   O     0.87755   0.17493   0.65877   0.00000  Uiso   1.00
O684   O     0.83865   0.16135   0.83749   0.00000  Uiso   1.00
O685   O     0.84515   0.08101   0.77821   0.00000  Uiso   1.00
O686   O     0.81247   0.26136   0.76767   0.00000  Uiso   1.00
O687   O     0.74119   0.13251   0.73607   0.00000  Uiso   1.00
O688   O     0.93452   0.19179   0.71806   0.00000  Uiso   1.00
C689   C     0.71905   0.15971   0.75908   0.00000  Uiso   1.00
C690   C     0.94777   0.17363   0.74112   0.00000  Uiso   1.00
C691   C     0.82310   0.05623   0.75836   0.00000  Uiso   1.00
C692   C     0.84317   0.27764   0.74157   0.00000  Uiso   1.00
C693   C     0.85474   0.14527   0.64403   0.00000  Uiso   1.00
C694   C     0.81232   0.18807   0.85618   0.00000  Uiso   1.00
C695   C     0.80481   0.19829   0.89908   0.00000  Uiso   1.00
C696   C     0.86326   0.13631   0.60152   0.00000  Uiso   1.00
C697   C     0.77729   0.24212   0.95974   0.00000  Uiso   1.00
C698   C     0.77962   0.22993   0.92008   0.00000  Uiso   1.00
C699   C     0.82433   0.17689   0.91912   0.00000  Uiso   1.00
C700   C     0.81770   0.18510   0.96002   0.00000  Uiso   1.00
C701   C     0.79863   0.22157   0.97939   0.00000  Uiso   1.00
C702   C     0.83295   0.16006   0.98122   0.00000  Uiso   1.00
C703   C     0.83816   0.17693   0.51896   0.00000  Uiso   1.00
C704   C     0.82842   0.21848   0.53370   0.00000  Uiso   1.00
C705   C     0.80425   0.23836   0.51644   0.00000  Uiso   1.00
C706   C     0.84269   0.11855   0.96645   0.00000  Uiso   1.00
C707   C     0.86503   0.09823   0.98450   0.00000  Uiso   1.00
C708   C     0.87049   0.11405   0.52143   0.00000  Uiso   1.00
C709   C     0.85299   0.15158   0.54043   0.00000  Uiso   1.00
C710   C     0.88866   0.09078   0.54172   0.00000  Uiso   1.00
C711   C     0.88538   0.10254   0.58158   0.00000  Uiso   1.00
C712   C     0.84657   0.16003   0.58137   0.00000  Uiso   1.00
H713   H     0.82602   0.18321   0.59854   0.00000  Uiso   1.00
H714   H     0.89834   0.08421   0.59746   0.00000  Uiso   1.00
H715   H     0.87351   0.06750   0.97141   0.00000  Uiso   1.00
H716   H     0.75971   0.26834   0.97447   0.00000  Uiso   1.00
H717   H     0.76372   0.24675   0.90541   0.00000  Uiso   1.00
H718   H     0.84676   0.15524   0.90224   0.00000  Uiso   1.00
C719   C     0.99399   0.17648   0.73713   0.00000  Uiso   1.00
C720   C     0.67387   0.15795   0.76189   0.00000  Uiso   1.00
H721   H     0.98451   0.14110   0.78494   0.00000  Uiso   1.00
C722   C     0.84648   0.32207   0.73943   0.00000  Uiso   1.00
H723   H     0.87442   0.00259   0.71805   0.00000  Uiso   1.00
C724   C     0.81671   0.01280   0.76280   0.00000  Uiso   1.00
N725   N     0.79004   0.27803   0.53455   0.00000  Uiso   1.00
O726   O     0.76596   0.28181   0.57088   0.00000  Uiso   1.00
O727   O     0.80490   0.31119   0.51638   0.00000  Uiso   1.00
I728   I     0.91995   0.03663   0.51532   0.00000  Uiso   1.00
I729   I     0.70503   0.20995   0.69193   0.00000  Uiso   1.00
I730   I     0.75790   0.32818   0.80592   0.00000  Uiso   1.00
I731   I     0.86190   0.25875   0.57147   0.00000  Uiso   1.00
I732   I     0.81503   0.07753   0.92527   0.00000  Uiso   1.00
Zn733  Zn    0.19244   0.47423   0.78278   0.00000  Uiso   1.00
Zn734  Zn    0.13459   0.45711   0.72258   0.00000  Uiso   1.00
Zn735  Zn    0.21166   0.52997   0.71188   0.00000  Uiso   1.00
Zn736  Zn    0.12798   0.53868   0.78277   0.00000  Uiso   1.00
O737   O     0.16667   0.50000   0.75000   0.00000  Uiso   1.00
O738   O     0.06990   0.52293   0.77820   0.00000  Uiso   1.00
O739   O     0.25440   0.48610   0.76768   0.00000  Uiso   1.00
O740   O     0.13800   0.40236   0.73607   0.00000  Uiso   1.00
O741   O     0.20437   0.58860   0.71806   0.00000  Uiso   1.00
O742   O     0.15693   0.45726   0.66625   0.00000  Uiso   1.00
O743   O     0.12687   0.53979   0.83749   0.00000  Uiso   1.00
O744   O     0.21088   0.50826   0.65877   0.00000  Uiso   1.00
O745   O     0.17198   0.49468   0.83749   0.00000  Uiso   1.00
O746   O     0.17849   0.41434   0.77821   0.00000  Uiso   1.00
O747   O     0.14581   0.59469   0.76767   0.00000  Uiso   1.00
O748   O     0.07452   0.46584   0.73607   0.00000  Uiso   1.00
O749   O     0.26785   0.52512   0.71806   0.00000  Uiso   1.00
C750   C     0.05238   0.49305   0.75908   0.00000  Uiso   1.00
C751   C     0.28110   0.50696   0.74112   0.00000  Uiso   1.00
C752   C     0.15643   0.38956   0.75836   0.00000  Uiso   1.00
C753   C     0.17650   0.61098   0.74157   0.00000  Uiso   1.00
C754   C     0.18808   0.47860   0.64403   0.00000  Uiso   1.00
C755   C     0.14566   0.52140   0.85618   0.00000  Uiso   1.00
C756   C     0.13814   0.53163   0.89908   0.00000  Uiso   1.00
C757   C     0.19659   0.46965   0.60152   0.00000  Uiso   1.00
C758   C     0.11062   0.57546   0.95974   0.00000  Uiso   1.00
C759   C     0.11295   0.56326   0.92008   0.00000  Uiso   1.00
C760   C     0.15766   0.51022   0.91912   0.00000  Uiso   1.00
C761   C     0.15103   0.51843   0.96002   0.00000  Uiso   1.00
C762   C     0.13196   0.55491   0.97939   0.00000  Uiso   1.00
C763   C     0.16628   0.49339   0.98122   0.00000  Uiso   1.00
C764   C     0.17150   0.51027   0.51896   0.00000  Uiso   1.00
C765   C     0.16176   0.55181   0.53370   0.00000  Uiso   1.00
C766   C     0.13758   0.57170   0.51644   0.00000  Uiso   1.00
C767   C     0.17602   0.45188   0.96645   0.00000  Uiso   1.00
C768   C     0.19837   0.43156   0.98450   0.00000  Uiso   1.00
C769   C     0.20382   0.44739   0.52143   0.00000  Uiso   1.00
C770   C     0.18632   0.48492   0.54043   0.00000  Uiso   1.00
C771   C     0.22199   0.42412   0.54172   0.00000  Uiso   1.00
C772   C     0.21872   0.43588   0.58158   0.00000  Uiso   1.00
C773   C     0.17990   0.49336   0.58137   0.00000  Uiso   1.00
H774   H     0.15936   0.51654   0.59854   0.00000  Uiso   1.00
H775   H     0.23168   0.41755   0.59746   0.00000  Uiso   1.00
H776   H     0.20685   0.40083   0.97141   0.00000  Uiso   1.00
H777   H     0.09304   0.60167   0.97447   0.00000  Uiso   1.00
H778   H     0.09705   0.58008   0.90541   0.00000  Uiso   1.00
H779   H     0.18009   0.48857   0.90224   0.00000  Uiso   1.00
C780   C     0.32732   0.50981   0.73713   0.00000  Uiso   1.00
C781   C     0.00720   0.49128   0.76189   0.00000  Uiso   1.00
H782   H     0.31785   0.47444   0.78494   0.00000  Uiso   1.00
C783   C     0.17981   0.65540   0.73943   0.00000  Uiso   1.00
H784   H     0.20775   0.33592   0.71805   0.00000  Uiso   1.00
C785   C     0.15005   0.34613   0.76280   0.00000  Uiso   1.00
N786   N     0.12337   0.61136   0.53455   0.00000  Uiso   1.00
O787   O     0.09929   0.61514   0.57088   0.00000  Uiso   1.00
O788   O     0.13823   0.64452   0.51638   0.00000  Uiso   1.00
I789   I     0.25328   0.36997   0.51532   0.00000  Uiso   1.00
I790   I     0.03836   0.54328   0.69193   0.00000  Uiso   1.00
I791   I     0.09123   0.66152   0.80592   0.00000  Uiso   1.00
I792   I     0.19524   0.59209   0.57147   0.00000  Uiso   1.00
I793   I     0.14836   0.41087   0.92527   0.00000  Uiso   1.00
Zn794  Zn    0.52577   0.47423   0.78278   0.00000  Uiso   1.00
Zn795  Zn    0.46792   0.45711   0.72258   0.00000  Uiso   1.00
Zn796  Zn    0.54500   0.52997   0.71188   0.00000  Uiso   1.00
Zn797  Zn    0.46131   0.53868   0.78277   0.00000  Uiso   1.00
O798   O     0.50000   0.50000   0.75000   0.00000  Uiso   1.00
O799   O     0.40323   0.52293   0.77820   0.00000  Uiso   1.00
O800   O     0.58773   0.48610   0.76768   0.00000  Uiso   1.00
O801   O     0.47133   0.40236   0.73607   0.00000  Uiso   1.00
O802   O     0.53771   0.58860   0.71806   0.00000  Uiso   1.00
O803   O     0.49027   0.45726   0.66625   0.00000  Uiso   1.00
O804   O     0.46020   0.53979   0.83749   0.00000  Uiso   1.00
O805   O     0.54421   0.50826   0.65877   0.00000  Uiso   1.00
O806   O     0.50532   0.49468   0.83749   0.00000  Uiso   1.00
O807   O     0.51182   0.41434   0.77821   0.00000  Uiso   1.00
O808   O     0.47914   0.59469   0.76767   0.00000  Uiso   1.00
O809   O     0.40785   0.46584   0.73607   0.00000  Uiso   1.00
O810   O     0.60119   0.52512   0.71806   0.00000  Uiso   1.00
C811   C     0.38572   0.49305   0.75908   0.00000  Uiso   1.00
C812   C     0.61443   0.50696   0.74112   0.00000  Uiso   1.00
C813   C     0.48976   0.38956   0.75836   0.00000  Uiso   1.00
C814   C     0.50984   0.61098   0.74157   0.00000  Uiso   1.00
C815   C     0.52141   0.47860   0.64403   0.00000  Uiso   1.00
C816   C     0.47899   0.52140   0.85618   0.00000  Uiso   1.00
C817   C     0.47147   0.53163   0.89908   0.00000  Uiso   1.00
C818   C     0.52993   0.46965   0.60152   0.00000  Uiso   1.00
C819   C     0.44395   0.57546   0.95974   0.00000  Uiso   1.00
C820   C     0.44628   0.56326   0.92008   0.00000  Uiso   1.00
C821   C     0.49099   0.51022   0.91912   0.00000  Uiso   1.00
C822   C     0.48436   0.51843   0.96002   0.00000  Uiso   1.00
C823   C     0.46529   0.55491   0.97939   0.00000  Uiso   1.00
C824   C     0.49961   0.49339   0.98122   0.00000  Uiso   1.00
C825   C     0.50483   0.51027   0.51896   0.00000  Uiso   1.00
C826   C     0.49509   0.55181   0.53370   0.00000  Uiso   1.00
C827   C     0.47092   0.57170   0.51644   0.00000  Uiso   1.00
C828   C     0.50935   0.45188   0.96645   0.00000  Uiso   1.00
C829   C     0.53170   0.43156   0.98450   0.00000  Uiso   1.00
C830   C     0.53716   0.44739   0.52143   0.00000  Uiso   1.00
C831   C     0.51966   0.48492   0.54043   0.00000  Uiso   1.00
C832   C     0.55533   0.42412   0.54172   0.00000  Uiso   1.00
C833   C     0.55205   0.43588   0.58158   0.00000  Uiso   1.00
C834   C     0.51323   0.49336   0.58137   0.00000  Uiso   1.00
H835   H     0.49269   0.51654   0.59854   0.00000  Uiso   1.00
H836   H     0.56501   0.41755   0.59746   0.00000  Uiso   1.00
H837   H     0.54018   0.40083   0.97141   0.00000  Uiso   1.00
H838   H     0.42637   0.60167   0.97447   0.00000  Uiso   1.00
H839   H     0.43039   0.58008   0.90541   0.00000  Uiso   1.00
H840   H     0.51342   0.48857   0.90224   0.00000  Uiso   1.00
C841   C     0.66066   0.50981   0.73713   0.00000  Uiso   1.00
C842   C     0.34053   0.49128   0.76189   0.00000  Uiso   1.00
H843   H     0.65118   0.47444   0.78494   0.00000  Uiso   1.00
C844   C     0.51314   0.65540   0.73943   0.00000  Uiso   1.00
H845   H     0.54108   0.33592   0.71805   0.00000  Uiso   1.00
C846   C     0.48338   0.34613   0.76280   0.00000  Uiso   1.00
N847   N     0.45671   0.61136   0.53455   0.00000  Uiso   1.00
O848   O     0.43263   0.61514   0.57088   0.00000  Uiso   1.00
O849   O     0.47156   0.64452   0.51638   0.00000  Uiso   1.00
I850   I     0.58661   0.36997   0.51532   0.00000  Uiso   1.00
I851   I     0.37170   0.54328   0.69193   0.00000  Uiso   1.00
I852   I     0.42456   0.66152   0.80592   0.00000  Uiso   1.00
I853   I     0.52857   0.59209   0.57147   0.00000  Uiso   1.00
I854   I     0.48170   0.41087   0.92527   0.00000  Uiso   1.00
Zn855  Zn    0.85910   0.47423   0.78278   0.00000  Uiso   1.00
Zn856  Zn    0.80125   0.45711   0.72258   0.00000  Uiso   1.00
Zn857  Zn    0.87833   0.52997   0.71188   0.00000  Uiso   1.00
Zn858  Zn    0.79465   0.53868   0.78277   0.00000  Uiso   1.00
O859   O     0.83333   0.50000   0.75000   0.00000  Uiso   1.00
O860   O     0.73656   0.52293   0.77820   0.00000  Uiso   1.00
O861   O     0.92106   0.48610   0.76768   0.00000  Uiso   1.00
O862   O     0.80467   0.40236   0.73607   0.00000  Uiso   1.00
O863   O     0.87104   0.58860   0.71806   0.00000  Uiso   1.00
O864   O     0.82360   0.45726   0.66625   0.00000  Uiso   1.00
O865   O     0.79354   0.53979   0.83749   0.00000  Uiso   1.00
O866   O     0.87755   0.50826   0.65877   0.00000  Uiso   1.00
O867   O     0.83865   0.49468   0.83749   0.00000  Uiso   1.00
O868   O     0.84515   0.41434   0.77821   0.00000  Uiso   1.00
O869   O     0.81247   0.59469   0.76767   0.00000  Uiso   1.00
O870   O     0.74119   0.46584   0.73607   0.00000  Uiso   1.00
O871   O     0.93452   0.52512   0.71806   0.00000  Uiso   1.00
C872   C     0.71905   0.49305   0.75908   0.00000  Uiso   1.00
C873   C     0.94777   0.50696   0.74112   0.00000  Uiso   1.00
C874   C     0.82310   0.38956   0.75836   0.00000  Uiso   1.00
C875   C     0.84317   0.61098   0.74157   0.00000  Uiso   1.00
C876   C     0.85474   0.47860   0.64403   0.00000  Uiso   1.00
C877   C     0.81232   0.52140   0.85618   0.00000  Uiso   1.00
C878   C     0.80481   0.53163   0.89908   0.00000  Uiso   1.00
C879   C     0.86326   0.46965   0.60152   0.00000  Uiso   1.00
C880   C     0.77729   0.57546   0.95974   0.00000  Uiso   1.00
C881   C     0.77962   0.56326   0.92008   0.00000  Uiso   1.00
C882   C     0.82433   0.51022   0.91912   0.00000  Uiso   1.00
C883   C     0.81770   0.51843   0.96002   0.00000  Uiso   1.00
C884   C     0.79863   0.55491   0.97939   0.00000  Uiso   1.00
C885   C     0.83295   0.49339   0.98122   0.00000  Uiso   1.00
C886   C     0.83816   0.51027   0.51896   0.00000  Uiso   1.00
C887   C     0.82842   0.55181   0.53370   0.00000  Uiso   1.00
C888   C     0.80425   0.57170   0.51644   0.00000  Uiso   1.00
C889   C     0.84269   0.45188   0.96645   0.00000  Uiso   1.00
C890   C     0.86503   0.43156   0.98450   0.00000  Uiso   1.00
C891   C     0.87049   0.44739   0.52143   0.00000  Uiso   1.00
C892   C     0.85299   0.48492   0.54043   0.00000  Uiso   1.00
C893   C     0.88866   0.42412   0.54172   0.00000  Uiso   1.00
C894   C     0.88538   0.43588   0.58158   0.00000  Uiso   1.00
C895   C     0.84657   0.49336   0.58137   0.00000  Uiso   1.00
H896   H     0.82602   0.51654   0.59854   0.00000  Uiso   1.00
H897   H     0.89834   0.41755   0.59746   0.00000  Uiso   1.00
H898   H     0.87351   0.40083   0.97141   0.00000  Uiso   1.00
H899   H     0.75971   0.60167   0.97447   0.00000  Uiso   1.00
H900   H     0.76372   0.58008   0.90541   0.00000  Uiso   1.00
H901   H     0.84676   0.48857   0.90224   0.00000  Uiso   1.00
C902   C     0.99399   0.50981   0.73713   0.00000  Uiso   1.00
C903   C     0.67387   0.49128   0.76189   0.00000  Uiso   1.00
H904   H     0.98451   0.47444   0.78494   0.00000  Uiso   1.00
C905   C     0.84648   0.65540   0.73943   0.00000  Uiso   1.00
H906   H     0.87442   0.33592   0.71805   0.00000  Uiso   1.00
C907   C     0.81671   0.34613   0.76280   0.00000  Uiso   1.00
N908   N     0.79004   0.61136   0.53455   0.00000  Uiso   1.00
O909   O     0.76596   0.61514   0.57088   0.00000  Uiso   1.00
O910   O     0.80490   0.64452   0.51638   0.00000  Uiso   1.00
I911   I     0.91995   0.36997   0.51532   0.00000  Uiso   1.00
I912   I     0.70503   0.54328   0.69193   0.00000  Uiso   1.00
I913   I     0.75790   0.66152   0.80592   0.00000  Uiso   1.00
I914   I     0.86190   0.59209   0.57147   0.00000  Uiso   1.00
I915   I     0.81503   0.41087   0.92527   0.00000  Uiso   1.00
Zn916  Zn    0.19244   0.80756   0.78278   0.00000  Uiso   1.00
Zn917  Zn    0.13459   0.79044   0.72258   0.00000  Uiso   1.00
Zn918  Zn    0.21166   0.86331   0.71188   0.00000  Uiso   1.00
Zn919  Zn    0.12798   0.87202   0.78277   0.00000  Uiso   1.00
O920   O     0.16667   0.83333   0.75000   0.00000  Uiso   1.00
O921   O     0.06990   0.85627   0.77820   0.00000  Uiso   1.00
O922   O     0.25440   0.81944   0.76768   0.00000  Uiso   1.00
O923   O     0.13800   0.73570   0.73607   0.00000  Uiso   1.00
O924   O     0.20437   0.92193   0.71806   0.00000  Uiso   1.00
O925   O     0.15693   0.79060   0.66625   0.00000  Uiso   1.00
O926   O     0.12687   0.87313   0.83749   0.00000  Uiso   1.00
O927   O     0.21088   0.84159   0.65877   0.00000  Uiso   1.00
O928   O     0.17198   0.82802   0.83749   0.00000  Uiso   1.00
O929   O     0.17849   0.74768   0.77821   0.00000  Uiso   1.00
O930   O     0.14581   0.92803   0.76767   0.00000  Uiso   1.00
O931   O     0.07452   0.79917   0.73607   0.00000  Uiso   1.00
O932   O     0.26785   0.85845   0.71806   0.00000  Uiso   1.00
C933   C     0.05238   0.82638   0.75908   0.00000  Uiso   1.00
C934   C     0.28110   0.84029   0.74112   0.00000  Uiso   1.00
C935   C     0.15643   0.72290   0.75836   0.00000  Uiso   1.00
C936   C     0.17650   0.94431   0.74157   0.00000  Uiso   1.00
C937   C     0.18808   0.81194   0.64403   0.00000  Uiso   1.00
C938   C     0.14566   0.85473   0.85618   0.00000  Uiso   1.00
C939   C     0.13814   0.86496   0.89908   0.00000  Uiso   1.00
C940   C     0.19659   0.80298   0.60152   0.00000  Uiso   1.00
C941   C     0.11062   0.90879   0.95974   0.00000  Uiso   1.00
C942   C     0.11295   0.89659   0.92008   0.00000  Uiso   1.00
C943   C     0.15766   0.84355   0.91912   0.00000  Uiso   1.00
C944   C     0.15103   0.85177   0.96002   0.00000  Uiso   1.00
C945   C     0.13196   0.88824   0.97939   0.00000  Uiso   1.00
C946   C     0.16628   0.82673   0.98122   0.00000  Uiso   1.00
C947   C     0.17150   0.84360   0.51896   0.00000  Uiso   1.00
C948   C     0.16176   0.88514   0.53370   0.00000  Uiso   1.00
C949   C     0.13758   0.90503   0.51644   0.00000  Uiso   1.00
C950   C     0.17602   0.78521   0.96645   0.00000  Uiso   1.00
C951   C     0.19837   0.76490   0.98450   0.00000  Uiso   1.00
C952   C     0.20382   0.78072   0.52143   0.00000  Uiso   1.00
C953   C     0.18632   0.81825   0.54043   0.00000  Uiso   1.00
C954   C     0.22199   0.75745   0.54172   0.00000  Uiso   1.00
C955   C     0.21872   0.76921   0.58158   0.00000  Uiso   1.00
C956   C     0.17990   0.82670   0.58137   0.00000  Uiso   1.00
H957   H     0.15936   0.84988   0.59854   0.00000  Uiso   1.00
H958   H     0.23168   0.75088   0.59746   0.00000  Uiso   1.00
H959   H     0.20685   0.73417   0.97141   0.00000  Uiso   1.00
H960   H     0.09304   0.93500   0.97447   0.00000  Uiso   1.00
H961   H     0.09705   0.91342   0.90541   0.00000  Uiso   1.00
H962   H     0.18009   0.82190   0.90224   0.00000  Uiso   1.00
C963   C     0.32732   0.84314   0.73713   0.00000  Uiso   1.00
C964   C     0.00720   0.82462   0.76189   0.00000  Uiso   1.00
H965   H     0.31785   0.80777   0.78494   0.00000  Uiso   1.00
C966   C     0.17981   0.98874   0.73943   0.00000  Uiso   1.00
H967   H     0.20775   0.66925   0.71805   0.00000  Uiso   1.00
C968   C     0.15005   0.67946   0.76280   0.00000  Uiso   1.00
N969   N     0.12337   0.94470   0.53455   0.00000  Uiso   1.00
O970   O     0.09929   0.94848   0.57088   0.00000  Uiso   1.00
O971   O     0.13823   0.97786   0.51638   0.00000  Uiso   1.00
I972   I     0.25328   0.70330   0.51532   0.00000  Uiso   1.00
I973   I     0.03836   0.87661   0.69193   0.00000  Uiso   1.00
I974   I     0.09123   0.99485   0.80592   0.00000  Uiso   1.00
I975   I     0.19524   0.92542   0.57147   0.00000  Uiso   1.00
I976   I     0.14836   0.74420   0.92527   0.00000  Uiso   1.00
Zn977  Zn    0.52577   0.80756   0.78278   0.00000  Uiso   1.00
Zn978  Zn    0.46792   0.79044   0.72258   0.00000  Uiso   1.00
Zn979  Zn    0.54500   0.86331   0.71188   0.00000  Uiso   1.00
Zn980  Zn    0.46131   0.87202   0.78277   0.00000  Uiso   1.00
O981   O     0.50000   0.83333   0.75000   0.00000  Uiso   1.00
O982   O     0.40323   0.85627   0.77820   0.00000  Uiso   1.00
O983   O     0.58773   0.81944   0.76768   0.00000  Uiso   1.00
O984   O     0.47133   0.73570   0.73607   0.00000  Uiso   1.00
O985   O     0.53771   0.92193   0.71806   0.00000  Uiso   1.00
O986   O     0.49027   0.79060   0.66625   0.00000  Uiso   1.00
O987   O     0.46020   0.87313   0.83749   0.00000  Uiso   1.00
O988   O     0.54421   0.84159   0.65877   0.00000  Uiso   1.00
O989   O     0.50532   0.82802   0.83749   0.00000  Uiso   1.00
O990   O     0.51182   0.74768   0.77821   0.00000  Uiso   1.00
O991   O     0.47914   0.92803   0.76767   0.00000  Uiso   1.00
O992   O     0.40785   0.79917   0.73607   0.00000  Uiso   1.00
O993   O     0.60119   0.85845   0.71806   0.00000  Uiso   1.00
C994   C     0.38572   0.82638   0.75908   0.00000  Uiso   1.00
C995   C     0.61443   0.84029   0.74112   0.00000  Uiso   1.00
C996   C     0.48976   0.72290   0.75836   0.00000  Uiso   1.00
C997   C     0.50984   0.94431   0.74157   0.00000  Uiso   1.00
C998   C     0.52141   0.81194   0.64403   0.00000  Uiso   1.00
C999   C     0.47899   0.85473   0.85618   0.00000  Uiso   1.00
C1000  C     0.47147   0.86496   0.89908   0.00000  Uiso   1.00
C1001  C     0.52993   0.80298   0.60152   0.00000  Uiso   1.00
C1002  C     0.44395   0.90879   0.95974   0.00000  Uiso   1.00
C1003  C     0.44628   0.89659   0.92008   0.00000  Uiso   1.00
C1004  C     0.49099   0.84355   0.91912   0.00000  Uiso   1.00
C1005  C     0.48436   0.85177   0.96002   0.00000  Uiso   1.00
C1006  C     0.46529   0.88824   0.97939   0.00000  Uiso   1.00
C1007  C     0.49961   0.82673   0.98122   0.00000  Uiso   1.00
C1008  C     0.50483   0.84360   0.51896   0.00000  Uiso   1.00
C1009  C     0.49509   0.88514   0.53370   0.00000  Uiso   1.00
C1010  C     0.47092   0.90503   0.51644   0.00000  Uiso   1.00
C1011  C     0.50935   0.78521   0.96645   0.00000  Uiso   1.00
C1012  C     0.53170   0.76490   0.98450   0.00000  Uiso   1.00
C1013  C     0.53716   0.78072   0.52143   0.00000  Uiso   1.00
C1014  C     0.51966   0.81825   0.54043   0.00000  Uiso   1.00
C1015  C     0.55533   0.75745   0.54172   0.00000  Uiso   1.00
C1016  C     0.55205   0.76921   0.58158   0.00000  Uiso   1.00
C1017  C     0.51323   0.82670   0.58137   0.00000  Uiso   1.00
H1018  H     0.49269   0.84988   0.59854   0.00000  Uiso   1.00
H1019  H     0.56501   0.75088   0.59746   0.00000  Uiso   1.00
H1020  H     0.54018   0.73417   0.97141   0.00000  Uiso   1.00
H1021  H     0.42637   0.93500   0.97447   0.00000  Uiso   1.00
H1022  H     0.43039   0.91342   0.90541   0.00000  Uiso   1.00
H1023  H     0.51342   0.82190   0.90224   0.00000  Uiso   1.00
C1024  C     0.66066   0.84314   0.73713   0.00000  Uiso   1.00
C1025  C     0.34053   0.82462   0.76189   0.00000  Uiso   1.00
H1026  H     0.65118   0.80777   0.78494   0.00000  Uiso   1.00
C1027  C     0.51314   0.98874   0.73943   0.00000  Uiso   1.00
H1028  H     0.54108   0.66925   0.71805   0.00000  Uiso   1.00
C1029  C     0.48338   0.67946   0.76280   0.00000  Uiso   1.00
N1030  N     0.45671   0.94470   0.53455   0.00000  Uiso   1.00
O1031  O     0.43263   0.94848   0.57088   0.00000  Uiso   1.00
O1032  O     0.47156   0.97786   0.51638   0.00000  Uiso   1.00
I1033  I     0.58661   0.70330   0.51532   0.00000  Uiso   1.00
I1034  I     0.37170   0.87661   0.69193   0.00000  Uiso   1.00
I1035  I     0.42456   0.99485   0.80592   0.00000  Uiso   1.00
I1036  I     0.52857   0.92542   0.57147   0.00000  Uiso   1.00
I1037  I     0.48170   0.74420   0.92527   0.00000  Uiso   1.00
Zn1038 Zn    0.85910   0.80756   0.78278   0.00000  Uiso   1.00
Zn1039 Zn    0.80125   0.79044   0.72258   0.00000  Uiso   1.00
Zn1040 Zn    0.87833   0.86331   0.71188   0.00000  Uiso   1.00
Zn1041 Zn    0.79465   0.87202   0.78277   0.00000  Uiso   1.00
O1042  O     0.83333   0.83333   0.75000   0.00000  Uiso   1.00
O1043  O     0.73656   0.85627   0.77820   0.00000  Uiso   1.00
O1044  O     0.92106   0.81944   0.76768   0.00000  Uiso   1.00
O1045  O     0.80467   0.73570   0.73607   0.00000  Uiso   1.00
O1046  O     0.87104   0.92193   0.71806   0.00000  Uiso   1.00
O1047  O     0.82360   0.79060   0.66625   0.00000  Uiso   1.00
O1048  O     0.79354   0.87313   0.83749   0.00000  Uiso   1.00
O1049  O     0.87755   0.84159   0.65877   0.00000  Uiso   1.00
O1050  O     0.83865   0.82802   0.83749   0.00000  Uiso   1.00
O1051  O     0.84515   0.74768   0.77821   0.00000  Uiso   1.00
O1052  O     0.81247   0.92803   0.76767   0.00000  Uiso   1.00
O1053  O     0.74119   0.79917   0.73607   0.00000  Uiso   1.00
O1054  O     0.93452   0.85845   0.71806   0.00000  Uiso   1.00
C1055  C     0.71905   0.82638   0.75908   0.00000  Uiso   1.00
C1056  C     0.94777   0.84029   0.74112   0.00000  Uiso   1.00
C1057  C     0.82310   0.72290   0.75836   0.00000  Uiso   1.00
C1058  C     0.84317   0.94431   0.74157   0.00000  Uiso   1.00
C1059  C     0.85474   0.81194   0.64403   0.00000  Uiso   1.00
C1060  C     0.81232   0.85473   0.85618   0.00000  Uiso   1.00
C1061  C     0.80481   0.86496   0.89908   0.00000  Uiso   1.00
C1062  C     0.86326   0.80298   0.60152   0.00000  Uiso   1.00
C1063  C     0.77729   0.90879   0.95974   0.00000  Uiso   1.00
C1064  C     0.77962   0.89659   0.92008   0.00000  Uiso   1.00
C1065  C     0.82433   0.84355   0.91912   0.00000  Uiso   1.00
C1066  C     0.81770   0.85177   0.96002   0.00000  Uiso   1.00
C1067  C     0.79863   0.88824   0.97939   0.00000  Uiso   1.00
C1068  C     0.83295   0.82673   0.98122   0.00000  Uiso   1.00
C1069  C     0.83816   0.84360   0.51896   0.00000  Uiso   1.00
C1070  C     0.82842   0.88514   0.53370   0.00000  Uiso   1.00
C1071  C     0.80425   0.90503   0.51644   0.00000  Uiso   1.00
C1072  C     0.84269   0.78521   0.96645   0.00000  Uiso   1.00
C1073  C     0.86503   0.76490   0.98450   0.00000  Uiso   1.00
C1074  C     0.87049   0.78072   0.52143   0.00000  Uiso   1.00
C1075  C     0.85299   0.81825   0.54043   0.00000  Uiso   1.00
C1076  C     0.88866   0.75745   0.54172   0.00000  Uiso   1.00
C1077  C     0.88538   0.76921   0.58158   0.00000  Uiso   1.00
C1078  C     0.84657   0.82670   0.58137   0.00000  Uiso   1.00
H1079  H     0.82602   0.84988   0.59854   0.00000  Uiso   1.00
H1080  H     0.89834   0.75088   0.59746   0.00000  Uiso   1.00
H1081  H     0.87351   0.73417   0.97141   0.00000  Uiso   1.00
H1082  H     0.75971   0.93500   0.97447   0.00000  Uiso   1.00
H1083  H     0.76372   0.91342   0.90541   0.00000  Uiso   1.00
H1084  H     0.84676   0.82190   0.90224   0.00000  Uiso   1.00
C1085  C     0.99399   0.84314   0.73713   0.00000  Uiso   1.00
C1086  C     0.67387   0.82462   0.76189   0.00000  Uiso   1.00
H1087  H     0.98451   0.80777   0.78494   0.00000  Uiso   1.00
C1088  C     0.84648   0.98874   0.73943   0.00000  Uiso   1.00
H1089  H     0.87442   0.66925   0.71805   0.00000  Uiso   1.00
C1090  C     0.81671   0.67946   0.76280   0.00000  Uiso   1.00
N1091  N     0.79004   0.94470   0.53455   0.00000  Uiso   1.00
O1092  O     0.76596   0.94848   0.57088   0.00000  Uiso   1.00
O1093  O     0.80490   0.97786   0.51638   0.00000  Uiso   1.00
I1094  I     0.91995   0.70330   0.51532   0.00000  Uiso   1.00
I1095  I     0.70503   0.87661   0.69193   0.00000  Uiso   1.00
I1096  I     0.75790   0.99485   0.80592   0.00000  Uiso   1.00
I1097  I     0.86190   0.92542   0.57147   0.00000  Uiso   1.00
I1098  I     0.81503   0.74420   0.92527   0.00000  Uiso   1.00
loop_
_geom_bond_atom_site_label_1
_geom_bond_atom_site_label_2
_geom_bond_distance
_geom_bond_site_symmetry_2
_ccdc_geom_bond_type
Zn1    O14     1.934   .     S
Zn1    O5      1.965   .     S
Zn1    O13     1.918   .     S
Zn1    O7      1.922   .     S
Zn2    O16     1.924   .     S
Zn2    O5      1.940   .     S
Zn2    O10     1.926   .     S
Zn2    O8      1.946   .     S
Zn3    O9      1.936   .     S
Zn3    O5      1.936   .     S
Zn3    O17     1.936   .     S
Zn3    O12     1.928   .     S
Zn4    O15     1.940   .     S
Zn4    O11     1.937   .     S
Zn4    O5      1.927   .     S
Zn4    O6      1.931   .     S
O6     C18     1.268   .     A
O7     C19     1.284   .     A
O8     C20     1.273   .     A
O9     C21     1.276   .     A
O10    C22     1.273   .     A
O11    C23     1.284   .     A
O12    C22     1.276   .     A
O13    C23     1.286   .     A
O14    C20     1.275   .     A
O15    C21     1.260   .     A
O16    C18     1.268   .     A
O17    C19     1.283   .     A
C18    C49     1.437   .     S
C19    C48     1.458   .     S
C20    C53     1.428   .     S
C21    C51     1.450   .     S
C22    C25     1.452   .     S
C23    C24     1.472   .     S
C24    C27     1.400   .     A
C24    C28     1.397   .     A
C25    C40     1.393   .     A
C25    C41     1.390   .     A
C26    C27     1.395   .     A
C26    H45     1.082   .     S
C26    C30     1.410   .     A
C27    H46     1.083   .     S
C28    H47     1.079   .     S
C28    C29     1.402   .     A
C29    C31     1.419   .     A
C29    C30     1.416   .     A
C30    C583    1.407   .     S
C31    C35     1.426   .     A
C31    C581    1.425   .     S
C32    C38     1.425   .     A
C32    C33     1.426   .     A
C32    C580    1.425   1_554 S
C33    C34     1.406   .     A
C33    I60     2.154   .     S
C34    N54     1.436   .     S
C34    C579    1.407   1_554 S
C35    C36     1.389   .     A
C35    I61     2.143   .     S
C36    H44     1.081   .     S
C36    C586    1.394   .     S
C37    C38     1.421   .     A
C37    C39     1.415   .     A
C37    C585    1.394   1_554 S
C38    C41     1.404   .     A
C39    C40     1.394   .     A
C39    I57     2.127   .     S
C40    H43     1.084   .     S
C41    H42     1.080   .     S
C48    C110    1.338   .     S
C48    I119    2.136   .     S
C49    C170    1.338   1_455 S
C49    H172    1.086   1_455 S
H50    C110    1.086   .     S
C51    H235    1.088   .     S
C51    C236    1.344   .     S
H52    C417    1.088   1_545 S
C53    C417    1.344   1_545 S
C53    I425    2.138   1_545 S
N54    O56     1.302   .     A
N54    O55     1.301   .     A
I58    C170    2.136   1_455 S
I59    C236    2.138   .     S
Zn62   O75     1.934   .     S
Zn62   O66     1.965   .     S
Zn62   O74     1.918   .     S
Zn62   O68     1.922   .     S
Zn63   O77     1.924   .     S
Zn63   O66     1.940   .     S
Zn63   O71     1.926   .     S
Zn63   O69     1.946   .     S
Zn64   O70     1.936   .     S
Zn64   O66     1.936   .     S
Zn64   O78     1.936   .     S
Zn64   O73     1.928   .     S
Zn65   O76     1.940   .     S
Zn65   O72     1.937   .     S
Zn65   O66     1.927   .     S
Zn65   O67     1.931   .     S
O67    C79     1.268   .     A
O68    C80     1.284   .     A
O69    C81     1.273   .     A
O70    C82     1.276   .     A
O71    C83     1.273   .     A
O72    C84     1.284   .     A
O73    C83     1.276   .     A
O74    C84     1.286   .     A
O75    C81     1.275   .     A
O76    C82     1.260   .     A
O77    C79     1.268   .     A
O78    C80     1.283   .     A
C79    C110    1.437   .     S
C80    C109    1.458   .     S
C81    C114    1.428   .     S
C82    C112    1.450   .     S
C83    C86     1.452   .     S
C84    C85     1.472   .     S
C85    C88     1.400   .     A
C85    C89     1.397   .     A
C86    C101    1.393   .     A
C86    C102    1.390   .     A
C87    C88     1.395   .     A
C87    H106    1.082   .     S
C87    C91     1.410   .     A
C88    H107    1.083   .     S
C89    H108    1.079   .     S
C89    C90     1.402   .     A
C90    C92     1.419   .     A
C90    C91     1.416   .     A
C91    C644    1.407   .     S
C92    C96     1.426   .     A
C92    C642    1.425   .     S
C93    C99     1.425   .     A
C93    C94     1.426   .     A
C93    C641    1.425   1_554 S
C94    C95     1.406   .     A
C94    I121    2.154   .     S
C95    N115    1.436   .     S
C95    C640    1.407   1_554 S
C96    C97     1.389   .     A
C96    I122    2.143   .     S
C97    H105    1.081   .     S
C97    C647    1.394   .     S
C98    C99     1.421   .     A
C98    C100    1.415   .     A
C98    C646    1.394   1_554 S
C99    C102    1.404   .     A
C100   C101    1.394   .     A
C100   I118    2.127   .     S
C101   H104    1.084   .     S
C102   H103    1.080   .     S
C109   C171    1.338   .     S
C109   I180    2.136   .     S
H111   C171    1.086   .     S
C112   H296    1.088   .     S
C112   C297    1.344   .     S
H113   C478    1.088   1_545 S
C114   C478    1.344   1_545 S
C114   I486    2.138   1_545 S
N115   O117    1.302   .     A
N115   O116    1.301   .     A
I120   C297    2.138   .     S
Zn123  O136    1.934   .     S
Zn123  O127    1.965   .     S
Zn123  O135    1.918   .     S
Zn123  O129    1.922   .     S
Zn124  O138    1.924   .     S
Zn124  O127    1.940   .     S
Zn124  O132    1.926   .     S
Zn124  O130    1.946   .     S
Zn125  O131    1.936   .     S
Zn125  O127    1.936   .     S
Zn125  O139    1.936   .     S
Zn125  O134    1.928   .     S
Zn126  O137    1.940   .     S
Zn126  O133    1.937   .     S
Zn126  O127    1.927   .     S
Zn126  O128    1.931   .     S
O128   C140    1.268   .     A
O129   C141    1.284   .     A
O130   C142    1.273   .     A
O131   C143    1.276   .     A
O132   C144    1.273   .     A
O133   C145    1.284   .     A
O134   C144    1.276   .     A
O135   C145    1.286   .     A
O136   C142    1.275   .     A
O137   C143    1.260   .     A
O138   C140    1.268   .     A
O139   C141    1.283   .     A
C140   C171    1.437   .     S
C141   C170    1.458   .     S
C142   C175    1.428   .     S
C143   C173    1.450   .     S
C144   C147    1.452   .     S
C145   C146    1.472   .     S
C146   C149    1.400   .     A
C146   C150    1.397   .     A
C147   C162    1.393   .     A
C147   C163    1.390   .     A
C148   C149    1.395   .     A
C148   H167    1.082   .     S
C148   C152    1.410   .     A
C149   H168    1.083   .     S
C150   H169    1.079   .     S
C150   C151    1.402   .     A
C151   C153    1.419   .     A
C151   C152    1.416   .     A
C152   C705    1.407   .     S
C153   C157    1.426   .     A
C153   C703    1.425   .     S
C154   C160    1.425   .     A
C154   C155    1.426   .     A
C154   C702    1.425   1_554 S
C155   C156    1.406   .     A
C155   I182    2.154   .     S
C156   N176    1.436   .     S
C156   C701    1.407   1_554 S
C157   C158    1.389   .     A
C157   I183    2.143   .     S
C158   H166    1.081   .     S
C158   C708    1.394   .     S
C159   C160    1.421   .     A
C159   C161    1.415   .     A
C159   C707    1.394   1_554 S
C160   C163    1.404   .     A
C161   C162    1.394   .     A
C161   I179    2.127   .     S
C162   H165    1.084   .     S
C163   H164    1.080   .     S
C170   C49     1.338   1_655 S
C170   I58     2.136   1_655 S
H172   C49     1.086   1_655 S
C173   H357    1.088   .     S
C173   C358    1.344   .     S
H174   C539    1.088   1_545 S
C175   C539    1.344   1_545 S
C175   I547    2.138   1_545 S
N176   O178    1.302   .     A
N176   O177    1.301   .     A
I181   C358    2.138   .     S
Zn184  O197    1.934   .     S
Zn184  O188    1.965   .     S
Zn184  O196    1.918   .     S
Zn184  O190    1.922   .     S
Zn185  O199    1.924   .     S
Zn185  O188    1.940   .     S
Zn185  O193    1.926   .     S
Zn185  O191    1.946   .     S
Zn186  O192    1.936   .     S
Zn186  O188    1.936   .     S
Zn186  O200    1.936   .     S
Zn186  O195    1.928   .     S
Zn187  O198    1.940   .     S
Zn187  O194    1.937   .     S
Zn187  O188    1.927   .     S
Zn187  O189    1.931   .     S
O189   C201    1.268   .     A
O190   C202    1.284   .     A
O191   C203    1.273   .     A
O192   C204    1.276   .     A
O193   C205    1.273   .     A
O194   C206    1.284   .     A
O195   C205    1.276   .     A
O196   C206    1.286   .     A
O197   C203    1.275   .     A
O198   C204    1.260   .     A
O199   C201    1.268   .     A
O200   C202    1.283   .     A
C201   C232    1.437   .     S
C202   C231    1.458   .     S
C203   C236    1.428   .     S
C204   C234    1.450   .     S
C205   C208    1.452   .     S
C206   C207    1.472   .     S
C207   C210    1.400   .     A
C207   C211    1.397   .     A
C208   C223    1.393   .     A
C208   C224    1.390   .     A
C209   C210    1.395   .     A
C209   H228    1.082   .     S
C209   C213    1.410   .     A
C210   H229    1.083   .     S
C211   H230    1.079   .     S
C211   C212    1.402   .     A
C212   C214    1.419   .     A
C212   C213    1.416   .     A
C213   C766    1.407   .     S
C214   C218    1.426   .     A
C214   C764    1.425   .     S
C215   C221    1.425   .     A
C215   C216    1.426   .     A
C215   C763    1.425   1_554 S
C216   C217    1.406   .     A
C216   I243    2.154   .     S
C217   N237    1.436   .     S
C217   C762    1.407   1_554 S
C218   C219    1.389   .     A
C218   I244    2.143   .     S
C219   H227    1.081   .     S
C219   C769    1.394   .     S
C220   C221    1.421   .     A
C220   C222    1.415   .     A
C220   C768    1.394   1_554 S
C221   C224    1.404   .     A
C222   C223    1.394   .     A
C222   I240    2.127   .     S
C223   H226    1.084   .     S
C224   H225    1.080   .     S
C231   C293    1.338   .     S
C231   I302    2.136   .     S
C232   C353    1.338   1_455 S
C232   H355    1.086   1_455 S
H233   C293    1.086   .     S
C234   H418    1.088   .     S
C234   C419    1.344   .     S
N237   O239    1.302   .     A
N237   O238    1.301   .     A
I241   C353    2.136   1_455 S
I242   C419    2.138   .     S
Zn245  O258    1.934   .     S
Zn245  O249    1.965   .     S
Zn245  O257    1.918   .     S
Zn245  O251    1.922   .     S
Zn246  O260    1.924   .     S
Zn246  O249    1.940   .     S
Zn246  O254    1.926   .     S
Zn246  O252    1.946   .     S
Zn247  O253    1.936   .     S
Zn247  O249    1.936   .     S
Zn247  O261    1.936   .     S
Zn247  O256    1.928   .     S
Zn248  O259    1.940   .     S
Zn248  O255    1.937   .     S
Zn248  O249    1.927   .     S
Zn248  O250    1.931   .     S
O250   C262    1.268   .     A
O251   C263    1.284   .     A
O252   C264    1.273   .     A
O253   C265    1.276   .     A
O254   C266    1.273   .     A
O255   C267    1.284   .     A
O256   C266    1.276   .     A
O257   C267    1.286   .     A
O258   C264    1.275   .     A
O259   C265    1.260   .     A
O260   C262    1.268   .     A
O261   C263    1.283   .     A
C262   C293    1.437   .     S
C263   C292    1.458   .     S
C264   C297    1.428   .     S
C265   C295    1.450   .     S
C266   C269    1.452   .     S
C267   C268    1.472   .     S
C268   C271    1.400   .     A
C268   C272    1.397   .     A
C269   C284    1.393   .     A
C269   C285    1.390   .     A
C270   C271    1.395   .     A
C270   H289    1.082   .     S
C270   C274    1.410   .     A
C271   H290    1.083   .     S
C272   H291    1.079   .     S
C272   C273    1.402   .     A
C273   C275    1.419   .     A
C273   C274    1.416   .     A
C274   C827    1.407   .     S
C275   C279    1.426   .     A
C275   C825    1.425   .     S
C276   C282    1.425   .     A
C276   C277    1.426   .     A
C276   C824    1.425   1_554 S
C277   C278    1.406   .     A
C277   I304    2.154   .     S
C278   N298    1.436   .     S
C278   C823    1.407   1_554 S
C279   C280    1.389   .     A
C279   I305    2.143   .     S
C280   H288    1.081   .     S
C280   C830    1.394   .     S
C281   C282    1.421   .     A
C281   C283    1.415   .     A
C281   C829    1.394   1_554 S
C282   C285    1.404   .     A
C283   C284    1.394   .     A
C283   I301    2.127   .     S
C284   H287    1.084   .     S
C285   H286    1.080   .     S
C292   C354    1.338   .     S
C292   I363    2.136   .     S
H294   C354    1.086   .     S
C295   H479    1.088   .     S
C295   C480    1.344   .     S
N298   O300    1.302   .     A
N298   O299    1.301   .     A
I303   C480    2.138   .     S
Zn306  O319    1.934   .     S
Zn306  O310    1.965   .     S
Zn306  O318    1.918   .     S
Zn306  O312    1.922   .     S
Zn307  O321    1.924   .     S
Zn307  O310    1.940   .     S
Zn307  O315    1.926   .     S
Zn307  O313    1.946   .     S
Zn308  O314    1.936   .     S
Zn308  O310    1.936   .     S
Zn308  O322    1.936   .     S
Zn308  O317    1.928   .     S
Zn309  O320    1.940   .     S
Zn309  O316    1.937   .     S
Zn309  O310    1.927   .     S
Zn309  O311    1.931   .     S
O311   C323    1.268   .     A
O312   C324    1.284   .     A
O313   C325    1.273   .     A
O314   C326    1.276   .     A
O315   C327    1.273   .     A
O316   C328    1.284   .     A
O317   C327    1.276   .     A
O318   C328    1.286   .     A
O319   C325    1.275   .     A
O320   C326    1.260   .     A
O321   C323    1.268   .     A
O322   C324    1.283   .     A
C323   C354    1.437   .     S
C324   C353    1.458   .     S
C325   C358    1.428   .     S
C326   C356    1.450   .     S
C327   C330    1.452   .     S
C328   C329    1.472   .     S
C329   C332    1.400   .     A
C329   C333    1.397   .     A
C330   C345    1.393   .     A
C330   C346    1.390   .     A
C331   C332    1.395   .     A
C331   H350    1.082   .     S
C331   C335    1.410   .     A
C332   H351    1.083   .     S
C333   H352    1.079   .     S
C333   C334    1.402   .     A
C334   C336    1.419   .     A
C334   C335    1.416   .     A
C335   C888    1.407   .     S
C336   C340    1.426   .     A
C336   C886    1.425   .     S
C337   C343    1.425   .     A
C337   C338    1.426   .     A
C337   C885    1.425   1_554 S
C338   C339    1.406   .     A
C338   I365    2.154   .     S
C339   N359    1.436   .     S
C339   C884    1.407   1_554 S
C340   C341    1.389   .     A
C340   I366    2.143   .     S
C341   H349    1.081   .     S
C341   C891    1.394   .     S
C342   C343    1.421   .     A
C342   C344    1.415   .     A
C342   C890    1.394   1_554 S
C343   C346    1.404   .     A
C344   C345    1.394   .     A
C344   I362    2.127   .     S
C345   H348    1.084   .     S
C346   H347    1.080   .     S
C353   C232    1.338   1_655 S
C353   I241    2.136   1_655 S
H355   C232    1.086   1_655 S
C356   H540    1.088   .     S
C356   C541    1.344   .     S
N359   O361    1.302   .     A
N359   O360    1.301   .     A
I364   C541    2.138   .     S
Zn367  O380    1.934   .     S
Zn367  O371    1.965   .     S
Zn367  O379    1.918   .     S
Zn367  O373    1.922   .     S
Zn368  O382    1.924   .     S
Zn368  O371    1.940   .     S
Zn368  O376    1.926   .     S
Zn368  O374    1.946   .     S
Zn369  O375    1.936   .     S
Zn369  O371    1.936   .     S
Zn369  O383    1.936   .     S
Zn369  O378    1.928   .     S
Zn370  O381    1.940   .     S
Zn370  O377    1.937   .     S
Zn370  O371    1.927   .     S
Zn370  O372    1.931   .     S
O372   C384    1.268   .     A
O373   C385    1.284   .     A
O374   C386    1.273   .     A
O375   C387    1.276   .     A
O376   C388    1.273   .     A
O377   C389    1.284   .     A
O378   C388    1.276   .     A
O379   C389    1.286   .     A
O380   C386    1.275   .     A
O381   C387    1.260   .     A
O382   C384    1.268   .     A
O383   C385    1.283   .     A
C384   C415    1.437   .     S
C385   C414    1.458   .     S
C386   C419    1.428   .     S
C387   C417    1.450   .     S
C388   C391    1.452   .     S
C389   C390    1.472   .     S
C390   C393    1.400   .     A
C390   C394    1.397   .     A
C391   C406    1.393   .     A
C391   C407    1.390   .     A
C392   C393    1.395   .     A
C392   H411    1.082   .     S
C392   C396    1.410   .     A
C393   H412    1.083   .     S
C394   H413    1.079   .     S
C394   C395    1.402   .     A
C395   C397    1.419   .     A
C395   C396    1.416   .     A
C396   C949    1.407   .     S
C397   C401    1.426   .     A
C397   C947    1.425   .     S
C398   C404    1.425   .     A
C398   C399    1.426   .     A
C398   C946    1.425   1_554 S
C399   C400    1.406   .     A
C399   I426    2.154   .     S
C400   N420    1.436   .     S
C400   C945    1.407   1_554 S
C401   C402    1.389   .     A
C401   I427    2.143   .     S
C402   H410    1.081   .     S
C402   C952    1.394   .     S
C403   C404    1.421   .     A
C403   C405    1.415   .     A
C403   C951    1.394   1_554 S
C404   C407    1.404   .     A
C405   C406    1.394   .     A
C405   I423    2.127   .     S
C406   H409    1.084   .     S
C407   H408    1.080   .     S
C414   C476    1.338   .     S
C414   I485    2.136   .     S
C415   C536    1.338   1_455 S
C415   H538    1.086   1_455 S
H416   C476    1.086   .     S
C417   H52     1.088   1_565 S
C417   C53     1.344   1_565 S
N420   O422    1.302   .     A
N420   O421    1.301   .     A
I424   C536    2.136   1_455 S
I425   C53     2.138   1_565 S
Zn428  O441    1.934   .     S
Zn428  O432    1.965   .     S
Zn428  O440    1.918   .     S
Zn428  O434    1.922   .     S
Zn429  O443    1.924   .     S
Zn429  O432    1.940   .     S
Zn429  O437    1.926   .     S
Zn429  O435    1.946   .     S
Zn430  O436    1.936   .     S
Zn430  O432    1.936   .     S
Zn430  O444    1.936   .     S
Zn430  O439    1.928   .     S
Zn431  O442    1.940   .     S
Zn431  O438    1.937   .     S
Zn431  O432    1.927   .     S
Zn431  O433    1.931   .     S
O433   C445    1.268   .     A
O434   C446    1.284   .     A
O435   C447    1.273   .     A
O436   C448    1.276   .     A
O437   C449    1.273   .     A
O438   C450    1.284   .     A
O439   C449    1.276   .     A
O440   C450    1.286   .     A
O441   C447    1.275   .     A
O442   C448    1.260   .     A
O443   C445    1.268   .     A
O444   C446    1.283   .     A
C445   C476    1.437   .     S
C446   C475    1.458   .     S
C447   C480    1.428   .     S
C448   C478    1.450   .     S
C449   C452    1.452   .     S
C450   C451    1.472   .     S
C451   C454    1.400   .     A
C451   C455    1.397   .     A
C452   C467    1.393   .     A
C452   C468    1.390   .     A
C453   C454    1.395   .     A
C453   H472    1.082   .     S
C453   C457    1.410   .     A
C454   H473    1.083   .     S
C455   H474    1.079   .     S
C455   C456    1.402   .     A
C456   C458    1.419   .     A
C456   C457    1.416   .     A
C457   C1010   1.407   .     S
C458   C462    1.426   .     A
C458   C1008   1.425   .     S
C459   C465    1.425   .     A
C459   C460    1.426   .     A
C459   C1007   1.425   1_554 S
C460   C461    1.406   .     A
C460   I487    2.154   .     S
C461   N481    1.436   .     S
C461   C1006   1.407   1_554 S
C462   C463    1.389   .     A
C462   I488    2.143   .     S
C463   H471    1.081   .     S
C463   C1013   1.394   .     S
C464   C465    1.421   .     A
C464   C466    1.415   .     A
C464   C1012   1.394   1_554 S
C465   C468    1.404   .     A
C466   C467    1.394   .     A
C466   I484    2.127   .     S
C467   H470    1.084   .     S
C468   H469    1.080   .     S
C475   C537    1.338   .     S
C475   I546    2.136   .     S
H477   C537    1.086   .     S
C478   H113    1.088   1_565 S
C478   C114    1.344   1_565 S
N481   O483    1.302   .     A
N481   O482    1.301   .     A
I486   C114    2.138   1_565 S
Zn489  O502    1.934   .     S
Zn489  O493    1.965   .     S
Zn489  O501    1.918   .     S
Zn489  O495    1.922   .     S
Zn490  O504    1.924   .     S
Zn490  O493    1.940   .     S
Zn490  O498    1.926   .     S
Zn490  O496    1.946   .     S
Zn491  O497    1.936   .     S
Zn491  O493    1.936   .     S
Zn491  O505    1.936   .     S
Zn491  O500    1.928   .     S
Zn492  O503    1.940   .     S
Zn492  O499    1.937   .     S
Zn492  O493    1.927   .     S
Zn492  O494    1.931   .     S
O494   C506    1.268   .     A
O495   C507    1.284   .     A
O496   C508    1.273   .     A
O497   C509    1.276   .     A
O498   C510    1.273   .     A
O499   C511    1.284   .     A
O500   C510    1.276   .     A
O501   C511    1.286   .     A
O502   C508    1.275   .     A
O503   C509    1.260   .     A
O504   C506    1.268   .     A
O505   C507    1.283   .     A
C506   C537    1.437   .     S
C507   C536    1.458   .     S
C508   C541    1.428   .     S
C509   C539    1.450   .     S
C510   C513    1.452   .     S
C511   C512    1.472   .     S
C512   C515    1.400   .     A
C512   C516    1.397   .     A
C513   C528    1.393   .     A
C513   C529    1.390   .     A
C514   C515    1.395   .     A
C514   H533    1.082   .     S
C514   C518    1.410   .     A
C515   H534    1.083   .     S
C516   H535    1.079   .     S
C516   C517    1.402   .     A
C517   C519    1.419   .     A
C517   C518    1.416   .     A
C518   C1071   1.407   .     S
C519   C523    1.426   .     A
C519   C1069   1.425   .     S
C520   C526    1.425   .     A
C520   C521    1.426   .     A
C520   C1068   1.425   1_554 S
C521   C522    1.406   .     A
C521   I548    2.154   .     S
C522   N542    1.436   .     S
C522   C1067   1.407   1_554 S
C523   C524    1.389   .     A
C523   I549    2.143   .     S
C524   H532    1.081   .     S
C524   C1074   1.394   .     S
C525   C526    1.421   .     A
C525   C527    1.415   .     A
C525   C1073   1.394   1_554 S
C526   C529    1.404   .     A
C527   C528    1.394   .     A
C527   I545    2.127   .     S
C528   H531    1.084   .     S
C529   H530    1.080   .     S
C536   C415    1.338   1_655 S
C536   I424    2.136   1_655 S
H538   C415    1.086   1_655 S
C539   H174    1.088   1_565 S
C539   C175    1.344   1_565 S
N542   O544    1.302   .     A
N542   O543    1.301   .     A
I547   C175    2.138   1_565 S
Zn550  O563    1.934   .     S
Zn550  O554    1.965   .     S
Zn550  O562    1.918   .     S
Zn550  O556    1.922   .     S
Zn551  O565    1.924   .     S
Zn551  O554    1.940   .     S
Zn551  O559    1.926   .     S
Zn551  O557    1.946   .     S
Zn552  O558    1.936   .     S
Zn552  O554    1.936   .     S
Zn552  O566    1.936   .     S
Zn552  O561    1.928   .     S
Zn553  O564    1.940   .     S
Zn553  O560    1.937   .     S
Zn553  O554    1.927   .     S
Zn553  O555    1.931   .     S
O555   C567    1.268   .     A
O556   C568    1.284   .     A
O557   C569    1.273   .     A
O558   C570    1.276   .     A
O559   C571    1.273   .     A
O560   C572    1.284   .     A
O561   C571    1.276   .     A
O562   C572    1.286   .     A
O563   C569    1.275   .     A
O564   C570    1.260   .     A
O565   C567    1.268   .     A
O566   C568    1.283   .     A
C567   C598    1.437   .     S
C568   C597    1.458   .     S
C569   C602    1.428   .     S
C570   C600    1.450   .     S
C571   C574    1.452   .     S
C572   C573    1.472   .     S
C573   C576    1.400   .     A
C573   C577    1.397   .     A
C574   C589    1.393   .     A
C574   C590    1.390   .     A
C575   C576    1.395   .     A
C575   H594    1.082   .     S
C575   C579    1.410   .     A
C576   H595    1.083   .     S
C577   H596    1.079   .     S
C577   C578    1.402   .     A
C578   C580    1.419   .     A
C578   C579    1.416   .     A
C579   C34     1.407   1_556 S
C580   C584    1.426   .     A
C580   C32     1.425   1_556 S
C581   C587    1.425   .     A
C581   C582    1.426   .     A
C582   C583    1.406   .     A
C582   I609    2.154   .     S
C583   N603    1.436   .     S
C584   C585    1.389   .     A
C584   I610    2.143   .     S
C585   H593    1.081   .     S
C585   C37     1.394   1_556 S
C586   C587    1.421   .     A
C586   C588    1.415   .     A
C587   C590    1.404   .     A
C588   C589    1.394   .     A
C588   I606    2.127   .     S
C589   H592    1.084   .     S
C590   H591    1.080   .     S
C597   C659    1.338   .     S
C597   I668    2.136   .     S
C598   C719    1.338   1_455 S
C598   H721    1.086   1_455 S
H599   C659    1.086   .     S
C600   H784    1.088   .     S
C600   C785    1.344   .     S
H601   C966    1.088   1_545 S
C602   C966    1.344   1_545 S
C602   I974    2.138   1_545 S
N603   O605    1.302   .     A
N603   O604    1.301   .     A
I607   C719    2.136   1_455 S
I608   C785    2.138   .     S
Zn611  O624    1.934   .     S
Zn611  O615    1.965   .     S
Zn611  O623    1.918   .     S
Zn611  O617    1.922   .     S
Zn612  O626    1.924   .     S
Zn612  O615    1.940   .     S
Zn612  O620    1.926   .     S
Zn612  O618    1.946   .     S
Zn613  O619    1.936   .     S
Zn613  O615    1.936   .     S
Zn613  O627    1.936   .     S
Zn613  O622    1.928   .     S
Zn614  O625    1.940   .     S
Zn614  O621    1.937   .     S
Zn614  O615    1.927   .     S
Zn614  O616    1.931   .     S
O616   C628    1.268   .     A
O617   C629    1.284   .     A
O618   C630    1.273   .     A
O619   C631    1.276   .     A
O620   C632    1.273   .     A
O621   C633    1.284   .     A
O622   C632    1.276   .     A
O623   C633    1.286   .     A
O624   C630    1.275   .     A
O625   C631    1.260   .     A
O626   C628    1.268   .     A
O627   C629    1.283   .     A
C628   C659    1.437   .     S
C629   C658    1.458   .     S
C630   C663    1.428   .     S
C631   C661    1.450   .     S
C632   C635    1.452   .     S
C633   C634    1.472   .     S
C634   C637    1.400   .     A
C634   C638    1.397   .     A
C635   C650    1.393   .     A
C635   C651    1.390   .     A
C636   C637    1.395   .     A
C636   H655    1.082   .     S
C636   C640    1.410   .     A
C637   H656    1.083   .     S
C638   H657    1.079   .     S
C638   C639    1.402   .     A
C639   C641    1.419   .     A
C639   C640    1.416   .     A
C640   C95     1.407   1_556 S
C641   C645    1.426   .     A
C641   C93     1.425   1_556 S
C642   C648    1.425   .     A
C642   C643    1.426   .     A
C643   C644    1.406   .     A
C643   I670    2.154   .     S
C644   N664    1.436   .     S
C645   C646    1.389   .     A
C645   I671    2.143   .     S
C646   H654    1.081   .     S
C646   C98     1.394   1_556 S
C647   C648    1.421   .     A
C647   C649    1.415   .     A
C648   C651    1.404   .     A
C649   C650    1.394   .     A
C649   I667    2.127   .     S
C650   H653    1.084   .     S
C651   H652    1.080   .     S
C658   C720    1.338   .     S
C658   I729    2.136   .     S
H660   C720    1.086   .     S
C661   H845    1.088   .     S
C661   C846    1.344   .     S
H662   C1027   1.088   1_545 S
C663   C1027   1.344   1_545 S
C663   I1035   2.138   1_545 S
N664   O666    1.302   .     A
N664   O665    1.301   .     A
I669   C846    2.138   .     S
Zn672  O685    1.934   .     S
Zn672  O676    1.965   .     S
Zn672  O684    1.918   .     S
Zn672  O678    1.922   .     S
Zn673  O687    1.924   .     S
Zn673  O676    1.940   .     S
Zn673  O681    1.926   .     S
Zn673  O679    1.946   .     S
Zn674  O680    1.936   .     S
Zn674  O676    1.936   .     S
Zn674  O688    1.936   .     S
Zn674  O683    1.928   .     S
Zn675  O686    1.940   .     S
Zn675  O682    1.937   .     S
Zn675  O676    1.927   .     S
Zn675  O677    1.931   .     S
O677   C689    1.268   .     A
O678   C690    1.284   .     A
O679   C691    1.273   .     A
O680   C692    1.276   .     A
O681   C693    1.273   .     A
O682   C694    1.284   .     A
O683   C693    1.276   .     A
O684   C694    1.286   .     A
O685   C691    1.275   .     A
O686   C692    1.260   .     A
O687   C689    1.268   .     A
O688   C690    1.283   .     A
C689   C720    1.437   .     S
C690   C719    1.458   .     S
C691   C724    1.428   .     S
C692   C722    1.450   .     S
C693   C696    1.452   .     S
C694   C695    1.472   .     S
C695   C698    1.400   .     A
C695   C699    1.397   .     A
C696   C711    1.393   .     A
C696   C712    1.390   .     A
C697   C698    1.395   .     A
C697   H716    1.082   .     S
C697   C701    1.410   .     A
C698   H717    1.083   .     S
C699   H718    1.079   .     S
C699   C700    1.402   .     A
C700   C702    1.419   .     A
C700   C701    1.416   .     A
C701   C156    1.407   1_556 S
C702   C706    1.426   .     A
C702   C154    1.425   1_556 S
C703   C709    1.425   .     A
C703   C704    1.426   .     A
C704   C705    1.406   .     A
C704   I731    2.154   .     S
C705   N725    1.436   .     S
C706   C707    1.389   .     A
C706   I732    2.143   .     S
C707   H715    1.081   .     S
C707   C159    1.394   1_556 S
C708   C709    1.421   .     A
C708   C710    1.415   .     A
C709   C712    1.404   .     A
C710   C711    1.394   .     A
C710   I728    2.127   .     S
C711   H714    1.084   .     S
C712   H713    1.080   .     S
C719   C598    1.338   1_655 S
C719   I607    2.136   1_655 S
H721   C598    1.086   1_655 S
C722   H906    1.088   .     S
C722   C907    1.344   .     S
H723   C1088   1.088   1_545 S
C724   C1088   1.344   1_545 S
C724   I1096   2.138   1_545 S
N725   O727    1.302   .     A
N725   O726    1.301   .     A
I730   C907    2.138   .     S
Zn733  O746    1.934   .     S
Zn733  O737    1.965   .     S
Zn733  O745    1.918   .     S
Zn733  O739    1.922   .     S
Zn734  O748    1.924   .     S
Zn734  O737    1.940   .     S
Zn734  O742    1.926   .     S
Zn734  O740    1.946   .     S
Zn735  O741    1.936   .     S
Zn735  O737    1.936   .     S
Zn735  O749    1.936   .     S
Zn735  O744    1.928   .     S
Zn736  O747    1.940   .     S
Zn736  O743    1.937   .     S
Zn736  O737    1.927   .     S
Zn736  O738    1.931   .     S
O738   C750    1.268   .     A
O739   C751    1.284   .     A
O740   C752    1.273   .     A
O741   C753    1.276   .     A
O742   C754    1.273   .     A
O743   C755    1.284   .     A
O744   C754    1.276   .     A
O745   C755    1.286   .     A
O746   C752    1.275   .     A
O747   C753    1.260   .     A
O748   C750    1.268   .     A
O749   C751    1.283   .     A
C750   C781    1.437   .     S
C751   C780    1.458   .     S
C752   C785    1.428   .     S
C753   C783    1.450   .     S
C754   C757    1.452   .     S
C755   C756    1.472   .     S
C756   C759    1.400   .     A
C756   C760    1.397   .     A
C757   C772    1.393   .     A
C757   C773    1.390   .     A
C758   C759    1.395   .     A
C758   H777    1.082   .     S
C758   C762    1.410   .     A
C759   H778    1.083   .     S
C760   H779    1.079   .     S
C760   C761    1.402   .     A
C761   C763    1.419   .     A
C761   C762    1.416   .     A
C762   C217    1.407   1_556 S
C763   C767    1.426   .     A
C763   C215    1.425   1_556 S
C764   C770    1.425   .     A
C764   C765    1.426   .     A
C765   C766    1.406   .     A
C765   I792    2.154   .     S
C766   N786    1.436   .     S
C767   C768    1.389   .     A
C767   I793    2.143   .     S
C768   H776    1.081   .     S
C768   C220    1.394   1_556 S
C769   C770    1.421   .     A
C769   C771    1.415   .     A
C770   C773    1.404   .     A
C771   C772    1.394   .     A
C771   I789    2.127   .     S
C772   H775    1.084   .     S
C773   H774    1.080   .     S
C780   C842    1.338   .     S
C780   I851    2.136   .     S
C781   C902    1.338   1_455 S
C781   H904    1.086   1_455 S
H782   C842    1.086   .     S
C783   H967    1.088   .     S
C783   C968    1.344   .     S
N786   O788    1.302   .     A
N786   O787    1.301   .     A
I790   C902    2.136   1_455 S
I791   C968    2.138   .     S
Zn794  O807    1.934   .     S
Zn794  O798    1.965   .     S
Zn794  O806    1.918   .     S
Zn794  O800    1.922   .     S
Zn795  O809    1.924   .     S
Zn795  O798    1.940   .     S
Zn795  O803    1.926   .     S
Zn795  O801    1.946   .     S
Zn796  O802    1.936   .     S
Zn796  O798    1.936   .     S
Zn796  O810    1.936   .     S
Zn796  O805    1.928   .     S
Zn797  O808    1.940   .     S
Zn797  O804    1.937   .     S
Zn797  O798    1.927   .     S
Zn797  O799    1.931   .     S
O799   C811    1.268   .     A
O800   C812    1.284   .     A
O801   C813    1.273   .     A
O802   C814    1.276   .     A
O803   C815    1.273   .     A
O804   C816    1.284   .     A
O805   C815    1.276   .     A
O806   C816    1.286   .     A
O807   C813    1.275   .     A
O808   C814    1.260   .     A
O809   C811    1.268   .     A
O810   C812    1.283   .     A
C811   C842    1.437   .     S
C812   C841    1.458   .     S
C813   C846    1.428   .     S
C814   C844    1.450   .     S
C815   C818    1.452   .     S
C816   C817    1.472   .     S
C817   C820    1.400   .     A
C817   C821    1.397   .     A
C818   C833    1.393   .     A
C818   C834    1.390   .     A
C819   C820    1.395   .     A
C819   H838    1.082   .     S
C819   C823    1.410   .     A
C820   H839    1.083   .     S
C821   H840    1.079   .     S
C821   C822    1.402   .     A
C822   C824    1.419   .     A
C822   C823    1.416   .     A
C823   C278    1.407   1_556 S
C824   C828    1.426   .     A
C824   C276    1.425   1_556 S
C825   C831    1.425   .     A
C825   C826    1.426   .     A
C826   C827    1.406   .     A
C826   I853    2.154   .     S
C827   N847    1.436   .     S
C828   C829    1.389   .     A
C828   I854    2.143   .     S
C829   H837    1.081   .     S
C829   C281    1.394   1_556 S
C830   C831    1.421   .     A
C830   C832    1.415   .     A
C831   C834    1.404   .     A
C832   C833    1.394   .     A
C832   I850    2.127   .     S
C833   H836    1.084   .     S
C834   H835    1.080   .     S
C841   C903    1.338   .     S
C841   I912    2.136   .     S
H843   C903    1.086   .     S
C844   H1028   1.088   .     S
C844   C1029   1.344   .     S
N847   O849    1.302   .     A
N847   O848    1.301   .     A
I852   C1029   2.138   .     S
Zn855  O868    1.934   .     S
Zn855  O859    1.965   .     S
Zn855  O867    1.918   .     S
Zn855  O861    1.922   .     S
Zn856  O870    1.924   .     S
Zn856  O859    1.940   .     S
Zn856  O864    1.926   .     S
Zn856  O862    1.946   .     S
Zn857  O863    1.936   .     S
Zn857  O859    1.936   .     S
Zn857  O871    1.936   .     S
Zn857  O866    1.928   .     S
Zn858  O869    1.940   .     S
Zn858  O865    1.937   .     S
Zn858  O859    1.927   .     S
Zn858  O860    1.931   .     S
O860   C872    1.268   .     A
O861   C873    1.284   .     A
O862   C874    1.273   .     A
O863   C875    1.276   .     A
O864   C876    1.273   .     A
O865   C877    1.284   .     A
O866   C876    1.276   .     A
O867   C877    1.286   .     A
O868   C874    1.275   .     A
O869   C875    1.260   .     A
O870   C872    1.268   .     A
O871   C873    1.283   .     A
C872   C903    1.437   .     S
C873   C902    1.458   .     S
C874   C907    1.428   .     S
C875   C905    1.450   .     S
C876   C879    1.452   .     S
C877   C878    1.472   .     S
C878   C881    1.400   .     A
C878   C882    1.397   .     A
C879   C894    1.393   .     A
C879   C895    1.390   .     A
C880   C881    1.395   .     A
C880   H899    1.082   .     S
C880   C884    1.410   .     A
C881   H900    1.083   .     S
C882   H901    1.079   .     S
C882   C883    1.402   .     A
C883   C885    1.419   .     A
C883   C884    1.416   .     A
C884   C339    1.407   1_556 S
C885   C889    1.426   .     A
C885   C337    1.425   1_556 S
C886   C892    1.425   .     A
C886   C887    1.426   .     A
C887   C888    1.406   .     A
C887   I914    2.154   .     S
C888   N908    1.436   .     S
C889   C890    1.389   .     A
C889   I915    2.143   .     S
C890   H898    1.081   .     S
C890   C342    1.394   1_556 S
C891   C892    1.421   .     A
C891   C893    1.415   .     A
C892   C895    1.404   .     A
C893   C894    1.394   .     A
C893   I911    2.127   .     S
C894   H897    1.084   .     S
C895   H896    1.080   .     S
C902   C781    1.338   1_655 S
C902   I790    2.136   1_655 S
H904   C781    1.086   1_655 S
C905   H1089   1.088   .     S
C905   C1090   1.344   .     S
N908   O910    1.302   .     A
N908   O909    1.301   .     A
I913   C1090   2.138   .     S
Zn916  O929    1.934   .     S
Zn916  O920    1.965   .     S
Zn916  O928    1.918   .     S
Zn916  O922    1.922   .     S
Zn917  O931    1.924   .     S
Zn917  O920    1.940   .     S
Zn917  O925    1.926   .     S
Zn917  O923    1.946   .     S
Zn918  O924    1.936   .     S
Zn918  O920    1.936   .     S
Zn918  O932    1.936   .     S
Zn918  O927    1.928   .     S
Zn919  O930    1.940   .     S
Zn919  O926    1.937   .     S
Zn919  O920    1.927   .     S
Zn919  O921    1.931   .     S
O921   C933    1.268   .     A
O922   C934    1.284   .     A
O923   C935    1.273   .     A
O924   C936    1.276   .     A
O925   C937    1.273   .     A
O926   C938    1.284   .     A
O927   C937    1.276   .     A
O928   C938    1.286   .     A
O929   C935    1.275   .     A
O930   C936    1.260   .     A
O931   C933    1.268   .     A
O932   C934    1.283   .     A
C933   C964    1.437   .     S
C934   C963    1.458   .     S
C935   C968    1.428   .     S
C936   C966    1.450   .     S
C937   C940    1.452   .     S
C938   C939    1.472   .     S
C939   C942    1.400   .     A
C939   C943    1.397   .     A
C940   C955    1.393   .     A
C940   C956    1.390   .     A
C941   C942    1.395   .     A
C941   H960    1.082   .     S
C941   C945    1.410   .     A
C942   H961    1.083   .     S
C943   H962    1.079   .     S
C943   C944    1.402   .     A
C944   C946    1.419   .     A
C944   C945    1.416   .     A
C945   C400    1.407   1_556 S
C946   C950    1.426   .     A
C946   C398    1.425   1_556 S
C947   C953    1.425   .     A
C947   C948    1.426   .     A
C948   C949    1.406   .     A
C948   I975    2.154   .     S
C949   N969    1.436   .     S
C950   C951    1.389   .     A
C950   I976    2.143   .     S
C951   H959    1.081   .     S
C951   C403    1.394   1_556 S
C952   C953    1.421   .     A
C952   C954    1.415   .     A
C953   C956    1.404   .     A
C954   C955    1.394   .     A
C954   I972    2.127   .     S
C955   H958    1.084   .     S
C956   H957    1.080   .     S
C963   C1025   1.338   .     S
C963   I1034   2.136   .     S
C964   C1085   1.338   1_455 S
C964   H1087   1.086   1_455 S
H965   C1025   1.086   .     S
C966   H601    1.088   1_565 S
C966   C602    1.344   1_565 S
N969   O971    1.302   .     A
N969   O970    1.301   .     A
I973   C1085   2.136   1_455 S
I974   C602    2.138   1_565 S
Zn977  O990    1.934   .     S
Zn977  O981    1.965   .     S
Zn977  O989    1.918   .     S
Zn977  O983    1.922   .     S
Zn978  O992    1.924   .     S
Zn978  O981    1.940   .     S
Zn978  O986    1.926   .     S
Zn978  O984    1.946   .     S
Zn979  O985    1.936   .     S
Zn979  O981    1.936   .     S
Zn979  O993    1.936   .     S
Zn979  O988    1.928   .     S
Zn980  O991    1.940   .     S
Zn980  O987    1.937   .     S
Zn980  O981    1.927   .     S
Zn980  O982    1.931   .     S
O982   C994    1.268   .     A
O983   C995    1.284   .     A
O984   C996    1.273   .     A
O985   C997    1.276   .     A
O986   C998    1.273   .     A
O987   C999    1.284   .     A
O988   C998    1.276   .     A
O989   C999    1.286   .     A
O990   C996    1.275   .     A
O991   C997    1.260   .     A
O992   C994    1.268   .     A
O993   C995    1.283   .     A
C994   C1025   1.437   .     S
C995   C1024   1.458   .     S
C996   C1029   1.428   .     S
C997   C1027   1.450   .     S
C998   C1001   1.452   .     S
C999   C1000   1.472   .     S
C1000  C1003   1.400   .     A
C1000  C1004   1.397   .     A
C1001  C1016   1.393   .     A
C1001  C1017   1.390   .     A
C1002  C1003   1.395   .     A
C1002  H1021   1.082   .     S
C1002  C1006   1.410   .     A
C1003  H1022   1.083   .     S
C1004  H1023   1.079   .     S
C1004  C1005   1.402   .     A
C1005  C1007   1.419   .     A
C1005  C1006   1.416   .     A
C1006  C461    1.407   1_556 S
C1007  C1011   1.426   .     A
C1007  C459    1.425   1_556 S
C1008  C1014   1.425   .     A
C1008  C1009   1.426   .     A
C1009  C1010   1.406   .     A
C1009  I1036   2.154   .     S
C1010  N1030   1.436   .     S
C1011  C1012   1.389   .     A
C1011  I1037   2.143   .     S
C1012  H1020   1.081   .     S
C1012  C464    1.394   1_556 S
C1013  C1014   1.421   .     A
C1013  C1015   1.415   .     A
C1014  C1017   1.404   .     A
C1015  C1016   1.394   .     A
C1015  I1033   2.127   .     S
C1016  H1019   1.084   .     S
C1017  H1018   1.080   .     S
C1024  C1086   1.338   .     S
C1024  I1095   2.136   .     S
H1026  C1086   1.086   .     S
C1027  H662    1.088   1_565 S
C1027  C663    1.344   1_565 S
N1030  O1032   1.302   .     A
N1030  O1031   1.301   .     A
I1035  C663    2.138   1_565 S
Zn1038 O1051   1.934   .     S
Zn1038 O1042   1.965   .     S
Zn1038 O1050   1.918   .     S
Zn1038 O1044   1.922   .     S
Zn1039 O1053   1.924   .     S
Zn1039 O1042   1.940   .     S
Zn1039 O1047   1.926   .     S
Zn1039 O1045   1.946   .     S
Zn1040 O1046   1.936   .     S
Zn1040 O1042   1.936   .     S
Zn1040 O1054   1.936   .     S
Zn1040 O1049   1.928   .     S
Zn1041 O1052   1.940   .     S
Zn1041 O1048   1.937   .     S
Zn1041 O1042   1.927   .     S
Zn1041 O1043   1.931   .     S
O1043  C1055   1.268   .     A
O1044  C1056   1.284   .     A
O1045  C1057   1.273   .     A
O1046  C1058   1.276   .     A
O1047  C1059   1.273   .     A
O1048  C1060   1.284   .     A
O1049  C1059   1.276   .     A
O1050  C1060   1.286   .     A
O1051  C1057   1.275   .     A
O1052  C1058   1.260   .     A
O1053  C1055   1.268   .     A
O1054  C1056   1.283   .     A
C1055  C1086   1.437   .     S
C1056  C1085   1.458   .     S
C1057  C1090   1.428   .     S
C1058  C1088   1.450   .     S
C1059  C1062   1.452   .     S
C1060  C1061   1.472   .     S
C1061  C1064   1.400   .     A
C1061  C1065   1.397   .     A
C1062  C1077   1.393   .     A
C1062  C1078   1.390   .     A
C1063  C1064   1.395   .     A
C1063  H1082   1.082   .     S
C1063  C1067   1.410   .     A
C1064  H1083   1.083   .     S
C1065  H1084   1.079   .     S
C1065  C1066   1.402   .     A
C1066  C1068   1.419   .     A
C1066  C1067   1.416   .     A
C1067  C522    1.407   1_556 S
C1068  C1072   1.426   .     A
C1068  C520    1.425   1_556 S
C1069  C1075   1.425   .     A
C1069  C1070   1.426   .     A
C1070  C1071   1.406   .     A
C1070  I1097   2.154   .     S
C1071  N1091   1.436   .     S
C1072  C1073   1.389   .     A
C1072  I1098   2.143   .     S
C1073  H1081   1.081   .     S
C1073  C525    1.394   1_556 S
C1074  C1075   1.421   .     A
C1074  C1076   1.415   .     A
C1075  C1078   1.404   .     A
C1076  C1077   1.394   .     A
C1076  I1094   2.127   .     S
C1077  H1080   1.084   .     S
C1078  H1079   1.080   .     S
C1085  C964    1.338   1_655 S
C1085  I973    2.136   1_655 S
H1087  C964    1.086   1_655 S
C1088  H723    1.088   1_565 S
C1088  C724    1.344   1_565 S
N1091  O1093   1.302   .     A
N1091  O1092   1.301   .     A
I1096  C724    2.138   1_565 S
