data_str_m3_o2_o10_pcu_sym.203
_audit_creation_date              2020-01-03
_audit_creation_method            'Materials Studio'
_symmetry_space_group_name_H-M    'P1'
_symmetry_Int_Tables_number       1
_symmetry_cell_setting            triclinic
loop_
_symmetry_equiv_pos_as_xyz
  x,y,z
_cell_length_a                    25.7048
_cell_length_b                    29.8816
_cell_length_c                    28.5417
_cell_angle_alpha                 90.2639
_cell_angle_beta                  98.7623
_cell_angle_gamma                 91.3540
loop_
_atom_site_label
_atom_site_type_symbol
_atom_site_fract_x
_atom_site_fract_y
_atom_site_fract_z
_atom_site_U_iso_or_equiv
_atom_site_adp_type
_atom_site_occupancy
C1     C     0.16676   0.16407   0.24997   0.00000  Uiso   1.00
C2     C     0.16679   0.33619   0.25007   0.00000  Uiso   1.00
C3     C     0.12202   0.23405   0.04622   0.00000  Uiso   1.00
C4     C     0.18935   0.28626   0.45074   0.00000  Uiso   1.00
C5     C     0.12538   0.23046   0.09593   0.00000  Uiso   1.00
C6     C     0.19327   0.28317   0.40204   0.00000  Uiso   1.00
C7     C     0.20819   0.26864   0.10763   0.00000  Uiso   1.00
C8     C     0.14023   0.21679   0.39388   0.00000  Uiso   1.00
C9     C     0.20912   0.26695   0.05817   0.00000  Uiso   1.00
C10    C     0.14217   0.21555   0.44382   0.00000  Uiso   1.00
C11    C     0.16537   0.25087   0.02633   0.00000  Uiso   1.00
C12    C     0.16545   0.25100   0.47308   0.00000  Uiso   1.00
C13    C     0.06709   0.24994   0.23758   0.00000  Uiso   1.00
C14    C     0.26626   0.25039   0.26243   0.00000  Uiso   1.00
C15    C     0.01199   0.24895   0.23099   0.00000  Uiso   1.00
C16    C     0.32139   0.25195   0.26902   0.00000  Uiso   1.00
C17    C     0.21062   0.05024   0.28483   0.00000  Uiso   1.00
C18    C     0.19167   0.45297   0.21307   0.00000  Uiso   1.00
C19    C     0.20626   0.09631   0.28472   0.00000  Uiso   1.00
C20    C     0.18659   0.40685   0.21238   0.00000  Uiso   1.00
C21    C     0.16972   0.11644   0.25047   0.00000  Uiso   1.00
C22    C     0.16940   0.38443   0.25039   0.00000  Uiso   1.00
C23    C     0.13677   0.09111   0.21655   0.00000  Uiso   1.00
C24    C     0.15615   0.40828   0.28898   0.00000  Uiso   1.00
C25    C     0.13976   0.04508   0.21735   0.00000  Uiso   1.00
C26    C     0.15965   0.45448   0.28924   0.00000  Uiso   1.00
C27    C     0.17686   0.02475   0.25106   0.00000  Uiso   1.00
C28    C     0.17761   0.47670   0.25155   0.00000  Uiso   1.00
H29    H     0.32469   0.24493   0.19503   0.00000  Uiso   1.00
H30    H     0.00880   0.25593   0.30498   0.00000  Uiso   1.00
H31    H     0.23202   0.11647   0.31056   0.00000  Uiso   1.00
H32    H     0.19661   0.38868   0.18232   0.00000  Uiso   1.00
H33    H     0.10826   0.10685   0.19029   0.00000  Uiso   1.00
H34    H     0.14240   0.39133   0.31843   0.00000  Uiso   1.00
H35    H     0.11328   0.02520   0.19177   0.00000  Uiso   1.00
H36    H     0.14797   0.47301   0.31851   0.00000  Uiso   1.00
H37    H     0.24462   0.27746   0.04499   0.00000  Uiso   1.00
H38    H     0.12625   0.18647   0.45958   0.00000  Uiso   1.00
N39    N     0.16667   0.24999   0.12624   0.00000  Uiso   1.00
N40    N     0.16667   0.25001   0.37377   0.00000  Uiso   1.00
O41    O     0.16667   0.18454   0.28974   0.00000  Uiso   1.00
O42    O     0.16666   0.31547   0.21026   0.00000  Uiso   1.00
O43    O     0.16667   0.18453   0.21026   0.00000  Uiso   1.00
O44    O     0.16666   0.31547   0.28974   0.00000  Uiso   1.00
O45    O     0.09058   0.25000   0.28045   0.00000  Uiso   1.00
O46    O     0.24275   0.25000   0.21956   0.00000  Uiso   1.00
O47    O     0.09058   0.25000   0.20097   0.00000  Uiso   1.00
O48    O     0.24275   0.25001   0.29904   0.00000  Uiso   1.00
Zn49   Zn    0.16667   0.25001   0.30307   0.00000  Uiso   1.00
Zn50   Zn    0.16667   0.25000   0.19693   0.00000  Uiso   1.00
I51    I     0.26987   0.02174   0.33509   0.00000  Uiso   1.00
I52    I     0.22199   0.48425   0.15584   0.00000  Uiso   1.00
O53    O     0.07683   0.21883   0.01748   0.00000  Uiso   1.00
C54    C     0.04344   0.25541   0.00674   0.00000  Uiso   1.00
H55    H     0.06184   0.28079   0.48550   0.00000  Uiso   1.00
H56    H     0.03415   0.27152   0.03968   0.00000  Uiso   1.00
C57    C     0.32535   0.23886   0.47774   0.00000  Uiso   1.00
H58    H     0.30512   0.21447   0.49853   0.00000  Uiso   1.00
H59    H     0.29937   0.26760   0.46853   0.00000  Uiso   1.00
H60    H     0.33305   0.22255   0.44453   0.00000  Uiso   1.00
O61    O     0.21176   0.32301   0.47647   0.00000  Uiso   1.00
C62    C     0.17240   0.35485   0.47832   0.00000  Uiso   1.00
H63    H     0.14293   0.34235   0.00029   0.00000  Uiso   1.00
H64    H     0.15191   0.36297   0.44215   0.00000  Uiso   1.00
C65    C     0.19782   0.39783   0.00076   0.00000  Uiso   1.00
H66    H     0.22648   0.41166   0.47884   0.00000  Uiso   1.00
H67    H     0.16714   0.42293   0.00319   0.00000  Uiso   1.00
H68    H     0.21869   0.39115   0.03692   0.00000  Uiso   1.00
I69    I     0.06760   0.18760   0.11958   0.00000  Uiso   1.00
I70    I     0.24701   0.32908   0.37691   0.00000  Uiso   1.00
O71    O     0.25245   0.28335   0.13787   0.00000  Uiso   1.00
C72    C     0.26250   0.32962   0.13233   0.00000  Uiso   1.00
H73    H     0.26606   0.34553   0.16790   0.00000  Uiso   1.00
H74    H     0.23087   0.34729   0.10886   0.00000  Uiso   1.00
C75    C     0.31504   0.33697   0.11464   0.00000  Uiso   1.00
H76    H     0.31276   0.32446   0.07776   0.00000  Uiso   1.00
H77    H     0.32527   0.37330   0.11526   0.00000  Uiso   1.00
H78    H     0.01326   0.31927   0.13780   0.00000  Uiso   1.00
O79    O     0.11681   0.18210   0.36529   0.00000  Uiso   1.00
C80    C     0.06325   0.17656   0.37045   0.00000  Uiso   1.00
H81    H     0.04325   0.20928   0.37009   0.00000  Uiso   1.00
H82    H     0.05938   0.15881   0.40393   0.00000  Uiso   1.00
C83    C     0.03526   0.14814   0.32943   0.00000  Uiso   1.00
H84    H     0.05265   0.11443   0.33013   0.00000  Uiso   1.00
H85    H     0.32615   0.14443   0.33239   0.00000  Uiso   1.00
H86    H     0.03926   0.16425   0.29515   0.00000  Uiso   1.00
C87    C     0.50009   0.16407   0.24997   0.00000  Uiso   1.00
C88    C     0.50012   0.33619   0.25007   0.00000  Uiso   1.00
C89    C     0.45536   0.23405   0.04622   0.00000  Uiso   1.00
C90    C     0.52268   0.28626   0.45074   0.00000  Uiso   1.00
C91    C     0.45871   0.23046   0.09593   0.00000  Uiso   1.00
C92    C     0.52661   0.28317   0.40204   0.00000  Uiso   1.00
C93    C     0.54152   0.26864   0.10763   0.00000  Uiso   1.00
C94    C     0.47356   0.21679   0.39388   0.00000  Uiso   1.00
C95    C     0.54246   0.26695   0.05817   0.00000  Uiso   1.00
C96    C     0.47550   0.21555   0.44382   0.00000  Uiso   1.00
C97    C     0.49871   0.25087   0.02633   0.00000  Uiso   1.00
C98    C     0.49879   0.25100   0.47308   0.00000  Uiso   1.00
C99    C     0.40042   0.24994   0.23758   0.00000  Uiso   1.00
C100   C     0.59960   0.25039   0.26243   0.00000  Uiso   1.00
C101   C     0.34532   0.24895   0.23099   0.00000  Uiso   1.00
C102   C     0.65472   0.25195   0.26902   0.00000  Uiso   1.00
C103   C     0.54395   0.05024   0.28483   0.00000  Uiso   1.00
C104   C     0.52501   0.45297   0.21307   0.00000  Uiso   1.00
C105   C     0.53959   0.09631   0.28472   0.00000  Uiso   1.00
C106   C     0.51993   0.40685   0.21238   0.00000  Uiso   1.00
C107   C     0.50305   0.11644   0.25047   0.00000  Uiso   1.00
C108   C     0.50273   0.38443   0.25039   0.00000  Uiso   1.00
C109   C     0.47011   0.09111   0.21655   0.00000  Uiso   1.00
C110   C     0.48948   0.40828   0.28898   0.00000  Uiso   1.00
C111   C     0.47309   0.04508   0.21735   0.00000  Uiso   1.00
C112   C     0.49299   0.45448   0.28924   0.00000  Uiso   1.00
C113   C     0.51020   0.02475   0.25106   0.00000  Uiso   1.00
C114   C     0.51094   0.47670   0.25155   0.00000  Uiso   1.00
H115   H     0.65802   0.24493   0.19503   0.00000  Uiso   1.00
H116   H     0.34213   0.25593   0.30498   0.00000  Uiso   1.00
H117   H     0.56535   0.11647   0.31056   0.00000  Uiso   1.00
H118   H     0.52994   0.38868   0.18232   0.00000  Uiso   1.00
H119   H     0.44159   0.10685   0.19029   0.00000  Uiso   1.00
H120   H     0.47574   0.39133   0.31843   0.00000  Uiso   1.00
H121   H     0.44661   0.02520   0.19177   0.00000  Uiso   1.00
H122   H     0.48130   0.47301   0.31851   0.00000  Uiso   1.00
H123   H     0.57795   0.27746   0.04499   0.00000  Uiso   1.00
H124   H     0.45958   0.18647   0.45958   0.00000  Uiso   1.00
N125   N     0.50000   0.24999   0.12624   0.00000  Uiso   1.00
N126   N     0.50000   0.25001   0.37377   0.00000  Uiso   1.00
O127   O     0.50000   0.18454   0.28974   0.00000  Uiso   1.00
O128   O     0.50000   0.31547   0.21026   0.00000  Uiso   1.00
O129   O     0.50000   0.18453   0.21026   0.00000  Uiso   1.00
O130   O     0.50000   0.31547   0.28974   0.00000  Uiso   1.00
O131   O     0.42392   0.25000   0.28045   0.00000  Uiso   1.00
O132   O     0.57608   0.25000   0.21956   0.00000  Uiso   1.00
O133   O     0.42392   0.25000   0.20097   0.00000  Uiso   1.00
O134   O     0.57608   0.25001   0.29904   0.00000  Uiso   1.00
Zn135  Zn    0.50000   0.25001   0.30307   0.00000  Uiso   1.00
Zn136  Zn    0.50000   0.25000   0.19693   0.00000  Uiso   1.00
I137   I     0.60320   0.02174   0.33509   0.00000  Uiso   1.00
I138   I     0.55532   0.48425   0.15584   0.00000  Uiso   1.00
O139   O     0.41016   0.21883   0.01748   0.00000  Uiso   1.00
C140   C     0.37678   0.25541   0.00674   0.00000  Uiso   1.00
H141   H     0.39517   0.28079   0.48550   0.00000  Uiso   1.00
H142   H     0.36748   0.27152   0.03968   0.00000  Uiso   1.00
C143   C     0.65868   0.23886   0.47774   0.00000  Uiso   1.00
H144   H     0.63846   0.21447   0.49853   0.00000  Uiso   1.00
H145   H     0.63271   0.26760   0.46853   0.00000  Uiso   1.00
H146   H     0.66638   0.22255   0.44453   0.00000  Uiso   1.00
O147   O     0.54509   0.32301   0.47647   0.00000  Uiso   1.00
C148   C     0.50573   0.35485   0.47832   0.00000  Uiso   1.00
H149   H     0.47626   0.34235   0.00029   0.00000  Uiso   1.00
H150   H     0.48524   0.36297   0.44215   0.00000  Uiso   1.00
C151   C     0.53115   0.39783   0.00076   0.00000  Uiso   1.00
H152   H     0.55981   0.41166   0.47884   0.00000  Uiso   1.00
H153   H     0.50048   0.42293   0.00319   0.00000  Uiso   1.00
H154   H     0.55203   0.39115   0.03692   0.00000  Uiso   1.00
I155   I     0.40094   0.18760   0.11958   0.00000  Uiso   1.00
I156   I     0.58035   0.32908   0.37691   0.00000  Uiso   1.00
O157   O     0.58578   0.28335   0.13787   0.00000  Uiso   1.00
C158   C     0.59583   0.32962   0.13233   0.00000  Uiso   1.00
H159   H     0.59940   0.34553   0.16790   0.00000  Uiso   1.00
H160   H     0.56420   0.34729   0.10886   0.00000  Uiso   1.00
C161   C     0.64837   0.33697   0.11464   0.00000  Uiso   1.00
H162   H     0.64610   0.32446   0.07776   0.00000  Uiso   1.00
H163   H     0.65860   0.37330   0.11526   0.00000  Uiso   1.00
H164   H     0.34659   0.31927   0.13780   0.00000  Uiso   1.00
O165   O     0.45015   0.18210   0.36529   0.00000  Uiso   1.00
C166   C     0.39659   0.17656   0.37045   0.00000  Uiso   1.00
H167   H     0.37659   0.20928   0.37009   0.00000  Uiso   1.00
H168   H     0.39271   0.15881   0.40393   0.00000  Uiso   1.00
C169   C     0.36859   0.14814   0.32943   0.00000  Uiso   1.00
H170   H     0.38599   0.11443   0.33013   0.00000  Uiso   1.00
H171   H     0.65949   0.14443   0.33239   0.00000  Uiso   1.00
H172   H     0.37260   0.16425   0.29515   0.00000  Uiso   1.00
C173   C     0.83342   0.16407   0.24997   0.00000  Uiso   1.00
C174   C     0.83345   0.33619   0.25007   0.00000  Uiso   1.00
C175   C     0.78869   0.23405   0.04622   0.00000  Uiso   1.00
C176   C     0.85602   0.28626   0.45074   0.00000  Uiso   1.00
C177   C     0.79204   0.23046   0.09593   0.00000  Uiso   1.00
C178   C     0.85994   0.28317   0.40204   0.00000  Uiso   1.00
C179   C     0.87485   0.26864   0.10763   0.00000  Uiso   1.00
C180   C     0.80689   0.21679   0.39388   0.00000  Uiso   1.00
C181   C     0.87579   0.26695   0.05817   0.00000  Uiso   1.00
C182   C     0.80883   0.21555   0.44382   0.00000  Uiso   1.00
C183   C     0.83204   0.25087   0.02633   0.00000  Uiso   1.00
C184   C     0.83212   0.25100   0.47308   0.00000  Uiso   1.00
C185   C     0.73376   0.24994   0.23758   0.00000  Uiso   1.00
C186   C     0.93293   0.25039   0.26243   0.00000  Uiso   1.00
C187   C     0.67866   0.24895   0.23099   0.00000  Uiso   1.00
C188   C     0.98806   0.25195   0.26902   0.00000  Uiso   1.00
C189   C     0.87728   0.05024   0.28483   0.00000  Uiso   1.00
C190   C     0.85834   0.45297   0.21307   0.00000  Uiso   1.00
C191   C     0.87292   0.09631   0.28472   0.00000  Uiso   1.00
C192   C     0.85326   0.40685   0.21238   0.00000  Uiso   1.00
C193   C     0.83639   0.11644   0.25047   0.00000  Uiso   1.00
C194   C     0.83606   0.38443   0.25039   0.00000  Uiso   1.00
C195   C     0.80344   0.09111   0.21655   0.00000  Uiso   1.00
C196   C     0.82281   0.40828   0.28898   0.00000  Uiso   1.00
C197   C     0.80642   0.04508   0.21735   0.00000  Uiso   1.00
C198   C     0.82632   0.45448   0.28924   0.00000  Uiso   1.00
C199   C     0.84353   0.02475   0.25106   0.00000  Uiso   1.00
C200   C     0.84428   0.47670   0.25155   0.00000  Uiso   1.00
H201   H     0.99135   0.24493   0.19503   0.00000  Uiso   1.00
H202   H     0.67546   0.25593   0.30498   0.00000  Uiso   1.00
H203   H     0.89868   0.11647   0.31056   0.00000  Uiso   1.00
H204   H     0.86328   0.38868   0.18232   0.00000  Uiso   1.00
H205   H     0.77493   0.10685   0.19029   0.00000  Uiso   1.00
H206   H     0.80907   0.39133   0.31843   0.00000  Uiso   1.00
H207   H     0.77994   0.02520   0.19177   0.00000  Uiso   1.00
H208   H     0.81464   0.47301   0.31851   0.00000  Uiso   1.00
H209   H     0.91129   0.27746   0.04499   0.00000  Uiso   1.00
H210   H     0.79292   0.18647   0.45958   0.00000  Uiso   1.00
N211   N     0.83333   0.24999   0.12624   0.00000  Uiso   1.00
N212   N     0.83333   0.25001   0.37377   0.00000  Uiso   1.00
O213   O     0.83334   0.18454   0.28974   0.00000  Uiso   1.00
O214   O     0.83333   0.31547   0.21026   0.00000  Uiso   1.00
O215   O     0.83334   0.18453   0.21026   0.00000  Uiso   1.00
O216   O     0.83333   0.31547   0.28974   0.00000  Uiso   1.00
O217   O     0.75725   0.25000   0.28045   0.00000  Uiso   1.00
O218   O     0.90942   0.25000   0.21956   0.00000  Uiso   1.00
O219   O     0.75725   0.25000   0.20097   0.00000  Uiso   1.00
O220   O     0.90942   0.25001   0.29904   0.00000  Uiso   1.00
Zn221  Zn    0.83333   0.25001   0.30307   0.00000  Uiso   1.00
Zn222  Zn    0.83333   0.25000   0.19693   0.00000  Uiso   1.00
I223   I     0.93654   0.02174   0.33509   0.00000  Uiso   1.00
I224   I     0.88866   0.48425   0.15584   0.00000  Uiso   1.00
O225   O     0.74349   0.21883   0.01748   0.00000  Uiso   1.00
C226   C     0.71011   0.25541   0.00674   0.00000  Uiso   1.00
H227   H     0.72851   0.28079   0.48550   0.00000  Uiso   1.00
H228   H     0.70082   0.27152   0.03968   0.00000  Uiso   1.00
C229   C     0.99202   0.23886   0.47774   0.00000  Uiso   1.00
H230   H     0.97179   0.21447   0.49853   0.00000  Uiso   1.00
H231   H     0.96604   0.26760   0.46853   0.00000  Uiso   1.00
H232   H     0.99972   0.22255   0.44453   0.00000  Uiso   1.00
O233   O     0.87842   0.32301   0.47647   0.00000  Uiso   1.00
C234   C     0.83906   0.35485   0.47832   0.00000  Uiso   1.00
H235   H     0.80959   0.34235   0.00029   0.00000  Uiso   1.00
H236   H     0.81858   0.36297   0.44215   0.00000  Uiso   1.00
C237   C     0.86448   0.39783   0.00076   0.00000  Uiso   1.00
H238   H     0.89315   0.41166   0.47884   0.00000  Uiso   1.00
H239   H     0.83381   0.42293   0.00319   0.00000  Uiso   1.00
H240   H     0.88536   0.39115   0.03692   0.00000  Uiso   1.00
I241   I     0.73427   0.18760   0.11958   0.00000  Uiso   1.00
I242   I     0.91368   0.32908   0.37691   0.00000  Uiso   1.00
O243   O     0.91912   0.28335   0.13787   0.00000  Uiso   1.00
C244   C     0.92916   0.32962   0.13233   0.00000  Uiso   1.00
H245   H     0.93273   0.34553   0.16790   0.00000  Uiso   1.00
H246   H     0.89754   0.34729   0.10886   0.00000  Uiso   1.00
C247   C     0.98171   0.33697   0.11464   0.00000  Uiso   1.00
H248   H     0.97943   0.32446   0.07776   0.00000  Uiso   1.00
H249   H     0.99194   0.37330   0.11526   0.00000  Uiso   1.00
H250   H     0.67993   0.31927   0.13780   0.00000  Uiso   1.00
O251   O     0.78348   0.18210   0.36529   0.00000  Uiso   1.00
C252   C     0.72992   0.17656   0.37045   0.00000  Uiso   1.00
H253   H     0.70992   0.20928   0.37009   0.00000  Uiso   1.00
H254   H     0.72604   0.15881   0.40393   0.00000  Uiso   1.00
C255   C     0.70193   0.14814   0.32943   0.00000  Uiso   1.00
H256   H     0.71932   0.11443   0.33013   0.00000  Uiso   1.00
H257   H     0.99282   0.14443   0.33239   0.00000  Uiso   1.00
H258   H     0.70593   0.16425   0.29515   0.00000  Uiso   1.00
C259   C     0.16676   0.66407   0.24997   0.00000  Uiso   1.00
C260   C     0.16679   0.83619   0.25007   0.00000  Uiso   1.00
C261   C     0.12202   0.73405   0.04622   0.00000  Uiso   1.00
C262   C     0.18935   0.78626   0.45074   0.00000  Uiso   1.00
C263   C     0.12538   0.73046   0.09593   0.00000  Uiso   1.00
C264   C     0.19327   0.78317   0.40204   0.00000  Uiso   1.00
C265   C     0.20819   0.76864   0.10763   0.00000  Uiso   1.00
C266   C     0.14023   0.71679   0.39388   0.00000  Uiso   1.00
C267   C     0.20912   0.76695   0.05817   0.00000  Uiso   1.00
C268   C     0.14217   0.71555   0.44382   0.00000  Uiso   1.00
C269   C     0.16537   0.75087   0.02633   0.00000  Uiso   1.00
C270   C     0.16545   0.75100   0.47308   0.00000  Uiso   1.00
C271   C     0.06709   0.74994   0.23758   0.00000  Uiso   1.00
C272   C     0.26626   0.75039   0.26243   0.00000  Uiso   1.00
C273   C     0.01199   0.74895   0.23099   0.00000  Uiso   1.00
C274   C     0.32139   0.75195   0.26902   0.00000  Uiso   1.00
C275   C     0.21062   0.55024   0.28483   0.00000  Uiso   1.00
C276   C     0.19167   0.95297   0.21307   0.00000  Uiso   1.00
C277   C     0.20626   0.59631   0.28472   0.00000  Uiso   1.00
C278   C     0.18659   0.90685   0.21238   0.00000  Uiso   1.00
C279   C     0.16972   0.61644   0.25047   0.00000  Uiso   1.00
C280   C     0.16940   0.88443   0.25039   0.00000  Uiso   1.00
C281   C     0.13677   0.59111   0.21655   0.00000  Uiso   1.00
C282   C     0.15615   0.90828   0.28898   0.00000  Uiso   1.00
C283   C     0.13976   0.54508   0.21735   0.00000  Uiso   1.00
C284   C     0.15965   0.95448   0.28924   0.00000  Uiso   1.00
C285   C     0.17686   0.52475   0.25106   0.00000  Uiso   1.00
C286   C     0.17761   0.97670   0.25155   0.00000  Uiso   1.00
H287   H     0.32469   0.74493   0.19503   0.00000  Uiso   1.00
H288   H     0.00880   0.75593   0.30498   0.00000  Uiso   1.00
H289   H     0.23202   0.61647   0.31056   0.00000  Uiso   1.00
H290   H     0.19661   0.88868   0.18232   0.00000  Uiso   1.00
H291   H     0.10826   0.60685   0.19029   0.00000  Uiso   1.00
H292   H     0.14240   0.89133   0.31843   0.00000  Uiso   1.00
H293   H     0.11328   0.52520   0.19177   0.00000  Uiso   1.00
H294   H     0.14797   0.97301   0.31851   0.00000  Uiso   1.00
H295   H     0.24462   0.77746   0.04499   0.00000  Uiso   1.00
H296   H     0.12625   0.68647   0.45958   0.00000  Uiso   1.00
N297   N     0.16667   0.74999   0.12624   0.00000  Uiso   1.00
N298   N     0.16667   0.75001   0.37377   0.00000  Uiso   1.00
O299   O     0.16667   0.68454   0.28974   0.00000  Uiso   1.00
O300   O     0.16666   0.81547   0.21026   0.00000  Uiso   1.00
O301   O     0.16667   0.68453   0.21026   0.00000  Uiso   1.00
O302   O     0.16666   0.81547   0.28974   0.00000  Uiso   1.00
O303   O     0.09058   0.75000   0.28045   0.00000  Uiso   1.00
O304   O     0.24275   0.75000   0.21956   0.00000  Uiso   1.00
O305   O     0.09058   0.75000   0.20097   0.00000  Uiso   1.00
O306   O     0.24275   0.75001   0.29904   0.00000  Uiso   1.00
Zn307  Zn    0.16667   0.75001   0.30307   0.00000  Uiso   1.00
Zn308  Zn    0.16667   0.75000   0.19693   0.00000  Uiso   1.00
I309   I     0.26987   0.52174   0.33509   0.00000  Uiso   1.00
I310   I     0.22199   0.98425   0.15584   0.00000  Uiso   1.00
O311   O     0.07683   0.71883   0.01748   0.00000  Uiso   1.00
C312   C     0.04344   0.75541   0.00674   0.00000  Uiso   1.00
H313   H     0.06184   0.78079   0.48550   0.00000  Uiso   1.00
H314   H     0.03415   0.77152   0.03968   0.00000  Uiso   1.00
C315   C     0.32535   0.73886   0.47774   0.00000  Uiso   1.00
H316   H     0.30512   0.71447   0.49853   0.00000  Uiso   1.00
H317   H     0.29937   0.76760   0.46853   0.00000  Uiso   1.00
H318   H     0.33305   0.72255   0.44453   0.00000  Uiso   1.00
O319   O     0.21176   0.82301   0.47647   0.00000  Uiso   1.00
C320   C     0.17240   0.85485   0.47832   0.00000  Uiso   1.00
H321   H     0.14293   0.84235   0.00029   0.00000  Uiso   1.00
H322   H     0.15191   0.86297   0.44215   0.00000  Uiso   1.00
C323   C     0.19782   0.89783   0.00076   0.00000  Uiso   1.00
H324   H     0.22648   0.91166   0.47884   0.00000  Uiso   1.00
H325   H     0.16714   0.92293   0.00319   0.00000  Uiso   1.00
H326   H     0.21869   0.89115   0.03692   0.00000  Uiso   1.00
I327   I     0.06760   0.68760   0.11958   0.00000  Uiso   1.00
I328   I     0.24701   0.82908   0.37691   0.00000  Uiso   1.00
O329   O     0.25245   0.78335   0.13787   0.00000  Uiso   1.00
C330   C     0.26250   0.82962   0.13233   0.00000  Uiso   1.00
H331   H     0.26606   0.84553   0.16790   0.00000  Uiso   1.00
H332   H     0.23087   0.84729   0.10886   0.00000  Uiso   1.00
C333   C     0.31504   0.83697   0.11464   0.00000  Uiso   1.00
H334   H     0.31276   0.82446   0.07776   0.00000  Uiso   1.00
H335   H     0.32527   0.87330   0.11526   0.00000  Uiso   1.00
H336   H     0.01326   0.81927   0.13780   0.00000  Uiso   1.00
O337   O     0.11681   0.68210   0.36529   0.00000  Uiso   1.00
C338   C     0.06325   0.67656   0.37045   0.00000  Uiso   1.00
H339   H     0.04325   0.70928   0.37009   0.00000  Uiso   1.00
H340   H     0.05938   0.65881   0.40393   0.00000  Uiso   1.00
C341   C     0.03526   0.64814   0.32943   0.00000  Uiso   1.00
H342   H     0.05265   0.61443   0.33013   0.00000  Uiso   1.00
H343   H     0.32615   0.64443   0.33239   0.00000  Uiso   1.00
H344   H     0.03926   0.66425   0.29515   0.00000  Uiso   1.00
C345   C     0.50009   0.66407   0.24997   0.00000  Uiso   1.00
C346   C     0.50012   0.83619   0.25007   0.00000  Uiso   1.00
C347   C     0.45536   0.73405   0.04622   0.00000  Uiso   1.00
C348   C     0.52268   0.78626   0.45074   0.00000  Uiso   1.00
C349   C     0.45871   0.73046   0.09593   0.00000  Uiso   1.00
C350   C     0.52661   0.78317   0.40204   0.00000  Uiso   1.00
C351   C     0.54152   0.76864   0.10763   0.00000  Uiso   1.00
C352   C     0.47356   0.71679   0.39388   0.00000  Uiso   1.00
C353   C     0.54246   0.76695   0.05817   0.00000  Uiso   1.00
C354   C     0.47550   0.71555   0.44382   0.00000  Uiso   1.00
C355   C     0.49871   0.75087   0.02633   0.00000  Uiso   1.00
C356   C     0.49879   0.75100   0.47308   0.00000  Uiso   1.00
C357   C     0.40042   0.74994   0.23758   0.00000  Uiso   1.00
C358   C     0.59960   0.75039   0.26243   0.00000  Uiso   1.00
C359   C     0.34532   0.74895   0.23099   0.00000  Uiso   1.00
C360   C     0.65472   0.75195   0.26902   0.00000  Uiso   1.00
C361   C     0.54395   0.55024   0.28483   0.00000  Uiso   1.00
C362   C     0.52501   0.95297   0.21307   0.00000  Uiso   1.00
C363   C     0.53959   0.59631   0.28472   0.00000  Uiso   1.00
C364   C     0.51993   0.90685   0.21238   0.00000  Uiso   1.00
C365   C     0.50305   0.61644   0.25047   0.00000  Uiso   1.00
C366   C     0.50273   0.88443   0.25039   0.00000  Uiso   1.00
C367   C     0.47011   0.59111   0.21655   0.00000  Uiso   1.00
C368   C     0.48948   0.90828   0.28898   0.00000  Uiso   1.00
C369   C     0.47309   0.54508   0.21735   0.00000  Uiso   1.00
C370   C     0.49299   0.95448   0.28924   0.00000  Uiso   1.00
C371   C     0.51020   0.52475   0.25106   0.00000  Uiso   1.00
C372   C     0.51094   0.97670   0.25155   0.00000  Uiso   1.00
H373   H     0.65802   0.74493   0.19503   0.00000  Uiso   1.00
H374   H     0.34213   0.75593   0.30498   0.00000  Uiso   1.00
H375   H     0.56535   0.61647   0.31056   0.00000  Uiso   1.00
H376   H     0.52994   0.88868   0.18232   0.00000  Uiso   1.00
H377   H     0.44159   0.60685   0.19029   0.00000  Uiso   1.00
H378   H     0.47574   0.89133   0.31843   0.00000  Uiso   1.00
H379   H     0.44661   0.52520   0.19177   0.00000  Uiso   1.00
H380   H     0.48130   0.97301   0.31851   0.00000  Uiso   1.00
H381   H     0.57795   0.77746   0.04499   0.00000  Uiso   1.00
H382   H     0.45958   0.68647   0.45958   0.00000  Uiso   1.00
N383   N     0.50000   0.74999   0.12624   0.00000  Uiso   1.00
N384   N     0.50000   0.75001   0.37377   0.00000  Uiso   1.00
O385   O     0.50000   0.68454   0.28974   0.00000  Uiso   1.00
O386   O     0.50000   0.81547   0.21026   0.00000  Uiso   1.00
O387   O     0.50000   0.68453   0.21026   0.00000  Uiso   1.00
O388   O     0.50000   0.81547   0.28974   0.00000  Uiso   1.00
O389   O     0.42392   0.75000   0.28045   0.00000  Uiso   1.00
O390   O     0.57608   0.75000   0.21956   0.00000  Uiso   1.00
O391   O     0.42392   0.75000   0.20097   0.00000  Uiso   1.00
O392   O     0.57608   0.75001   0.29904   0.00000  Uiso   1.00
Zn393  Zn    0.50000   0.75001   0.30307   0.00000  Uiso   1.00
Zn394  Zn    0.50000   0.75000   0.19693   0.00000  Uiso   1.00
I395   I     0.60320   0.52174   0.33509   0.00000  Uiso   1.00
I396   I     0.55532   0.98425   0.15584   0.00000  Uiso   1.00
O397   O     0.41016   0.71883   0.01748   0.00000  Uiso   1.00
C398   C     0.37678   0.75541   0.00674   0.00000  Uiso   1.00
H399   H     0.39517   0.78079   0.48550   0.00000  Uiso   1.00
H400   H     0.36748   0.77152   0.03968   0.00000  Uiso   1.00
C401   C     0.65868   0.73886   0.47774   0.00000  Uiso   1.00
H402   H     0.63846   0.71447   0.49853   0.00000  Uiso   1.00
H403   H     0.63271   0.76760   0.46853   0.00000  Uiso   1.00
H404   H     0.66638   0.72255   0.44453   0.00000  Uiso   1.00
O405   O     0.54509   0.82301   0.47647   0.00000  Uiso   1.00
C406   C     0.50573   0.85485   0.47832   0.00000  Uiso   1.00
H407   H     0.47626   0.84235   0.00029   0.00000  Uiso   1.00
H408   H     0.48524   0.86297   0.44215   0.00000  Uiso   1.00
C409   C     0.53115   0.89783   0.00076   0.00000  Uiso   1.00
H410   H     0.55981   0.91166   0.47884   0.00000  Uiso   1.00
H411   H     0.50048   0.92293   0.00319   0.00000  Uiso   1.00
H412   H     0.55203   0.89115   0.03692   0.00000  Uiso   1.00
I413   I     0.40094   0.68760   0.11958   0.00000  Uiso   1.00
I414   I     0.58035   0.82908   0.37691   0.00000  Uiso   1.00
O415   O     0.58578   0.78335   0.13787   0.00000  Uiso   1.00
C416   C     0.59583   0.82962   0.13233   0.00000  Uiso   1.00
H417   H     0.59940   0.84553   0.16790   0.00000  Uiso   1.00
H418   H     0.56420   0.84729   0.10886   0.00000  Uiso   1.00
C419   C     0.64837   0.83697   0.11464   0.00000  Uiso   1.00
H420   H     0.64610   0.82446   0.07776   0.00000  Uiso   1.00
H421   H     0.65860   0.87330   0.11526   0.00000  Uiso   1.00
H422   H     0.34659   0.81927   0.13780   0.00000  Uiso   1.00
O423   O     0.45015   0.68210   0.36529   0.00000  Uiso   1.00
C424   C     0.39659   0.67656   0.37045   0.00000  Uiso   1.00
H425   H     0.37659   0.70928   0.37009   0.00000  Uiso   1.00
H426   H     0.39271   0.65881   0.40393   0.00000  Uiso   1.00
C427   C     0.36859   0.64814   0.32943   0.00000  Uiso   1.00
H428   H     0.38599   0.61443   0.33013   0.00000  Uiso   1.00
H429   H     0.65949   0.64443   0.33239   0.00000  Uiso   1.00
H430   H     0.37260   0.66425   0.29515   0.00000  Uiso   1.00
C431   C     0.83342   0.66407   0.24997   0.00000  Uiso   1.00
C432   C     0.83345   0.83619   0.25007   0.00000  Uiso   1.00
C433   C     0.78869   0.73405   0.04622   0.00000  Uiso   1.00
C434   C     0.85602   0.78626   0.45074   0.00000  Uiso   1.00
C435   C     0.79204   0.73046   0.09593   0.00000  Uiso   1.00
C436   C     0.85994   0.78317   0.40204   0.00000  Uiso   1.00
C437   C     0.87485   0.76864   0.10763   0.00000  Uiso   1.00
C438   C     0.80689   0.71679   0.39388   0.00000  Uiso   1.00
C439   C     0.87579   0.76695   0.05817   0.00000  Uiso   1.00
C440   C     0.80883   0.71555   0.44382   0.00000  Uiso   1.00
C441   C     0.83204   0.75087   0.02633   0.00000  Uiso   1.00
C442   C     0.83212   0.75100   0.47308   0.00000  Uiso   1.00
C443   C     0.73376   0.74994   0.23758   0.00000  Uiso   1.00
C444   C     0.93293   0.75039   0.26243   0.00000  Uiso   1.00
C445   C     0.67866   0.74895   0.23099   0.00000  Uiso   1.00
C446   C     0.98806   0.75195   0.26902   0.00000  Uiso   1.00
C447   C     0.87728   0.55024   0.28483   0.00000  Uiso   1.00
C448   C     0.85834   0.95297   0.21307   0.00000  Uiso   1.00
C449   C     0.87292   0.59631   0.28472   0.00000  Uiso   1.00
C450   C     0.85326   0.90685   0.21238   0.00000  Uiso   1.00
C451   C     0.83639   0.61644   0.25047   0.00000  Uiso   1.00
C452   C     0.83606   0.88443   0.25039   0.00000  Uiso   1.00
C453   C     0.80344   0.59111   0.21655   0.00000  Uiso   1.00
C454   C     0.82281   0.90828   0.28898   0.00000  Uiso   1.00
C455   C     0.80642   0.54508   0.21735   0.00000  Uiso   1.00
C456   C     0.82632   0.95448   0.28924   0.00000  Uiso   1.00
C457   C     0.84353   0.52475   0.25106   0.00000  Uiso   1.00
C458   C     0.84428   0.97670   0.25155   0.00000  Uiso   1.00
H459   H     0.99135   0.74493   0.19503   0.00000  Uiso   1.00
H460   H     0.67546   0.75593   0.30498   0.00000  Uiso   1.00
H461   H     0.89868   0.61647   0.31056   0.00000  Uiso   1.00
H462   H     0.86328   0.88868   0.18232   0.00000  Uiso   1.00
H463   H     0.77493   0.60685   0.19029   0.00000  Uiso   1.00
H464   H     0.80907   0.89133   0.31843   0.00000  Uiso   1.00
H465   H     0.77994   0.52520   0.19177   0.00000  Uiso   1.00
H466   H     0.81464   0.97301   0.31851   0.00000  Uiso   1.00
H467   H     0.91129   0.77746   0.04499   0.00000  Uiso   1.00
H468   H     0.79292   0.68647   0.45958   0.00000  Uiso   1.00
N469   N     0.83333   0.74999   0.12624   0.00000  Uiso   1.00
N470   N     0.83333   0.75001   0.37377   0.00000  Uiso   1.00
O471   O     0.83334   0.68454   0.28974   0.00000  Uiso   1.00
O472   O     0.83333   0.81547   0.21026   0.00000  Uiso   1.00
O473   O     0.83334   0.68453   0.21026   0.00000  Uiso   1.00
O474   O     0.83333   0.81547   0.28974   0.00000  Uiso   1.00
O475   O     0.75725   0.75000   0.28045   0.00000  Uiso   1.00
O476   O     0.90942   0.75000   0.21956   0.00000  Uiso   1.00
O477   O     0.75725   0.75000   0.20097   0.00000  Uiso   1.00
O478   O     0.90942   0.75001   0.29904   0.00000  Uiso   1.00
Zn479  Zn    0.83333   0.75001   0.30307   0.00000  Uiso   1.00
Zn480  Zn    0.83333   0.75000   0.19693   0.00000  Uiso   1.00
I481   I     0.93654   0.52174   0.33509   0.00000  Uiso   1.00
I482   I     0.88866   0.98425   0.15584   0.00000  Uiso   1.00
O483   O     0.74349   0.71883   0.01748   0.00000  Uiso   1.00
C484   C     0.71011   0.75541   0.00674   0.00000  Uiso   1.00
H485   H     0.72851   0.78079   0.48550   0.00000  Uiso   1.00
H486   H     0.70082   0.77152   0.03968   0.00000  Uiso   1.00
C487   C     0.99202   0.73886   0.47774   0.00000  Uiso   1.00
H488   H     0.97179   0.71447   0.49853   0.00000  Uiso   1.00
H489   H     0.96604   0.76760   0.46853   0.00000  Uiso   1.00
H490   H     0.99972   0.72255   0.44453   0.00000  Uiso   1.00
O491   O     0.87842   0.82301   0.47647   0.00000  Uiso   1.00
C492   C     0.83906   0.85485   0.47832   0.00000  Uiso   1.00
H493   H     0.80959   0.84235   0.00029   0.00000  Uiso   1.00
H494   H     0.81858   0.86297   0.44215   0.00000  Uiso   1.00
C495   C     0.86448   0.89783   0.00076   0.00000  Uiso   1.00
H496   H     0.89315   0.91166   0.47884   0.00000  Uiso   1.00
H497   H     0.83381   0.92293   0.00319   0.00000  Uiso   1.00
H498   H     0.88536   0.89115   0.03692   0.00000  Uiso   1.00
I499   I     0.73427   0.68760   0.11958   0.00000  Uiso   1.00
I500   I     0.91368   0.82908   0.37691   0.00000  Uiso   1.00
O501   O     0.91912   0.78335   0.13787   0.00000  Uiso   1.00
C502   C     0.92916   0.82962   0.13233   0.00000  Uiso   1.00
H503   H     0.93273   0.84553   0.16790   0.00000  Uiso   1.00
H504   H     0.89754   0.84729   0.10886   0.00000  Uiso   1.00
C505   C     0.98171   0.83697   0.11464   0.00000  Uiso   1.00
H506   H     0.97943   0.82446   0.07776   0.00000  Uiso   1.00
H507   H     0.99194   0.87330   0.11526   0.00000  Uiso   1.00
H508   H     0.67993   0.81927   0.13780   0.00000  Uiso   1.00
O509   O     0.78348   0.68210   0.36529   0.00000  Uiso   1.00
C510   C     0.72992   0.67656   0.37045   0.00000  Uiso   1.00
H511   H     0.70992   0.70928   0.37009   0.00000  Uiso   1.00
H512   H     0.72604   0.65881   0.40393   0.00000  Uiso   1.00
C513   C     0.70193   0.64814   0.32943   0.00000  Uiso   1.00
H514   H     0.71932   0.61443   0.33013   0.00000  Uiso   1.00
H515   H     0.99282   0.64443   0.33239   0.00000  Uiso   1.00
H516   H     0.70593   0.66425   0.29515   0.00000  Uiso   1.00
C517   C     0.16676   0.16407   0.74997   0.00000  Uiso   1.00
C518   C     0.16679   0.33619   0.75007   0.00000  Uiso   1.00
C519   C     0.12202   0.23405   0.54622   0.00000  Uiso   1.00
C520   C     0.18935   0.28626   0.95074   0.00000  Uiso   1.00
C521   C     0.12538   0.23046   0.59593   0.00000  Uiso   1.00
C522   C     0.19327   0.28317   0.90204   0.00000  Uiso   1.00
C523   C     0.20819   0.26864   0.60763   0.00000  Uiso   1.00
C524   C     0.14023   0.21679   0.89388   0.00000  Uiso   1.00
C525   C     0.20912   0.26695   0.55817   0.00000  Uiso   1.00
C526   C     0.14217   0.21555   0.94382   0.00000  Uiso   1.00
C527   C     0.16537   0.25087   0.52633   0.00000  Uiso   1.00
C528   C     0.16545   0.25100   0.97308   0.00000  Uiso   1.00
C529   C     0.06709   0.24994   0.73758   0.00000  Uiso   1.00
C530   C     0.26626   0.25039   0.76243   0.00000  Uiso   1.00
C531   C     0.01199   0.24895   0.73099   0.00000  Uiso   1.00
C532   C     0.32139   0.25195   0.76902   0.00000  Uiso   1.00
C533   C     0.21062   0.05024   0.78483   0.00000  Uiso   1.00
C534   C     0.19167   0.45297   0.71307   0.00000  Uiso   1.00
C535   C     0.20626   0.09631   0.78472   0.00000  Uiso   1.00
C536   C     0.18659   0.40685   0.71238   0.00000  Uiso   1.00
C537   C     0.16972   0.11644   0.75047   0.00000  Uiso   1.00
C538   C     0.16940   0.38443   0.75039   0.00000  Uiso   1.00
C539   C     0.13677   0.09111   0.71655   0.00000  Uiso   1.00
C540   C     0.15615   0.40828   0.78898   0.00000  Uiso   1.00
C541   C     0.13976   0.04508   0.71735   0.00000  Uiso   1.00
C542   C     0.15965   0.45448   0.78924   0.00000  Uiso   1.00
C543   C     0.17686   0.02475   0.75106   0.00000  Uiso   1.00
C544   C     0.17761   0.47670   0.75155   0.00000  Uiso   1.00
H545   H     0.32469   0.24493   0.69503   0.00000  Uiso   1.00
H546   H     0.00880   0.25593   0.80498   0.00000  Uiso   1.00
H547   H     0.23202   0.11647   0.81056   0.00000  Uiso   1.00
H548   H     0.19661   0.38868   0.68232   0.00000  Uiso   1.00
H549   H     0.10826   0.10685   0.69029   0.00000  Uiso   1.00
H550   H     0.14240   0.39133   0.81843   0.00000  Uiso   1.00
H551   H     0.11328   0.02520   0.69177   0.00000  Uiso   1.00
H552   H     0.14797   0.47301   0.81851   0.00000  Uiso   1.00
H553   H     0.24462   0.27746   0.54499   0.00000  Uiso   1.00
H554   H     0.12625   0.18647   0.95958   0.00000  Uiso   1.00
N555   N     0.16667   0.24999   0.62624   0.00000  Uiso   1.00
N556   N     0.16667   0.25001   0.87377   0.00000  Uiso   1.00
O557   O     0.16667   0.18454   0.78974   0.00000  Uiso   1.00
O558   O     0.16666   0.31547   0.71026   0.00000  Uiso   1.00
O559   O     0.16667   0.18453   0.71026   0.00000  Uiso   1.00
O560   O     0.16666   0.31547   0.78974   0.00000  Uiso   1.00
O561   O     0.09058   0.25000   0.78045   0.00000  Uiso   1.00
O562   O     0.24275   0.25000   0.71956   0.00000  Uiso   1.00
O563   O     0.09058   0.25000   0.70097   0.00000  Uiso   1.00
O564   O     0.24275   0.25001   0.79904   0.00000  Uiso   1.00
Zn565  Zn    0.16667   0.25001   0.80307   0.00000  Uiso   1.00
Zn566  Zn    0.16667   0.25000   0.69693   0.00000  Uiso   1.00
I567   I     0.26987   0.02174   0.83509   0.00000  Uiso   1.00
I568   I     0.22199   0.48425   0.65584   0.00000  Uiso   1.00
O569   O     0.07683   0.21883   0.51748   0.00000  Uiso   1.00
C570   C     0.04344   0.25541   0.50674   0.00000  Uiso   1.00
H571   H     0.06184   0.28079   0.98550   0.00000  Uiso   1.00
H572   H     0.03415   0.27152   0.53968   0.00000  Uiso   1.00
C573   C     0.32535   0.23886   0.97774   0.00000  Uiso   1.00
H574   H     0.30512   0.21447   0.99853   0.00000  Uiso   1.00
H575   H     0.29937   0.26760   0.96853   0.00000  Uiso   1.00
H576   H     0.33305   0.22255   0.94453   0.00000  Uiso   1.00
O577   O     0.21176   0.32301   0.97647   0.00000  Uiso   1.00
C578   C     0.17240   0.35485   0.97832   0.00000  Uiso   1.00
H579   H     0.14293   0.34235   0.50029   0.00000  Uiso   1.00
H580   H     0.15191   0.36297   0.94215   0.00000  Uiso   1.00
C581   C     0.19782   0.39783   0.50076   0.00000  Uiso   1.00
H582   H     0.22648   0.41166   0.97884   0.00000  Uiso   1.00
H583   H     0.16714   0.42293   0.50319   0.00000  Uiso   1.00
H584   H     0.21869   0.39115   0.53692   0.00000  Uiso   1.00
I585   I     0.06760   0.18760   0.61958   0.00000  Uiso   1.00
I586   I     0.24701   0.32908   0.87691   0.00000  Uiso   1.00
O587   O     0.25245   0.28335   0.63787   0.00000  Uiso   1.00
C588   C     0.26250   0.32962   0.63233   0.00000  Uiso   1.00
H589   H     0.26606   0.34553   0.66790   0.00000  Uiso   1.00
H590   H     0.23087   0.34729   0.60886   0.00000  Uiso   1.00
C591   C     0.31504   0.33697   0.61464   0.00000  Uiso   1.00
H592   H     0.31276   0.32446   0.57776   0.00000  Uiso   1.00
H593   H     0.32527   0.37330   0.61526   0.00000  Uiso   1.00
H594   H     0.01326   0.31927   0.63780   0.00000  Uiso   1.00
O595   O     0.11681   0.18210   0.86529   0.00000  Uiso   1.00
C596   C     0.06325   0.17656   0.87045   0.00000  Uiso   1.00
H597   H     0.04325   0.20928   0.87009   0.00000  Uiso   1.00
H598   H     0.05938   0.15881   0.90393   0.00000  Uiso   1.00
C599   C     0.03526   0.14814   0.82943   0.00000  Uiso   1.00
H600   H     0.05265   0.11443   0.83013   0.00000  Uiso   1.00
H601   H     0.32615   0.14443   0.83239   0.00000  Uiso   1.00
H602   H     0.03926   0.16425   0.79515   0.00000  Uiso   1.00
C603   C     0.50009   0.16407   0.74997   0.00000  Uiso   1.00
C604   C     0.50012   0.33619   0.75007   0.00000  Uiso   1.00
C605   C     0.45536   0.23405   0.54622   0.00000  Uiso   1.00
C606   C     0.52268   0.28626   0.95074   0.00000  Uiso   1.00
C607   C     0.45871   0.23046   0.59593   0.00000  Uiso   1.00
C608   C     0.52661   0.28317   0.90204   0.00000  Uiso   1.00
C609   C     0.54152   0.26864   0.60763   0.00000  Uiso   1.00
C610   C     0.47356   0.21679   0.89388   0.00000  Uiso   1.00
C611   C     0.54246   0.26695   0.55817   0.00000  Uiso   1.00
C612   C     0.47550   0.21555   0.94382   0.00000  Uiso   1.00
C613   C     0.49871   0.25087   0.52633   0.00000  Uiso   1.00
C614   C     0.49879   0.25100   0.97308   0.00000  Uiso   1.00
C615   C     0.40042   0.24994   0.73758   0.00000  Uiso   1.00
C616   C     0.59960   0.25039   0.76243   0.00000  Uiso   1.00
C617   C     0.34532   0.24895   0.73099   0.00000  Uiso   1.00
C618   C     0.65472   0.25195   0.76902   0.00000  Uiso   1.00
C619   C     0.54395   0.05024   0.78483   0.00000  Uiso   1.00
C620   C     0.52501   0.45297   0.71307   0.00000  Uiso   1.00
C621   C     0.53959   0.09631   0.78472   0.00000  Uiso   1.00
C622   C     0.51993   0.40685   0.71238   0.00000  Uiso   1.00
C623   C     0.50305   0.11644   0.75047   0.00000  Uiso   1.00
C624   C     0.50273   0.38443   0.75039   0.00000  Uiso   1.00
C625   C     0.47011   0.09111   0.71655   0.00000  Uiso   1.00
C626   C     0.48948   0.40828   0.78898   0.00000  Uiso   1.00
C627   C     0.47309   0.04508   0.71735   0.00000  Uiso   1.00
C628   C     0.49299   0.45448   0.78924   0.00000  Uiso   1.00
C629   C     0.51020   0.02475   0.75106   0.00000  Uiso   1.00
C630   C     0.51094   0.47670   0.75155   0.00000  Uiso   1.00
H631   H     0.65802   0.24493   0.69503   0.00000  Uiso   1.00
H632   H     0.34213   0.25593   0.80498   0.00000  Uiso   1.00
H633   H     0.56535   0.11647   0.81056   0.00000  Uiso   1.00
H634   H     0.52994   0.38868   0.68232   0.00000  Uiso   1.00
H635   H     0.44159   0.10685   0.69029   0.00000  Uiso   1.00
H636   H     0.47574   0.39133   0.81843   0.00000  Uiso   1.00
H637   H     0.44661   0.02520   0.69177   0.00000  Uiso   1.00
H638   H     0.48130   0.47301   0.81851   0.00000  Uiso   1.00
H639   H     0.57795   0.27746   0.54499   0.00000  Uiso   1.00
H640   H     0.45958   0.18647   0.95958   0.00000  Uiso   1.00
N641   N     0.50000   0.24999   0.62624   0.00000  Uiso   1.00
N642   N     0.50000   0.25001   0.87377   0.00000  Uiso   1.00
O643   O     0.50000   0.18454   0.78974   0.00000  Uiso   1.00
O644   O     0.50000   0.31547   0.71026   0.00000  Uiso   1.00
O645   O     0.50000   0.18453   0.71026   0.00000  Uiso   1.00
O646   O     0.50000   0.31547   0.78974   0.00000  Uiso   1.00
O647   O     0.42392   0.25000   0.78045   0.00000  Uiso   1.00
O648   O     0.57608   0.25000   0.71956   0.00000  Uiso   1.00
O649   O     0.42392   0.25000   0.70097   0.00000  Uiso   1.00
O650   O     0.57608   0.25001   0.79904   0.00000  Uiso   1.00
Zn651  Zn    0.50000   0.25001   0.80307   0.00000  Uiso   1.00
Zn652  Zn    0.50000   0.25000   0.69693   0.00000  Uiso   1.00
I653   I     0.60320   0.02174   0.83509   0.00000  Uiso   1.00
I654   I     0.55532   0.48425   0.65584   0.00000  Uiso   1.00
O655   O     0.41016   0.21883   0.51748   0.00000  Uiso   1.00
C656   C     0.37678   0.25541   0.50674   0.00000  Uiso   1.00
H657   H     0.39517   0.28079   0.98550   0.00000  Uiso   1.00
H658   H     0.36748   0.27152   0.53968   0.00000  Uiso   1.00
C659   C     0.65868   0.23886   0.97774   0.00000  Uiso   1.00
H660   H     0.63846   0.21447   0.99853   0.00000  Uiso   1.00
H661   H     0.63271   0.26760   0.96853   0.00000  Uiso   1.00
H662   H     0.66638   0.22255   0.94453   0.00000  Uiso   1.00
O663   O     0.54509   0.32301   0.97647   0.00000  Uiso   1.00
C664   C     0.50573   0.35485   0.97832   0.00000  Uiso   1.00
H665   H     0.47626   0.34235   0.50029   0.00000  Uiso   1.00
H666   H     0.48524   0.36297   0.94215   0.00000  Uiso   1.00
C667   C     0.53115   0.39783   0.50076   0.00000  Uiso   1.00
H668   H     0.55981   0.41166   0.97884   0.00000  Uiso   1.00
H669   H     0.50048   0.42293   0.50319   0.00000  Uiso   1.00
H670   H     0.55203   0.39115   0.53692   0.00000  Uiso   1.00
I671   I     0.40094   0.18760   0.61958   0.00000  Uiso   1.00
I672   I     0.58035   0.32908   0.87691   0.00000  Uiso   1.00
O673   O     0.58578   0.28335   0.63787   0.00000  Uiso   1.00
C674   C     0.59583   0.32962   0.63233   0.00000  Uiso   1.00
H675   H     0.59940   0.34553   0.66790   0.00000  Uiso   1.00
H676   H     0.56420   0.34729   0.60886   0.00000  Uiso   1.00
C677   C     0.64837   0.33697   0.61464   0.00000  Uiso   1.00
H678   H     0.64610   0.32446   0.57776   0.00000  Uiso   1.00
H679   H     0.65860   0.37330   0.61526   0.00000  Uiso   1.00
H680   H     0.34659   0.31927   0.63780   0.00000  Uiso   1.00
O681   O     0.45015   0.18210   0.86529   0.00000  Uiso   1.00
C682   C     0.39659   0.17656   0.87045   0.00000  Uiso   1.00
H683   H     0.37659   0.20928   0.87009   0.00000  Uiso   1.00
H684   H     0.39271   0.15881   0.90393   0.00000  Uiso   1.00
C685   C     0.36859   0.14814   0.82943   0.00000  Uiso   1.00
H686   H     0.38599   0.11443   0.83013   0.00000  Uiso   1.00
H687   H     0.65949   0.14443   0.83239   0.00000  Uiso   1.00
H688   H     0.37260   0.16425   0.79515   0.00000  Uiso   1.00
C689   C     0.83342   0.16407   0.74997   0.00000  Uiso   1.00
C690   C     0.83345   0.33619   0.75007   0.00000  Uiso   1.00
C691   C     0.78869   0.23405   0.54622   0.00000  Uiso   1.00
C692   C     0.85602   0.28626   0.95074   0.00000  Uiso   1.00
C693   C     0.79204   0.23046   0.59593   0.00000  Uiso   1.00
C694   C     0.85994   0.28317   0.90204   0.00000  Uiso   1.00
C695   C     0.87485   0.26864   0.60763   0.00000  Uiso   1.00
C696   C     0.80689   0.21679   0.89388   0.00000  Uiso   1.00
C697   C     0.87579   0.26695   0.55817   0.00000  Uiso   1.00
C698   C     0.80883   0.21555   0.94382   0.00000  Uiso   1.00
C699   C     0.83204   0.25087   0.52633   0.00000  Uiso   1.00
C700   C     0.83212   0.25100   0.97308   0.00000  Uiso   1.00
C701   C     0.73376   0.24994   0.73758   0.00000  Uiso   1.00
C702   C     0.93293   0.25039   0.76243   0.00000  Uiso   1.00
C703   C     0.67866   0.24895   0.73099   0.00000  Uiso   1.00
C704   C     0.98806   0.25195   0.76902   0.00000  Uiso   1.00
C705   C     0.87728   0.05024   0.78483   0.00000  Uiso   1.00
C706   C     0.85834   0.45297   0.71307   0.00000  Uiso   1.00
C707   C     0.87292   0.09631   0.78472   0.00000  Uiso   1.00
C708   C     0.85326   0.40685   0.71238   0.00000  Uiso   1.00
C709   C     0.83639   0.11644   0.75047   0.00000  Uiso   1.00
C710   C     0.83606   0.38443   0.75039   0.00000  Uiso   1.00
C711   C     0.80344   0.09111   0.71655   0.00000  Uiso   1.00
C712   C     0.82281   0.40828   0.78898   0.00000  Uiso   1.00
C713   C     0.80642   0.04508   0.71735   0.00000  Uiso   1.00
C714   C     0.82632   0.45448   0.78924   0.00000  Uiso   1.00
C715   C     0.84353   0.02475   0.75106   0.00000  Uiso   1.00
C716   C     0.84428   0.47670   0.75155   0.00000  Uiso   1.00
H717   H     0.99135   0.24493   0.69503   0.00000  Uiso   1.00
H718   H     0.67546   0.25593   0.80498   0.00000  Uiso   1.00
H719   H     0.89868   0.11647   0.81056   0.00000  Uiso   1.00
H720   H     0.86328   0.38868   0.68232   0.00000  Uiso   1.00
H721   H     0.77493   0.10685   0.69029   0.00000  Uiso   1.00
H722   H     0.80907   0.39133   0.81843   0.00000  Uiso   1.00
H723   H     0.77994   0.02520   0.69177   0.00000  Uiso   1.00
H724   H     0.81464   0.47301   0.81851   0.00000  Uiso   1.00
H725   H     0.91129   0.27746   0.54499   0.00000  Uiso   1.00
H726   H     0.79292   0.18647   0.95958   0.00000  Uiso   1.00
N727   N     0.83333   0.24999   0.62624   0.00000  Uiso   1.00
N728   N     0.83333   0.25001   0.87377   0.00000  Uiso   1.00
O729   O     0.83334   0.18454   0.78974   0.00000  Uiso   1.00
O730   O     0.83333   0.31547   0.71026   0.00000  Uiso   1.00
O731   O     0.83334   0.18453   0.71026   0.00000  Uiso   1.00
O732   O     0.83333   0.31547   0.78974   0.00000  Uiso   1.00
O733   O     0.75725   0.25000   0.78045   0.00000  Uiso   1.00
O734   O     0.90942   0.25000   0.71956   0.00000  Uiso   1.00
O735   O     0.75725   0.25000   0.70097   0.00000  Uiso   1.00
O736   O     0.90942   0.25001   0.79904   0.00000  Uiso   1.00
Zn737  Zn    0.83333   0.25001   0.80307   0.00000  Uiso   1.00
Zn738  Zn    0.83333   0.25000   0.69693   0.00000  Uiso   1.00
I739   I     0.93654   0.02174   0.83509   0.00000  Uiso   1.00
I740   I     0.88866   0.48425   0.65584   0.00000  Uiso   1.00
O741   O     0.74349   0.21883   0.51748   0.00000  Uiso   1.00
C742   C     0.71011   0.25541   0.50674   0.00000  Uiso   1.00
H743   H     0.72851   0.28079   0.98550   0.00000  Uiso   1.00
H744   H     0.70082   0.27152   0.53968   0.00000  Uiso   1.00
C745   C     0.99202   0.23886   0.97774   0.00000  Uiso   1.00
H746   H     0.97179   0.21447   0.99853   0.00000  Uiso   1.00
H747   H     0.96604   0.26760   0.96853   0.00000  Uiso   1.00
H748   H     0.99972   0.22255   0.94453   0.00000  Uiso   1.00
O749   O     0.87842   0.32301   0.97647   0.00000  Uiso   1.00
C750   C     0.83906   0.35485   0.97832   0.00000  Uiso   1.00
H751   H     0.80959   0.34235   0.50029   0.00000  Uiso   1.00
H752   H     0.81858   0.36297   0.94215   0.00000  Uiso   1.00
C753   C     0.86448   0.39783   0.50076   0.00000  Uiso   1.00
H754   H     0.89315   0.41166   0.97884   0.00000  Uiso   1.00
H755   H     0.83381   0.42293   0.50319   0.00000  Uiso   1.00
H756   H     0.88536   0.39115   0.53692   0.00000  Uiso   1.00
I757   I     0.73427   0.18760   0.61958   0.00000  Uiso   1.00
I758   I     0.91368   0.32908   0.87691   0.00000  Uiso   1.00
O759   O     0.91912   0.28335   0.63787   0.00000  Uiso   1.00
C760   C     0.92916   0.32962   0.63233   0.00000  Uiso   1.00
H761   H     0.93273   0.34553   0.66790   0.00000  Uiso   1.00
H762   H     0.89754   0.34729   0.60886   0.00000  Uiso   1.00
C763   C     0.98171   0.33697   0.61464   0.00000  Uiso   1.00
H764   H     0.97943   0.32446   0.57776   0.00000  Uiso   1.00
H765   H     0.99194   0.37330   0.61526   0.00000  Uiso   1.00
H766   H     0.67993   0.31927   0.63780   0.00000  Uiso   1.00
O767   O     0.78348   0.18210   0.86529   0.00000  Uiso   1.00
C768   C     0.72992   0.17656   0.87045   0.00000  Uiso   1.00
H769   H     0.70992   0.20928   0.87009   0.00000  Uiso   1.00
H770   H     0.72604   0.15881   0.90393   0.00000  Uiso   1.00
C771   C     0.70193   0.14814   0.82943   0.00000  Uiso   1.00
H772   H     0.71932   0.11443   0.83013   0.00000  Uiso   1.00
H773   H     0.99282   0.14443   0.83239   0.00000  Uiso   1.00
H774   H     0.70593   0.16425   0.79515   0.00000  Uiso   1.00
C775   C     0.16676   0.66407   0.74997   0.00000  Uiso   1.00
C776   C     0.16679   0.83619   0.75007   0.00000  Uiso   1.00
C777   C     0.12202   0.73405   0.54622   0.00000  Uiso   1.00
C778   C     0.18935   0.78626   0.95074   0.00000  Uiso   1.00
C779   C     0.12538   0.73046   0.59593   0.00000  Uiso   1.00
C780   C     0.19327   0.78317   0.90204   0.00000  Uiso   1.00
C781   C     0.20819   0.76864   0.60763   0.00000  Uiso   1.00
C782   C     0.14023   0.71679   0.89388   0.00000  Uiso   1.00
C783   C     0.20912   0.76695   0.55817   0.00000  Uiso   1.00
C784   C     0.14217   0.71555   0.94382   0.00000  Uiso   1.00
C785   C     0.16537   0.75087   0.52633   0.00000  Uiso   1.00
C786   C     0.16545   0.75100   0.97308   0.00000  Uiso   1.00
C787   C     0.06709   0.74994   0.73758   0.00000  Uiso   1.00
C788   C     0.26626   0.75039   0.76243   0.00000  Uiso   1.00
C789   C     0.01199   0.74895   0.73099   0.00000  Uiso   1.00
C790   C     0.32139   0.75195   0.76902   0.00000  Uiso   1.00
C791   C     0.21062   0.55024   0.78483   0.00000  Uiso   1.00
C792   C     0.19167   0.95297   0.71307   0.00000  Uiso   1.00
C793   C     0.20626   0.59631   0.78472   0.00000  Uiso   1.00
C794   C     0.18659   0.90685   0.71238   0.00000  Uiso   1.00
C795   C     0.16972   0.61644   0.75047   0.00000  Uiso   1.00
C796   C     0.16940   0.88443   0.75039   0.00000  Uiso   1.00
C797   C     0.13677   0.59111   0.71655   0.00000  Uiso   1.00
C798   C     0.15615   0.90828   0.78898   0.00000  Uiso   1.00
C799   C     0.13976   0.54508   0.71735   0.00000  Uiso   1.00
C800   C     0.15965   0.95448   0.78924   0.00000  Uiso   1.00
C801   C     0.17686   0.52475   0.75106   0.00000  Uiso   1.00
C802   C     0.17761   0.97670   0.75155   0.00000  Uiso   1.00
H803   H     0.32469   0.74493   0.69503   0.00000  Uiso   1.00
H804   H     0.00880   0.75593   0.80498   0.00000  Uiso   1.00
H805   H     0.23202   0.61647   0.81056   0.00000  Uiso   1.00
H806   H     0.19661   0.88868   0.68232   0.00000  Uiso   1.00
H807   H     0.10826   0.60685   0.69029   0.00000  Uiso   1.00
H808   H     0.14240   0.89133   0.81843   0.00000  Uiso   1.00
H809   H     0.11328   0.52520   0.69177   0.00000  Uiso   1.00
H810   H     0.14797   0.97301   0.81851   0.00000  Uiso   1.00
H811   H     0.24462   0.77746   0.54499   0.00000  Uiso   1.00
H812   H     0.12625   0.68647   0.95958   0.00000  Uiso   1.00
N813   N     0.16667   0.74999   0.62624   0.00000  Uiso   1.00
N814   N     0.16667   0.75001   0.87377   0.00000  Uiso   1.00
O815   O     0.16667   0.68454   0.78974   0.00000  Uiso   1.00
O816   O     0.16666   0.81547   0.71026   0.00000  Uiso   1.00
O817   O     0.16667   0.68453   0.71026   0.00000  Uiso   1.00
O818   O     0.16666   0.81547   0.78974   0.00000  Uiso   1.00
O819   O     0.09058   0.75000   0.78045   0.00000  Uiso   1.00
O820   O     0.24275   0.75000   0.71956   0.00000  Uiso   1.00
O821   O     0.09058   0.75000   0.70097   0.00000  Uiso   1.00
O822   O     0.24275   0.75001   0.79904   0.00000  Uiso   1.00
Zn823  Zn    0.16667   0.75001   0.80307   0.00000  Uiso   1.00
Zn824  Zn    0.16667   0.75000   0.69693   0.00000  Uiso   1.00
I825   I     0.26987   0.52174   0.83509   0.00000  Uiso   1.00
I826   I     0.22199   0.98425   0.65584   0.00000  Uiso   1.00
O827   O     0.07683   0.71883   0.51748   0.00000  Uiso   1.00
C828   C     0.04344   0.75541   0.50674   0.00000  Uiso   1.00
H829   H     0.06184   0.78079   0.98550   0.00000  Uiso   1.00
H830   H     0.03415   0.77152   0.53968   0.00000  Uiso   1.00
C831   C     0.32535   0.73886   0.97774   0.00000  Uiso   1.00
H832   H     0.30512   0.71447   0.99853   0.00000  Uiso   1.00
H833   H     0.29937   0.76760   0.96853   0.00000  Uiso   1.00
H834   H     0.33305   0.72255   0.94453   0.00000  Uiso   1.00
O835   O     0.21176   0.82301   0.97647   0.00000  Uiso   1.00
C836   C     0.17240   0.85485   0.97832   0.00000  Uiso   1.00
H837   H     0.14293   0.84235   0.50029   0.00000  Uiso   1.00
H838   H     0.15191   0.86297   0.94215   0.00000  Uiso   1.00
C839   C     0.19782   0.89783   0.50076   0.00000  Uiso   1.00
H840   H     0.22648   0.91166   0.97884   0.00000  Uiso   1.00
H841   H     0.16714   0.92293   0.50319   0.00000  Uiso   1.00
H842   H     0.21869   0.89115   0.53692   0.00000  Uiso   1.00
I843   I     0.06760   0.68760   0.61958   0.00000  Uiso   1.00
I844   I     0.24701   0.82908   0.87691   0.00000  Uiso   1.00
O845   O     0.25245   0.78335   0.63787   0.00000  Uiso   1.00
C846   C     0.26250   0.82962   0.63233   0.00000  Uiso   1.00
H847   H     0.26606   0.84553   0.66790   0.00000  Uiso   1.00
H848   H     0.23087   0.84729   0.60886   0.00000  Uiso   1.00
C849   C     0.31504   0.83697   0.61464   0.00000  Uiso   1.00
H850   H     0.31276   0.82446   0.57776   0.00000  Uiso   1.00
H851   H     0.32527   0.87330   0.61526   0.00000  Uiso   1.00
H852   H     0.01326   0.81927   0.63780   0.00000  Uiso   1.00
O853   O     0.11681   0.68210   0.86529   0.00000  Uiso   1.00
C854   C     0.06325   0.67656   0.87045   0.00000  Uiso   1.00
H855   H     0.04325   0.70928   0.87009   0.00000  Uiso   1.00
H856   H     0.05938   0.65881   0.90393   0.00000  Uiso   1.00
C857   C     0.03526   0.64814   0.82943   0.00000  Uiso   1.00
H858   H     0.05265   0.61443   0.83013   0.00000  Uiso   1.00
H859   H     0.32615   0.64443   0.83239   0.00000  Uiso   1.00
H860   H     0.03926   0.66425   0.79515   0.00000  Uiso   1.00
C861   C     0.50009   0.66407   0.74997   0.00000  Uiso   1.00
C862   C     0.50012   0.83619   0.75007   0.00000  Uiso   1.00
C863   C     0.45536   0.73405   0.54622   0.00000  Uiso   1.00
C864   C     0.52268   0.78626   0.95074   0.00000  Uiso   1.00
C865   C     0.45871   0.73046   0.59593   0.00000  Uiso   1.00
C866   C     0.52661   0.78317   0.90204   0.00000  Uiso   1.00
C867   C     0.54152   0.76864   0.60763   0.00000  Uiso   1.00
C868   C     0.47356   0.71679   0.89388   0.00000  Uiso   1.00
C869   C     0.54246   0.76695   0.55817   0.00000  Uiso   1.00
C870   C     0.47550   0.71555   0.94382   0.00000  Uiso   1.00
C871   C     0.49871   0.75087   0.52633   0.00000  Uiso   1.00
C872   C     0.49879   0.75100   0.97308   0.00000  Uiso   1.00
C873   C     0.40042   0.74994   0.73758   0.00000  Uiso   1.00
C874   C     0.59960   0.75039   0.76243   0.00000  Uiso   1.00
C875   C     0.34532   0.74895   0.73099   0.00000  Uiso   1.00
C876   C     0.65472   0.75195   0.76902   0.00000  Uiso   1.00
C877   C     0.54395   0.55024   0.78483   0.00000  Uiso   1.00
C878   C     0.52501   0.95297   0.71307   0.00000  Uiso   1.00
C879   C     0.53959   0.59631   0.78472   0.00000  Uiso   1.00
C880   C     0.51993   0.90685   0.71238   0.00000  Uiso   1.00
C881   C     0.50305   0.61644   0.75047   0.00000  Uiso   1.00
C882   C     0.50273   0.88443   0.75039   0.00000  Uiso   1.00
C883   C     0.47011   0.59111   0.71655   0.00000  Uiso   1.00
C884   C     0.48948   0.90828   0.78898   0.00000  Uiso   1.00
C885   C     0.47309   0.54508   0.71735   0.00000  Uiso   1.00
C886   C     0.49299   0.95448   0.78924   0.00000  Uiso   1.00
C887   C     0.51020   0.52475   0.75106   0.00000  Uiso   1.00
C888   C     0.51094   0.97670   0.75155   0.00000  Uiso   1.00
H889   H     0.65802   0.74493   0.69503   0.00000  Uiso   1.00
H890   H     0.34213   0.75593   0.80498   0.00000  Uiso   1.00
H891   H     0.56535   0.61647   0.81056   0.00000  Uiso   1.00
H892   H     0.52994   0.88868   0.68232   0.00000  Uiso   1.00
H893   H     0.44159   0.60685   0.69029   0.00000  Uiso   1.00
H894   H     0.47574   0.89133   0.81843   0.00000  Uiso   1.00
H895   H     0.44661   0.52520   0.69177   0.00000  Uiso   1.00
H896   H     0.48130   0.97301   0.81851   0.00000  Uiso   1.00
H897   H     0.57795   0.77746   0.54499   0.00000  Uiso   1.00
H898   H     0.45958   0.68647   0.95958   0.00000  Uiso   1.00
N899   N     0.50000   0.74999   0.62624   0.00000  Uiso   1.00
N900   N     0.50000   0.75001   0.87377   0.00000  Uiso   1.00
O901   O     0.50000   0.68454   0.78974   0.00000  Uiso   1.00
O902   O     0.50000   0.81547   0.71026   0.00000  Uiso   1.00
O903   O     0.50000   0.68453   0.71026   0.00000  Uiso   1.00
O904   O     0.50000   0.81547   0.78974   0.00000  Uiso   1.00
O905   O     0.42392   0.75000   0.78045   0.00000  Uiso   1.00
O906   O     0.57608   0.75000   0.71956   0.00000  Uiso   1.00
O907   O     0.42392   0.75000   0.70097   0.00000  Uiso   1.00
O908   O     0.57608   0.75001   0.79904   0.00000  Uiso   1.00
Zn909  Zn    0.50000   0.75001   0.80307   0.00000  Uiso   1.00
Zn910  Zn    0.50000   0.75000   0.69693   0.00000  Uiso   1.00
I911   I     0.60320   0.52174   0.83509   0.00000  Uiso   1.00
I912   I     0.55532   0.98425   0.65584   0.00000  Uiso   1.00
O913   O     0.41016   0.71883   0.51748   0.00000  Uiso   1.00
C914   C     0.37678   0.75541   0.50674   0.00000  Uiso   1.00
H915   H     0.39517   0.78079   0.98550   0.00000  Uiso   1.00
H916   H     0.36748   0.77152   0.53968   0.00000  Uiso   1.00
C917   C     0.65868   0.73886   0.97774   0.00000  Uiso   1.00
H918   H     0.63846   0.71447   0.99853   0.00000  Uiso   1.00
H919   H     0.63271   0.76760   0.96853   0.00000  Uiso   1.00
H920   H     0.66638   0.72255   0.94453   0.00000  Uiso   1.00
O921   O     0.54509   0.82301   0.97647   0.00000  Uiso   1.00
C922   C     0.50573   0.85485   0.97832   0.00000  Uiso   1.00
H923   H     0.47626   0.84235   0.50029   0.00000  Uiso   1.00
H924   H     0.48524   0.86297   0.94215   0.00000  Uiso   1.00
C925   C     0.53115   0.89783   0.50076   0.00000  Uiso   1.00
H926   H     0.55981   0.91166   0.97884   0.00000  Uiso   1.00
H927   H     0.50048   0.92293   0.50319   0.00000  Uiso   1.00
H928   H     0.55203   0.89115   0.53692   0.00000  Uiso   1.00
I929   I     0.40094   0.68760   0.61958   0.00000  Uiso   1.00
I930   I     0.58035   0.82908   0.87691   0.00000  Uiso   1.00
O931   O     0.58578   0.78335   0.63787   0.00000  Uiso   1.00
C932   C     0.59583   0.82962   0.63233   0.00000  Uiso   1.00
H933   H     0.59940   0.84553   0.66790   0.00000  Uiso   1.00
H934   H     0.56420   0.84729   0.60886   0.00000  Uiso   1.00
C935   C     0.64837   0.83697   0.61464   0.00000  Uiso   1.00
H936   H     0.64610   0.82446   0.57776   0.00000  Uiso   1.00
H937   H     0.65860   0.87330   0.61526   0.00000  Uiso   1.00
H938   H     0.34659   0.81927   0.63780   0.00000  Uiso   1.00
O939   O     0.45015   0.68210   0.86529   0.00000  Uiso   1.00
C940   C     0.39659   0.67656   0.87045   0.00000  Uiso   1.00
H941   H     0.37659   0.70928   0.87009   0.00000  Uiso   1.00
H942   H     0.39271   0.65881   0.90393   0.00000  Uiso   1.00
C943   C     0.36859   0.64814   0.82943   0.00000  Uiso   1.00
H944   H     0.38599   0.61443   0.83013   0.00000  Uiso   1.00
H945   H     0.65949   0.64443   0.83239   0.00000  Uiso   1.00
H946   H     0.37260   0.66425   0.79515   0.00000  Uiso   1.00
C947   C     0.83342   0.66407   0.74997   0.00000  Uiso   1.00
C948   C     0.83345   0.83619   0.75007   0.00000  Uiso   1.00
C949   C     0.78869   0.73405   0.54622   0.00000  Uiso   1.00
C950   C     0.85602   0.78626   0.95074   0.00000  Uiso   1.00
C951   C     0.79204   0.73046   0.59593   0.00000  Uiso   1.00
C952   C     0.85994   0.78317   0.90204   0.00000  Uiso   1.00
C953   C     0.87485   0.76864   0.60763   0.00000  Uiso   1.00
C954   C     0.80689   0.71679   0.89388   0.00000  Uiso   1.00
C955   C     0.87579   0.76695   0.55817   0.00000  Uiso   1.00
C956   C     0.80883   0.71555   0.94382   0.00000  Uiso   1.00
C957   C     0.83204   0.75087   0.52633   0.00000  Uiso   1.00
C958   C     0.83212   0.75100   0.97308   0.00000  Uiso   1.00
C959   C     0.73376   0.74994   0.73758   0.00000  Uiso   1.00
C960   C     0.93293   0.75039   0.76243   0.00000  Uiso   1.00
C961   C     0.67866   0.74895   0.73099   0.00000  Uiso   1.00
C962   C     0.98806   0.75195   0.76902   0.00000  Uiso   1.00
C963   C     0.87728   0.55024   0.78483   0.00000  Uiso   1.00
C964   C     0.85834   0.95297   0.71307   0.00000  Uiso   1.00
C965   C     0.87292   0.59631   0.78472   0.00000  Uiso   1.00
C966   C     0.85326   0.90685   0.71238   0.00000  Uiso   1.00
C967   C     0.83639   0.61644   0.75047   0.00000  Uiso   1.00
C968   C     0.83606   0.88443   0.75039   0.00000  Uiso   1.00
C969   C     0.80344   0.59111   0.71655   0.00000  Uiso   1.00
C970   C     0.82281   0.90828   0.78898   0.00000  Uiso   1.00
C971   C     0.80642   0.54508   0.71735   0.00000  Uiso   1.00
C972   C     0.82632   0.95448   0.78924   0.00000  Uiso   1.00
C973   C     0.84353   0.52475   0.75106   0.00000  Uiso   1.00
C974   C     0.84428   0.97670   0.75155   0.00000  Uiso   1.00
H975   H     0.99135   0.74493   0.69503   0.00000  Uiso   1.00
H976   H     0.67546   0.75593   0.80498   0.00000  Uiso   1.00
H977   H     0.89868   0.61647   0.81056   0.00000  Uiso   1.00
H978   H     0.86328   0.88868   0.68232   0.00000  Uiso   1.00
H979   H     0.77493   0.60685   0.69029   0.00000  Uiso   1.00
H980   H     0.80907   0.89133   0.81843   0.00000  Uiso   1.00
H981   H     0.77994   0.52520   0.69177   0.00000  Uiso   1.00
H982   H     0.81464   0.97301   0.81851   0.00000  Uiso   1.00
H983   H     0.91129   0.77746   0.54499   0.00000  Uiso   1.00
H984   H     0.79292   0.68647   0.95958   0.00000  Uiso   1.00
N985   N     0.83333   0.74999   0.62624   0.00000  Uiso   1.00
N986   N     0.83333   0.75001   0.87377   0.00000  Uiso   1.00
O987   O     0.83334   0.68454   0.78974   0.00000  Uiso   1.00
O988   O     0.83333   0.81547   0.71026   0.00000  Uiso   1.00
O989   O     0.83334   0.68453   0.71026   0.00000  Uiso   1.00
O990   O     0.83333   0.81547   0.78974   0.00000  Uiso   1.00
O991   O     0.75725   0.75000   0.78045   0.00000  Uiso   1.00
O992   O     0.90942   0.75000   0.71956   0.00000  Uiso   1.00
O993   O     0.75725   0.75000   0.70097   0.00000  Uiso   1.00
O994   O     0.90942   0.75001   0.79904   0.00000  Uiso   1.00
Zn995  Zn    0.83333   0.75001   0.80307   0.00000  Uiso   1.00
Zn996  Zn    0.83333   0.75000   0.69693   0.00000  Uiso   1.00
I997   I     0.93654   0.52174   0.83509   0.00000  Uiso   1.00
I998   I     0.88866   0.98425   0.65584   0.00000  Uiso   1.00
O999   O     0.74349   0.71883   0.51748   0.00000  Uiso   1.00
C1000  C     0.71011   0.75541   0.50674   0.00000  Uiso   1.00
H1001  H     0.72851   0.78079   0.98550   0.00000  Uiso   1.00
H1002  H     0.70082   0.77152   0.53968   0.00000  Uiso   1.00
C1003  C     0.99202   0.73886   0.97774   0.00000  Uiso   1.00
H1004  H     0.97179   0.71447   0.99853   0.00000  Uiso   1.00
H1005  H     0.96604   0.76760   0.96853   0.00000  Uiso   1.00
H1006  H     0.99972   0.72255   0.94453   0.00000  Uiso   1.00
O1007  O     0.87842   0.82301   0.97647   0.00000  Uiso   1.00
C1008  C     0.83906   0.85485   0.97832   0.00000  Uiso   1.00
H1009  H     0.80959   0.84235   0.50029   0.00000  Uiso   1.00
H1010  H     0.81858   0.86297   0.94215   0.00000  Uiso   1.00
C1011  C     0.86448   0.89783   0.50076   0.00000  Uiso   1.00
H1012  H     0.89315   0.91166   0.97884   0.00000  Uiso   1.00
H1013  H     0.83381   0.92293   0.50319   0.00000  Uiso   1.00
H1014  H     0.88536   0.89115   0.53692   0.00000  Uiso   1.00
I1015  I     0.73427   0.68760   0.61958   0.00000  Uiso   1.00
I1016  I     0.91368   0.82908   0.87691   0.00000  Uiso   1.00
O1017  O     0.91912   0.78335   0.63787   0.00000  Uiso   1.00
C1018  C     0.92916   0.82962   0.63233   0.00000  Uiso   1.00
H1019  H     0.93273   0.84553   0.66790   0.00000  Uiso   1.00
H1020  H     0.89754   0.84729   0.60886   0.00000  Uiso   1.00
C1021  C     0.98171   0.83697   0.61464   0.00000  Uiso   1.00
H1022  H     0.97943   0.82446   0.57776   0.00000  Uiso   1.00
H1023  H     0.99194   0.87330   0.61526   0.00000  Uiso   1.00
H1024  H     0.67993   0.81927   0.63780   0.00000  Uiso   1.00
O1025  O     0.78348   0.68210   0.86529   0.00000  Uiso   1.00
C1026  C     0.72992   0.67656   0.87045   0.00000  Uiso   1.00
H1027  H     0.70992   0.70928   0.87009   0.00000  Uiso   1.00
H1028  H     0.72604   0.65881   0.90393   0.00000  Uiso   1.00
C1029  C     0.70193   0.64814   0.82943   0.00000  Uiso   1.00
H1030  H     0.71932   0.61443   0.83013   0.00000  Uiso   1.00
H1031  H     0.99282   0.64443   0.83239   0.00000  Uiso   1.00
H1032  H     0.70593   0.66425   0.79515   0.00000  Uiso   1.00
loop_
_geom_bond_atom_site_label_1
_geom_bond_atom_site_label_2
_geom_bond_distance
_geom_bond_site_symmetry_2
_ccdc_geom_bond_type
C1     C21     1.427   .     S
C1     O43     1.290   .     A
C1     O41     1.287   .     A
C2     O44     1.293   .     A
C2     C22     1.442   .     S
C2     O42     1.291   .     A
C3     C5      1.413   .     A
C3     O53     1.382   .     S
C3     C11     1.409   .     A
C4     C12     1.410   .     A
C4     O61     1.382   .     S
C4     C6      1.412   .     A
C5     I69     2.127   .     S
C5     N39     1.379   .     A
C6     I70     2.127   .     S
C6     N40     1.376   .     A
C7     O71     1.381   .     S
C7     C9      1.416   .     A
C7     N39     1.371   .     A
C8     O79     1.384   .     S
C8     C10     1.419   .     A
C8     N40     1.367   .     A
C9     H37     1.079   .     S
C9     C11     1.407   .     A
C10    C12     1.410   .     A
C10    H38     1.080   .     S
C11    C528    1.520   1_554 S
C12    C527    1.520   .     S
C13    O47     1.284   .     A
C13    C15     1.400   .     S
C13    O45     1.279   .     A
C14    O46     1.280   .     A
C14    O48     1.284   .     A
C14    C16     1.400   .     S
C15    C188    1.330   1_455 S
C15    H201    1.086   1_455 S
C16    C101    1.330   .     S
C16    H116    1.087   .     S
C17    I51     2.124   .     S
C17    C27     1.403   .     A
C17    C19     1.384   .     A
C18    I52     2.125   .     S
C18    C20     1.381   .     A
C18    C28     1.402   .     A
C19    H31     1.083   .     S
C19    C21     1.397   .     A
C20    H32     1.080   .     S
C20    C22     1.400   .     A
C21    C23     1.393   .     A
C22    C24     1.398   .     A
C23    H33     1.083   .     S
C23    C25     1.379   .     A
C24    C26     1.381   .     A
C24    H34     1.083   .     S
C25    H35     1.084   .     S
C25    C27     1.399   .     A
C26    H36     1.084   .     S
C26    C28     1.398   .     A
C27    C286    1.436   1_545 S
C28    C285    1.436   .     S
H29    C101    1.086   .     S
H30    C188    1.087   1_455 S
N39    Zn50    2.018   .     S
N40    Zn49    2.018   .     S
O41    Zn49    1.991   .     S
O42    Zn50    1.991   .     S
O43    Zn50    1.995   .     S
O44    Zn49    1.995   .     S
O45    Zn49    1.964   .     S
O46    Zn50    1.964   .     S
O47    Zn50    1.977   .     S
O48    Zn49    1.977   .     S
O53    C54     1.412   .     S
C54    H56     1.115   .     S
C54    H571    1.114   1_554 S
C54    C745    1.520   1_454 S
H55    C570    1.114   .     S
C57    H59     1.108   .     S
C57    H60     1.110   .     S
C57    H58     1.111   .     S
C57    C656    1.520   .     S
O61    C62     1.412   .     S
C62    H64     1.116   .     S
C62    H579    1.113   .     S
C62    C581    1.521   .     S
H63    C578    1.113   1_554 S
C65    H67     1.110   .     S
C65    H68     1.110   .     S
C65    C578    1.521   1_554 S
C65    H582    1.111   1_554 S
H66    C581    1.111   .     S
O71    C72     1.415   .     S
C72    H74     1.116   .     S
C72    C75     1.524   .     S
C72    H73     1.109   .     S
C75    H76     1.108   .     S
C75    H77     1.110   .     S
C75    H164    1.111   .     S
H78    C247    1.111   1_455 S
O79    C80     1.413   .     S
C80    C83     1.522   .     S
C80    H82     1.112   .     S
C80    H81     1.115   .     S
C83    H84     1.111   .     S
C83    H86     1.110   .     S
C83    H257    1.110   1_455 S
H85    C169    1.110   .     S
C87    C107    1.427   .     S
C87    O129    1.290   .     A
C87    O127    1.287   .     A
C88    O130    1.293   .     A
C88    C108    1.442   .     S
C88    O128    1.291   .     A
C89    C91     1.413   .     A
C89    O139    1.382   .     S
C89    C97     1.409   .     A
C90    C98     1.410   .     A
C90    O147    1.382   .     S
C90    C92     1.412   .     A
C91    I155    2.127   .     S
C91    N125    1.379   .     A
C92    I156    2.127   .     S
C92    N126    1.376   .     A
C93    O157    1.381   .     S
C93    C95     1.416   .     A
C93    N125    1.371   .     A
C94    O165    1.384   .     S
C94    C96     1.419   .     A
C94    N126    1.367   .     A
C95    H123    1.079   .     S
C95    C97     1.407   .     A
C96    C98     1.410   .     A
C96    H124    1.080   .     S
C97    C614    1.520   1_554 S
C98    C613    1.520   .     S
C99    O133    1.284   .     A
C99    C101    1.400   .     S
C99    O131    1.279   .     A
C100   O132    1.280   .     A
C100   O134    1.284   .     A
C100   C102    1.400   .     S
C102   C187    1.330   .     S
C102   H202    1.087   .     S
C103   I137    2.124   .     S
C103   C113    1.403   .     A
C103   C105    1.384   .     A
C104   I138    2.125   .     S
C104   C106    1.381   .     A
C104   C114    1.402   .     A
C105   H117    1.083   .     S
C105   C107    1.397   .     A
C106   H118    1.080   .     S
C106   C108    1.400   .     A
C107   C109    1.393   .     A
C108   C110    1.398   .     A
C109   H119    1.083   .     S
C109   C111    1.379   .     A
C110   C112    1.381   .     A
C110   H120    1.083   .     S
C111   H121    1.084   .     S
C111   C113    1.399   .     A
C112   H122    1.084   .     S
C112   C114    1.398   .     A
C113   C372    1.436   1_545 S
C114   C371    1.436   .     S
H115   C187    1.086   .     S
N125   Zn136   2.018   .     S
N126   Zn135   2.018   .     S
O127   Zn135   1.991   .     S
O128   Zn136   1.991   .     S
O129   Zn136   1.995   .     S
O130   Zn135   1.995   .     S
O131   Zn135   1.964   .     S
O132   Zn136   1.964   .     S
O133   Zn136   1.977   .     S
O134   Zn135   1.977   .     S
O139   C140    1.412   .     S
C140   H142    1.115   .     S
C140   H657    1.114   1_554 S
C140   C573    1.520   1_554 S
H141   C656    1.114   .     S
C143   H145    1.108   .     S
C143   H146    1.110   .     S
C143   H144    1.111   .     S
C143   C742    1.520   .     S
O147   C148    1.412   .     S
C148   H150    1.116   .     S
C148   H665    1.113   .     S
C148   C667    1.521   .     S
H149   C664    1.113   1_554 S
C151   H153    1.110   .     S
C151   H154    1.110   .     S
C151   C664    1.521   1_554 S
C151   H668    1.111   1_554 S
H152   C667    1.111   .     S
O157   C158    1.415   .     S
C158   H160    1.116   .     S
C158   C161    1.524   .     S
C158   H159    1.109   .     S
C161   H162    1.108   .     S
C161   H163    1.110   .     S
C161   H250    1.111   .     S
O165   C166    1.413   .     S
C166   C169    1.522   .     S
C166   H168    1.112   .     S
C166   H167    1.115   .     S
C169   H170    1.111   .     S
C169   H172    1.110   .     S
H171   C255    1.110   .     S
C173   C193    1.427   .     S
C173   O215    1.290   .     A
C173   O213    1.287   .     A
C174   O216    1.293   .     A
C174   C194    1.442   .     S
C174   O214    1.291   .     A
C175   C177    1.413   .     A
C175   O225    1.382   .     S
C175   C183    1.409   .     A
C176   C184    1.410   .     A
C176   O233    1.382   .     S
C176   C178    1.412   .     A
C177   I241    2.127   .     S
C177   N211    1.379   .     A
C178   I242    2.127   .     S
C178   N212    1.376   .     A
C179   O243    1.381   .     S
C179   C181    1.416   .     A
C179   N211    1.371   .     A
C180   O251    1.384   .     S
C180   C182    1.419   .     A
C180   N212    1.367   .     A
C181   H209    1.079   .     S
C181   C183    1.407   .     A
C182   C184    1.410   .     A
C182   H210    1.080   .     S
C183   C700    1.520   1_554 S
C184   C699    1.520   .     S
C185   O219    1.284   .     A
C185   C187    1.400   .     S
C185   O217    1.279   .     A
C186   O218    1.280   .     A
C186   O220    1.284   .     A
C186   C188    1.400   .     S
C188   C15     1.330   1_655 S
C188   H30     1.087   1_655 S
C189   I223    2.124   .     S
C189   C199    1.403   .     A
C189   C191    1.384   .     A
C190   I224    2.125   .     S
C190   C192    1.381   .     A
C190   C200    1.402   .     A
C191   H203    1.083   .     S
C191   C193    1.397   .     A
C192   H204    1.080   .     S
C192   C194    1.400   .     A
C193   C195    1.393   .     A
C194   C196    1.398   .     A
C195   H205    1.083   .     S
C195   C197    1.379   .     A
C196   C198    1.381   .     A
C196   H206    1.083   .     S
C197   H207    1.084   .     S
C197   C199    1.399   .     A
C198   H208    1.084   .     S
C198   C200    1.398   .     A
C199   C458    1.436   1_545 S
C200   C457    1.436   .     S
H201   C15     1.086   1_655 S
N211   Zn222   2.018   .     S
N212   Zn221   2.018   .     S
O213   Zn221   1.991   .     S
O214   Zn222   1.991   .     S
O215   Zn222   1.995   .     S
O216   Zn221   1.995   .     S
O217   Zn221   1.964   .     S
O218   Zn222   1.964   .     S
O219   Zn222   1.977   .     S
O220   Zn221   1.977   .     S
O225   C226    1.412   .     S
C226   H228    1.115   .     S
C226   H743    1.114   1_554 S
C226   C659    1.520   1_554 S
H227   C742    1.114   .     S
C229   H231    1.108   .     S
C229   H232    1.110   .     S
C229   H230    1.111   .     S
C229   C570    1.520   1_655 S
O233   C234    1.412   .     S
C234   H236    1.116   .     S
C234   H751    1.113   .     S
C234   C753    1.521   .     S
H235   C750    1.113   1_554 S
C237   H239    1.110   .     S
C237   H240    1.110   .     S
C237   C750    1.521   1_554 S
C237   H754    1.111   1_554 S
H238   C753    1.111   .     S
O243   C244    1.415   .     S
C244   H246    1.116   .     S
C244   C247    1.524   .     S
C244   H245    1.109   .     S
C247   H248    1.108   .     S
C247   H249    1.110   .     S
C247   H78     1.111   1_655 S
O251   C252    1.413   .     S
C252   C255    1.522   .     S
C252   H254    1.112   .     S
C252   H253    1.115   .     S
C255   H256    1.111   .     S
C255   H258    1.110   .     S
H257   C83     1.110   1_655 S
C259   C279    1.427   .     S
C259   O301    1.290   .     A
C259   O299    1.287   .     A
C260   O302    1.293   .     A
C260   C280    1.442   .     S
C260   O300    1.291   .     A
C261   C263    1.413   .     A
C261   O311    1.382   .     S
C261   C269    1.409   .     A
C262   C270    1.410   .     A
C262   O319    1.382   .     S
C262   C264    1.412   .     A
C263   I327    2.127   .     S
C263   N297    1.379   .     A
C264   I328    2.127   .     S
C264   N298    1.376   .     A
C265   O329    1.381   .     S
C265   C267    1.416   .     A
C265   N297    1.371   .     A
C266   O337    1.384   .     S
C266   C268    1.419   .     A
C266   N298    1.367   .     A
C267   H295    1.079   .     S
C267   C269    1.407   .     A
C268   C270    1.410   .     A
C268   H296    1.080   .     S
C269   C786    1.520   1_554 S
C270   C785    1.520   .     S
C271   O305    1.284   .     A
C271   C273    1.400   .     S
C271   O303    1.279   .     A
C272   O304    1.280   .     A
C272   O306    1.284   .     A
C272   C274    1.400   .     S
C273   C446    1.330   1_455 S
C273   H459    1.086   1_455 S
C274   C359    1.330   .     S
C274   H374    1.087   .     S
C275   I309    2.124   .     S
C275   C285    1.403   .     A
C275   C277    1.384   .     A
C276   I310    2.125   .     S
C276   C278    1.381   .     A
C276   C286    1.402   .     A
C277   H289    1.083   .     S
C277   C279    1.397   .     A
C278   H290    1.080   .     S
C278   C280    1.400   .     A
C279   C281    1.393   .     A
C280   C282    1.398   .     A
C281   H291    1.083   .     S
C281   C283    1.379   .     A
C282   C284    1.381   .     A
C282   H292    1.083   .     S
C283   H293    1.084   .     S
C283   C285    1.399   .     A
C284   H294    1.084   .     S
C284   C286    1.398   .     A
C286   C27     1.436   1_565 S
H287   C359    1.086   .     S
H288   C446    1.087   1_455 S
N297   Zn308   2.018   .     S
N298   Zn307   2.018   .     S
O299   Zn307   1.991   .     S
O300   Zn308   1.991   .     S
O301   Zn308   1.995   .     S
O302   Zn307   1.995   .     S
O303   Zn307   1.964   .     S
O304   Zn308   1.964   .     S
O305   Zn308   1.977   .     S
O306   Zn307   1.977   .     S
O311   C312    1.412   .     S
C312   H314    1.115   .     S
C312   H829    1.114   1_554 S
C312   C1003   1.520   1_454 S
H313   C828    1.114   .     S
C315   H317    1.108   .     S
C315   H318    1.110   .     S
C315   H316    1.111   .     S
C315   C914    1.520   .     S
O319   C320    1.412   .     S
C320   H322    1.116   .     S
C320   H837    1.113   .     S
C320   C839    1.521   .     S
H321   C836    1.113   1_554 S
C323   H325    1.110   .     S
C323   H326    1.110   .     S
C323   C836    1.521   1_554 S
C323   H840    1.111   1_554 S
H324   C839    1.111   .     S
O329   C330    1.415   .     S
C330   H332    1.116   .     S
C330   C333    1.524   .     S
C330   H331    1.109   .     S
C333   H334    1.108   .     S
C333   H335    1.110   .     S
C333   H422    1.111   .     S
H336   C505    1.111   1_455 S
O337   C338    1.413   .     S
C338   C341    1.522   .     S
C338   H340    1.112   .     S
C338   H339    1.115   .     S
C341   H342    1.111   .     S
C341   H344    1.110   .     S
C341   H515    1.110   1_455 S
H343   C427    1.110   .     S
C345   C365    1.427   .     S
C345   O387    1.290   .     A
C345   O385    1.287   .     A
C346   O388    1.293   .     A
C346   C366    1.442   .     S
C346   O386    1.291   .     A
C347   C349    1.413   .     A
C347   O397    1.382   .     S
C347   C355    1.409   .     A
C348   C356    1.410   .     A
C348   O405    1.382   .     S
C348   C350    1.412   .     A
C349   I413    2.127   .     S
C349   N383    1.379   .     A
C350   I414    2.127   .     S
C350   N384    1.376   .     A
C351   O415    1.381   .     S
C351   C353    1.416   .     A
C351   N383    1.371   .     A
C352   O423    1.384   .     S
C352   C354    1.419   .     A
C352   N384    1.367   .     A
C353   H381    1.079   .     S
C353   C355    1.407   .     A
C354   C356    1.410   .     A
C354   H382    1.080   .     S
C355   C872    1.520   1_554 S
C356   C871    1.520   .     S
C357   O391    1.284   .     A
C357   C359    1.400   .     S
C357   O389    1.279   .     A
C358   O390    1.280   .     A
C358   O392    1.284   .     A
C358   C360    1.400   .     S
C360   C445    1.330   .     S
C360   H460    1.087   .     S
C361   I395    2.124   .     S
C361   C371    1.403   .     A
C361   C363    1.384   .     A
C362   I396    2.125   .     S
C362   C364    1.381   .     A
C362   C372    1.402   .     A
C363   H375    1.083   .     S
C363   C365    1.397   .     A
C364   H376    1.080   .     S
C364   C366    1.400   .     A
C365   C367    1.393   .     A
C366   C368    1.398   .     A
C367   H377    1.083   .     S
C367   C369    1.379   .     A
C368   C370    1.381   .     A
C368   H378    1.083   .     S
C369   H379    1.084   .     S
C369   C371    1.399   .     A
C370   H380    1.084   .     S
C370   C372    1.398   .     A
C372   C113    1.436   1_565 S
H373   C445    1.086   .     S
N383   Zn394   2.018   .     S
N384   Zn393   2.018   .     S
O385   Zn393   1.991   .     S
O386   Zn394   1.991   .     S
O387   Zn394   1.995   .     S
O388   Zn393   1.995   .     S
O389   Zn393   1.964   .     S
O390   Zn394   1.964   .     S
O391   Zn394   1.977   .     S
O392   Zn393   1.977   .     S
O397   C398    1.412   .     S
C398   H400    1.115   .     S
C398   H915    1.114   1_554 S
C398   C831    1.520   1_554 S
H399   C914    1.114   .     S
C401   H403    1.108   .     S
C401   H404    1.110   .     S
C401   H402    1.111   .     S
C401   C1000   1.520   .     S
O405   C406    1.412   .     S
C406   H408    1.116   .     S
C406   H923    1.113   .     S
C406   C925    1.521   .     S
H407   C922    1.113   1_554 S
C409   H411    1.110   .     S
C409   H412    1.110   .     S
C409   C922    1.521   1_554 S
C409   H926    1.111   1_554 S
H410   C925    1.111   .     S
O415   C416    1.415   .     S
C416   H418    1.116   .     S
C416   C419    1.524   .     S
C416   H417    1.109   .     S
C419   H420    1.108   .     S
C419   H421    1.110   .     S
C419   H508    1.111   .     S
O423   C424    1.413   .     S
C424   C427    1.522   .     S
C424   H426    1.112   .     S
C424   H425    1.115   .     S
C427   H428    1.111   .     S
C427   H430    1.110   .     S
H429   C513    1.110   .     S
C431   C451    1.427   .     S
C431   O473    1.290   .     A
C431   O471    1.287   .     A
C432   O474    1.293   .     A
C432   C452    1.442   .     S
C432   O472    1.291   .     A
C433   C435    1.413   .     A
C433   O483    1.382   .     S
C433   C441    1.409   .     A
C434   C442    1.410   .     A
C434   O491    1.382   .     S
C434   C436    1.412   .     A
C435   I499    2.127   .     S
C435   N469    1.379   .     A
C436   I500    2.127   .     S
C436   N470    1.376   .     A
C437   O501    1.381   .     S
C437   C439    1.416   .     A
C437   N469    1.371   .     A
C438   O509    1.384   .     S
C438   C440    1.419   .     A
C438   N470    1.367   .     A
C439   H467    1.079   .     S
C439   C441    1.407   .     A
C440   C442    1.410   .     A
C440   H468    1.080   .     S
C441   C958    1.520   1_554 S
C442   C957    1.520   .     S
C443   O477    1.284   .     A
C443   C445    1.400   .     S
C443   O475    1.279   .     A
C444   O476    1.280   .     A
C444   O478    1.284   .     A
C444   C446    1.400   .     S
C446   C273    1.330   1_655 S
C446   H288    1.087   1_655 S
C447   I481    2.124   .     S
C447   C457    1.403   .     A
C447   C449    1.384   .     A
C448   I482    2.125   .     S
C448   C450    1.381   .     A
C448   C458    1.402   .     A
C449   H461    1.083   .     S
C449   C451    1.397   .     A
C450   H462    1.080   .     S
C450   C452    1.400   .     A
C451   C453    1.393   .     A
C452   C454    1.398   .     A
C453   H463    1.083   .     S
C453   C455    1.379   .     A
C454   C456    1.381   .     A
C454   H464    1.083   .     S
C455   H465    1.084   .     S
C455   C457    1.399   .     A
C456   H466    1.084   .     S
C456   C458    1.398   .     A
C458   C199    1.436   1_565 S
H459   C273    1.086   1_655 S
N469   Zn480   2.018   .     S
N470   Zn479   2.018   .     S
O471   Zn479   1.991   .     S
O472   Zn480   1.991   .     S
O473   Zn480   1.995   .     S
O474   Zn479   1.995   .     S
O475   Zn479   1.964   .     S
O476   Zn480   1.964   .     S
O477   Zn480   1.977   .     S
O478   Zn479   1.977   .     S
O483   C484    1.412   .     S
C484   H486    1.115   .     S
C484   H1001   1.114   1_554 S
C484   C917    1.520   1_554 S
H485   C1000   1.114   .     S
C487   H489    1.108   .     S
C487   H490    1.110   .     S
C487   H488    1.111   .     S
C487   C828    1.520   1_655 S
O491   C492    1.412   .     S
C492   H494    1.116   .     S
C492   H1009   1.113   .     S
C492   C1011   1.521   .     S
H493   C1008   1.113   1_554 S
C495   H497    1.110   .     S
C495   H498    1.110   .     S
C495   C1008   1.521   1_554 S
C495   H1012   1.111   1_554 S
H496   C1011   1.111   .     S
O501   C502    1.415   .     S
C502   H504    1.116   .     S
C502   C505    1.524   .     S
C502   H503    1.109   .     S
C505   H506    1.108   .     S
C505   H507    1.110   .     S
C505   H336    1.111   1_655 S
O509   C510    1.413   .     S
C510   C513    1.522   .     S
C510   H512    1.112   .     S
C510   H511    1.115   .     S
C513   H514    1.111   .     S
C513   H516    1.110   .     S
H515   C341    1.110   1_655 S
C517   C537    1.427   .     S
C517   O559    1.290   .     A
C517   O557    1.287   .     A
C518   O560    1.293   .     A
C518   C538    1.442   .     S
C518   O558    1.291   .     A
C519   C521    1.413   .     A
C519   O569    1.382   .     S
C519   C527    1.409   .     A
C520   C528    1.410   .     A
C520   O577    1.382   .     S
C520   C522    1.412   .     A
C521   I585    2.127   .     S
C521   N555    1.379   .     A
C522   I586    2.127   .     S
C522   N556    1.376   .     A
C523   O587    1.381   .     S
C523   C525    1.416   .     A
C523   N555    1.371   .     A
C524   O595    1.384   .     S
C524   C526    1.419   .     A
C524   N556    1.367   .     A
C525   H553    1.079   .     S
C525   C527    1.407   .     A
C526   C528    1.410   .     A
C526   H554    1.080   .     S
C528   C11     1.520   1_556 S
C529   O563    1.284   .     A
C529   C531    1.400   .     S
C529   O561    1.279   .     A
C530   O562    1.280   .     A
C530   O564    1.284   .     A
C530   C532    1.400   .     S
C531   C704    1.330   1_455 S
C531   H717    1.086   1_455 S
C532   C617    1.330   .     S
C532   H632    1.087   .     S
C533   I567    2.124   .     S
C533   C543    1.403   .     A
C533   C535    1.384   .     A
C534   I568    2.125   .     S
C534   C536    1.381   .     A
C534   C544    1.402   .     A
C535   H547    1.083   .     S
C535   C537    1.397   .     A
C536   H548    1.080   .     S
C536   C538    1.400   .     A
C537   C539    1.393   .     A
C538   C540    1.398   .     A
C539   H549    1.083   .     S
C539   C541    1.379   .     A
C540   C542    1.381   .     A
C540   H550    1.083   .     S
C541   H551    1.084   .     S
C541   C543    1.399   .     A
C542   H552    1.084   .     S
C542   C544    1.398   .     A
C543   C802    1.436   1_545 S
C544   C801    1.436   .     S
H545   C617    1.086   .     S
H546   C704    1.087   1_455 S
N555   Zn566   2.018   .     S
N556   Zn565   2.018   .     S
O557   Zn565   1.991   .     S
O558   Zn566   1.991   .     S
O559   Zn566   1.995   .     S
O560   Zn565   1.995   .     S
O561   Zn565   1.964   .     S
O562   Zn566   1.964   .     S
O563   Zn566   1.977   .     S
O564   Zn565   1.977   .     S
O569   C570    1.412   .     S
C570   H572    1.115   .     S
C570   C229    1.520   1_455 S
H571   C54     1.114   1_556 S
C573   H575    1.108   .     S
C573   H576    1.110   .     S
C573   H574    1.111   .     S
C573   C140    1.520   1_556 S
O577   C578    1.412   .     S
C578   H580    1.116   .     S
C578   H63     1.113   1_556 S
C578   C65     1.521   1_556 S
C581   H583    1.110   .     S
C581   H584    1.110   .     S
H582   C65     1.111   1_556 S
O587   C588    1.415   .     S
C588   H590    1.116   .     S
C588   C591    1.524   .     S
C588   H589    1.109   .     S
C591   H592    1.108   .     S
C591   H593    1.110   .     S
C591   H680    1.111   .     S
H594   C763    1.111   1_455 S
O595   C596    1.413   .     S
C596   C599    1.522   .     S
C596   H598    1.112   .     S
C596   H597    1.115   .     S
C599   H600    1.111   .     S
C599   H602    1.110   .     S
C599   H773    1.110   1_455 S
H601   C685    1.110   .     S
C603   C623    1.427   .     S
C603   O645    1.290   .     A
C603   O643    1.287   .     A
C604   O646    1.293   .     A
C604   C624    1.442   .     S
C604   O644    1.291   .     A
C605   C607    1.413   .     A
C605   O655    1.382   .     S
C605   C613    1.409   .     A
C606   C614    1.410   .     A
C606   O663    1.382   .     S
C606   C608    1.412   .     A
C607   I671    2.127   .     S
C607   N641    1.379   .     A
C608   I672    2.127   .     S
C608   N642    1.376   .     A
C609   O673    1.381   .     S
C609   C611    1.416   .     A
C609   N641    1.371   .     A
C610   O681    1.384   .     S
C610   C612    1.419   .     A
C610   N642    1.367   .     A
C611   H639    1.079   .     S
C611   C613    1.407   .     A
C612   C614    1.410   .     A
C612   H640    1.080   .     S
C614   C97     1.520   1_556 S
C615   O649    1.284   .     A
C615   C617    1.400   .     S
C615   O647    1.279   .     A
C616   O648    1.280   .     A
C616   O650    1.284   .     A
C616   C618    1.400   .     S
C618   C703    1.330   .     S
C618   H718    1.087   .     S
C619   I653    2.124   .     S
C619   C629    1.403   .     A
C619   C621    1.384   .     A
C620   I654    2.125   .     S
C620   C622    1.381   .     A
C620   C630    1.402   .     A
C621   H633    1.083   .     S
C621   C623    1.397   .     A
C622   H634    1.080   .     S
C622   C624    1.400   .     A
C623   C625    1.393   .     A
C624   C626    1.398   .     A
C625   H635    1.083   .     S
C625   C627    1.379   .     A
C626   C628    1.381   .     A
C626   H636    1.083   .     S
C627   H637    1.084   .     S
C627   C629    1.399   .     A
C628   H638    1.084   .     S
C628   C630    1.398   .     A
C629   C888    1.436   1_545 S
C630   C887    1.436   .     S
H631   C703    1.086   .     S
N641   Zn652   2.018   .     S
N642   Zn651   2.018   .     S
O643   Zn651   1.991   .     S
O644   Zn652   1.991   .     S
O645   Zn652   1.995   .     S
O646   Zn651   1.995   .     S
O647   Zn651   1.964   .     S
O648   Zn652   1.964   .     S
O649   Zn652   1.977   .     S
O650   Zn651   1.977   .     S
O655   C656    1.412   .     S
C656   H658    1.115   .     S
H657   C140    1.114   1_556 S
C659   H661    1.108   .     S
C659   H662    1.110   .     S
C659   H660    1.111   .     S
C659   C226    1.520   1_556 S
O663   C664    1.412   .     S
C664   H666    1.116   .     S
C664   H149    1.113   1_556 S
C664   C151    1.521   1_556 S
C667   H669    1.110   .     S
C667   H670    1.110   .     S
H668   C151    1.111   1_556 S
O673   C674    1.415   .     S
C674   H676    1.116   .     S
C674   C677    1.524   .     S
C674   H675    1.109   .     S
C677   H678    1.108   .     S
C677   H679    1.110   .     S
C677   H766    1.111   .     S
O681   C682    1.413   .     S
C682   C685    1.522   .     S
C682   H684    1.112   .     S
C682   H683    1.115   .     S
C685   H686    1.111   .     S
C685   H688    1.110   .     S
H687   C771    1.110   .     S
C689   C709    1.427   .     S
C689   O731    1.290   .     A
C689   O729    1.287   .     A
C690   O732    1.293   .     A
C690   C710    1.442   .     S
C690   O730    1.291   .     A
C691   C693    1.413   .     A
C691   O741    1.382   .     S
C691   C699    1.409   .     A
C692   C700    1.410   .     A
C692   O749    1.382   .     S
C692   C694    1.412   .     A
C693   I757    2.127   .     S
C693   N727    1.379   .     A
C694   I758    2.127   .     S
C694   N728    1.376   .     A
C695   O759    1.381   .     S
C695   C697    1.416   .     A
C695   N727    1.371   .     A
C696   O767    1.384   .     S
C696   C698    1.419   .     A
C696   N728    1.367   .     A
C697   H725    1.079   .     S
C697   C699    1.407   .     A
C698   C700    1.410   .     A
C698   H726    1.080   .     S
C700   C183    1.520   1_556 S
C701   O735    1.284   .     A
C701   C703    1.400   .     S
C701   O733    1.279   .     A
C702   O734    1.280   .     A
C702   O736    1.284   .     A
C702   C704    1.400   .     S
C704   C531    1.330   1_655 S
C704   H546    1.087   1_655 S
C705   I739    2.124   .     S
C705   C715    1.403   .     A
C705   C707    1.384   .     A
C706   I740    2.125   .     S
C706   C708    1.381   .     A
C706   C716    1.402   .     A
C707   H719    1.083   .     S
C707   C709    1.397   .     A
C708   H720    1.080   .     S
C708   C710    1.400   .     A
C709   C711    1.393   .     A
C710   C712    1.398   .     A
C711   H721    1.083   .     S
C711   C713    1.379   .     A
C712   C714    1.381   .     A
C712   H722    1.083   .     S
C713   H723    1.084   .     S
C713   C715    1.399   .     A
C714   H724    1.084   .     S
C714   C716    1.398   .     A
C715   C974    1.436   1_545 S
C716   C973    1.436   .     S
H717   C531    1.086   1_655 S
N727   Zn738   2.018   .     S
N728   Zn737   2.018   .     S
O729   Zn737   1.991   .     S
O730   Zn738   1.991   .     S
O731   Zn738   1.995   .     S
O732   Zn737   1.995   .     S
O733   Zn737   1.964   .     S
O734   Zn738   1.964   .     S
O735   Zn738   1.977   .     S
O736   Zn737   1.977   .     S
O741   C742    1.412   .     S
C742   H744    1.115   .     S
H743   C226    1.114   1_556 S
C745   H747    1.108   .     S
C745   H748    1.110   .     S
C745   H746    1.111   .     S
C745   C54     1.520   1_656 S
O749   C750    1.412   .     S
C750   H752    1.116   .     S
C750   H235    1.113   1_556 S
C750   C237    1.521   1_556 S
C753   H755    1.110   .     S
C753   H756    1.110   .     S
H754   C237    1.111   1_556 S
O759   C760    1.415   .     S
C760   H762    1.116   .     S
C760   C763    1.524   .     S
C760   H761    1.109   .     S
C763   H764    1.108   .     S
C763   H765    1.110   .     S
C763   H594    1.111   1_655 S
O767   C768    1.413   .     S
C768   C771    1.522   .     S
C768   H770    1.112   .     S
C768   H769    1.115   .     S
C771   H772    1.111   .     S
C771   H774    1.110   .     S
H773   C599    1.110   1_655 S
C775   C795    1.427   .     S
C775   O817    1.290   .     A
C775   O815    1.287   .     A
C776   O818    1.293   .     A
C776   C796    1.442   .     S
C776   O816    1.291   .     A
C777   C779    1.413   .     A
C777   O827    1.382   .     S
C777   C785    1.409   .     A
C778   C786    1.410   .     A
C778   O835    1.382   .     S
C778   C780    1.412   .     A
C779   I843    2.127   .     S
C779   N813    1.379   .     A
C780   I844    2.127   .     S
C780   N814    1.376   .     A
C781   O845    1.381   .     S
C781   C783    1.416   .     A
C781   N813    1.371   .     A
C782   O853    1.384   .     S
C782   C784    1.419   .     A
C782   N814    1.367   .     A
C783   H811    1.079   .     S
C783   C785    1.407   .     A
C784   C786    1.410   .     A
C784   H812    1.080   .     S
C786   C269    1.520   1_556 S
C787   O821    1.284   .     A
C787   C789    1.400   .     S
C787   O819    1.279   .     A
C788   O820    1.280   .     A
C788   O822    1.284   .     A
C788   C790    1.400   .     S
C789   C962    1.330   1_455 S
C789   H975    1.086   1_455 S
C790   C875    1.330   .     S
C790   H890    1.087   .     S
C791   I825    2.124   .     S
C791   C801    1.403   .     A
C791   C793    1.384   .     A
C792   I826    2.125   .     S
C792   C794    1.381   .     A
C792   C802    1.402   .     A
C793   H805    1.083   .     S
C793   C795    1.397   .     A
C794   H806    1.080   .     S
C794   C796    1.400   .     A
C795   C797    1.393   .     A
C796   C798    1.398   .     A
C797   H807    1.083   .     S
C797   C799    1.379   .     A
C798   C800    1.381   .     A
C798   H808    1.083   .     S
C799   H809    1.084   .     S
C799   C801    1.399   .     A
C800   H810    1.084   .     S
C800   C802    1.398   .     A
C802   C543    1.436   1_565 S
H803   C875    1.086   .     S
H804   C962    1.087   1_455 S
N813   Zn824   2.018   .     S
N814   Zn823   2.018   .     S
O815   Zn823   1.991   .     S
O816   Zn824   1.991   .     S
O817   Zn824   1.995   .     S
O818   Zn823   1.995   .     S
O819   Zn823   1.964   .     S
O820   Zn824   1.964   .     S
O821   Zn824   1.977   .     S
O822   Zn823   1.977   .     S
O827   C828    1.412   .     S
C828   H830    1.115   .     S
C828   C487    1.520   1_455 S
H829   C312    1.114   1_556 S
C831   H833    1.108   .     S
C831   H834    1.110   .     S
C831   H832    1.111   .     S
C831   C398    1.520   1_556 S
O835   C836    1.412   .     S
C836   H838    1.116   .     S
C836   H321    1.113   1_556 S
C836   C323    1.521   1_556 S
C839   H841    1.110   .     S
C839   H842    1.110   .     S
H840   C323    1.111   1_556 S
O845   C846    1.415   .     S
C846   H848    1.116   .     S
C846   C849    1.524   .     S
C846   H847    1.109   .     S
C849   H850    1.108   .     S
C849   H851    1.110   .     S
C849   H938    1.111   .     S
H852   C1021   1.111   1_455 S
O853   C854    1.413   .     S
C854   C857    1.522   .     S
C854   H856    1.112   .     S
C854   H855    1.115   .     S
C857   H858    1.111   .     S
C857   H860    1.110   .     S
C857   H1031   1.110   1_455 S
H859   C943    1.110   .     S
C861   C881    1.427   .     S
C861   O903    1.290   .     A
C861   O901    1.287   .     A
C862   O904    1.293   .     A
C862   C882    1.442   .     S
C862   O902    1.291   .     A
C863   C865    1.413   .     A
C863   O913    1.382   .     S
C863   C871    1.409   .     A
C864   C872    1.410   .     A
C864   O921    1.382   .     S
C864   C866    1.412   .     A
C865   I929    2.127   .     S
C865   N899    1.379   .     A
C866   I930    2.127   .     S
C866   N900    1.376   .     A
C867   O931    1.381   .     S
C867   C869    1.416   .     A
C867   N899    1.371   .     A
C868   O939    1.384   .     S
C868   C870    1.419   .     A
C868   N900    1.367   .     A
C869   H897    1.079   .     S
C869   C871    1.407   .     A
C870   C872    1.410   .     A
C870   H898    1.080   .     S
C872   C355    1.520   1_556 S
C873   O907    1.284   .     A
C873   C875    1.400   .     S
C873   O905    1.279   .     A
C874   O906    1.280   .     A
C874   O908    1.284   .     A
C874   C876    1.400   .     S
C876   C961    1.330   .     S
C876   H976    1.087   .     S
C877   I911    2.124   .     S
C877   C887    1.403   .     A
C877   C879    1.384   .     A
C878   I912    2.125   .     S
C878   C880    1.381   .     A
C878   C888    1.402   .     A
C879   H891    1.083   .     S
C879   C881    1.397   .     A
C880   H892    1.080   .     S
C880   C882    1.400   .     A
C881   C883    1.393   .     A
C882   C884    1.398   .     A
C883   H893    1.083   .     S
C883   C885    1.379   .     A
C884   C886    1.381   .     A
C884   H894    1.083   .     S
C885   H895    1.084   .     S
C885   C887    1.399   .     A
C886   H896    1.084   .     S
C886   C888    1.398   .     A
C888   C629    1.436   1_565 S
H889   C961    1.086   .     S
N899   Zn910   2.018   .     S
N900   Zn909   2.018   .     S
O901   Zn909   1.991   .     S
O902   Zn910   1.991   .     S
O903   Zn910   1.995   .     S
O904   Zn909   1.995   .     S
O905   Zn909   1.964   .     S
O906   Zn910   1.964   .     S
O907   Zn910   1.977   .     S
O908   Zn909   1.977   .     S
O913   C914    1.412   .     S
C914   H916    1.115   .     S
H915   C398    1.114   1_556 S
C917   H919    1.108   .     S
C917   H920    1.110   .     S
C917   H918    1.111   .     S
C917   C484    1.520   1_556 S
O921   C922    1.412   .     S
C922   H924    1.116   .     S
C922   H407    1.113   1_556 S
C922   C409    1.521   1_556 S
C925   H927    1.110   .     S
C925   H928    1.110   .     S
H926   C409    1.111   1_556 S
O931   C932    1.415   .     S
C932   H934    1.116   .     S
C932   C935    1.524   .     S
C932   H933    1.109   .     S
C935   H936    1.108   .     S
C935   H937    1.110   .     S
C935   H1024   1.111   .     S
O939   C940    1.413   .     S
C940   C943    1.522   .     S
C940   H942    1.112   .     S
C940   H941    1.115   .     S
C943   H944    1.111   .     S
C943   H946    1.110   .     S
H945   C1029   1.110   .     S
C947   C967    1.427   .     S
C947   O989    1.290   .     A
C947   O987    1.287   .     A
C948   O990    1.293   .     A
C948   C968    1.442   .     S
C948   O988    1.291   .     A
C949   C951    1.413   .     A
C949   O999    1.382   .     S
C949   C957    1.409   .     A
C950   C958    1.410   .     A
C950   O1007   1.382   .     S
C950   C952    1.412   .     A
C951   I1015   2.127   .     S
C951   N985    1.379   .     A
C952   I1016   2.127   .     S
C952   N986    1.376   .     A
C953   O1017   1.381   .     S
C953   C955    1.416   .     A
C953   N985    1.371   .     A
C954   O1025   1.384   .     S
C954   C956    1.419   .     A
C954   N986    1.367   .     A
C955   H983    1.079   .     S
C955   C957    1.407   .     A
C956   C958    1.410   .     A
C956   H984    1.080   .     S
C958   C441    1.520   1_556 S
C959   O993    1.284   .     A
C959   C961    1.400   .     S
C959   O991    1.279   .     A
C960   O992    1.280   .     A
C960   O994    1.284   .     A
C960   C962    1.400   .     S
C962   C789    1.330   1_655 S
C962   H804    1.087   1_655 S
C963   I997    2.124   .     S
C963   C973    1.403   .     A
C963   C965    1.384   .     A
C964   I998    2.125   .     S
C964   C966    1.381   .     A
C964   C974    1.402   .     A
C965   H977    1.083   .     S
C965   C967    1.397   .     A
C966   H978    1.080   .     S
C966   C968    1.400   .     A
C967   C969    1.393   .     A
C968   C970    1.398   .     A
C969   H979    1.083   .     S
C969   C971    1.379   .     A
C970   C972    1.381   .     A
C970   H980    1.083   .     S
C971   H981    1.084   .     S
C971   C973    1.399   .     A
C972   H982    1.084   .     S
C972   C974    1.398   .     A
C974   C715    1.436   1_565 S
H975   C789    1.086   1_655 S
N985   Zn996   2.018   .     S
N986   Zn995   2.018   .     S
O987   Zn995   1.991   .     S
O988   Zn996   1.991   .     S
O989   Zn996   1.995   .     S
O990   Zn995   1.995   .     S
O991   Zn995   1.964   .     S
O992   Zn996   1.964   .     S
O993   Zn996   1.977   .     S
O994   Zn995   1.977   .     S
O999   C1000   1.412   .     S
C1000  H1002   1.115   .     S
H1001  C484    1.114   1_556 S
C1003  H1005   1.108   .     S
C1003  H1006   1.110   .     S
C1003  H1004   1.111   .     S
C1003  C312    1.520   1_656 S
O1007  C1008   1.412   .     S
C1008  H1010   1.116   .     S
C1008  H493    1.113   1_556 S
C1008  C495    1.521   1_556 S
C1011  H1013   1.110   .     S
C1011  H1014   1.110   .     S
H1012  C495    1.111   1_556 S
O1017  C1018   1.415   .     S
C1018  H1020   1.116   .     S
C1018  C1021   1.524   .     S
C1018  H1019   1.109   .     S
C1021  H1022   1.108   .     S
C1021  H1023   1.110   .     S
C1021  H852    1.111   1_655 S
O1025  C1026   1.413   .     S
C1026  C1029   1.522   .     S
C1026  H1028   1.112   .     S
C1026  H1027   1.115   .     S
C1029  H1030   1.111   .     S
C1029  H1032   1.110   .     S
H1031  C857    1.110   1_655 S
