data_str_m3_o1_o10_pcu_sym.114
_audit_creation_date              2020-01-03
_audit_creation_method            'Materials Studio'
_symmetry_space_group_name_H-M    'P1'
_symmetry_Int_Tables_number       1
_symmetry_cell_setting            triclinic
loop_
_symmetry_equiv_pos_as_xyz
  x,y,z
_cell_length_a                    25.8338
_cell_length_b                    32.0654
_cell_length_c                    29.5441
_cell_angle_alpha                 89.9346
_cell_angle_beta                  97.5246
_cell_angle_gamma                 90.5202
loop_
_atom_site_label
_atom_site_type_symbol
_atom_site_fract_x
_atom_site_fract_y
_atom_site_fract_z
_atom_site_U_iso_or_equiv
_atom_site_adp_type
_atom_site_occupancy
C1     C     0.16700   0.08665   0.16672   0.00000  Uiso   1.00
C2     C     0.16634   0.24668   0.16662   0.00000  Uiso   1.00
C3     C     0.06733   0.16566   0.15530   0.00000  Uiso   1.00
C4     C     0.26601   0.16768   0.17803   0.00000  Uiso   1.00
C5     C     0.01364   0.15638   0.15205   0.00000  Uiso   1.00
C6     C     0.31969   0.17695   0.18128   0.00000  Uiso   1.00
C7     C     0.18463   0.02151   0.13044   0.00000  Uiso   1.00
C8     C     0.14870   0.31182   0.20290   0.00000  Uiso   1.00
C9     C     0.18436   0.31210   0.13036   0.00000  Uiso   1.00
C10    C     0.14897   0.02123   0.20298   0.00000  Uiso   1.00
C11    C     0.16640   0.29082   0.16659   0.00000  Uiso   1.00
C12    C     0.16694   0.04251   0.16675   0.00000  Uiso   1.00
C13    C     0.20037   0.19177   0.02780   0.00000  Uiso   1.00
C14    C     0.13296   0.14156   0.30554   0.00000  Uiso   1.00
C15    C     0.20035   0.19177   0.31317   0.00000  Uiso   1.00
C16    C     0.13298   0.14156   0.02016   0.00000  Uiso   1.00
H17    H     0.19906   0.03803   0.10254   0.00000  Uiso   1.00
H18    H     0.13428   0.29530   0.23079   0.00000  Uiso   1.00
H19    H     0.19864   0.29580   0.10242   0.00000  Uiso   1.00
H20    H     0.13469   0.03753   0.23091   0.00000  Uiso   1.00
H21    H     0.22732   0.21185   0.04901   0.00000  Uiso   1.00
H22    H     0.10601   0.12148   0.28432   0.00000  Uiso   1.00
H23    H     0.22728   0.21185   0.29806   0.00000  Uiso   1.00
H24    H     0.10605   0.12148   0.03527   0.00000  Uiso   1.00
N25    N     0.16665   0.16666   0.28573   0.00000  Uiso   1.00
N26    N     0.16668   0.16668   0.04760   0.00000  Uiso   1.00
O27    O     0.16666   0.10558   0.20487   0.00000  Uiso   1.00
O28    O     0.16667   0.22775   0.12846   0.00000  Uiso   1.00
O29    O     0.16666   0.10559   0.12843   0.00000  Uiso   1.00
O30    O     0.16667   0.22774   0.20490   0.00000  Uiso   1.00
O31    O     0.09058   0.16666   0.19595   0.00000  Uiso   1.00
O32    O     0.24275   0.16667   0.13739   0.00000  Uiso   1.00
O33    O     0.09058   0.16667   0.11950   0.00000  Uiso   1.00
O34    O     0.24275   0.16666   0.21383   0.00000  Uiso   1.00
Zn35   Zn    0.16667   0.16666   0.21771   0.00000  Uiso   1.00
Zn36   Zn    0.16667   0.16667   0.11563   0.00000  Uiso   1.00
C37    C     0.32704   0.11832   0.12271   0.00000  Uiso   1.00
C38    C     0.03062   0.08107   0.12891   0.00000  Uiso   1.00
H39    H     0.06584   0.08709   0.11208   0.00000  Uiso   1.00
H40    H     0.04220   0.07449   0.16576   0.00000  Uiso   1.00
H41    H     0.01073   0.05296   0.11269   0.00000  Uiso   1.00
H42    H     0.28927   0.10590   0.13106   0.00000  Uiso   1.00
H43    H     0.32155   0.12765   0.08617   0.00000  Uiso   1.00
C44    C     0.00630   0.21501   0.21062   0.00000  Uiso   1.00
C45    C     0.30270   0.25225   0.20445   0.00000  Uiso   1.00
H46    H     0.29108   0.25883   0.16761   0.00000  Uiso   1.00
H47    H     0.26751   0.24622   0.22131   0.00000  Uiso   1.00
H48    H     0.32260   0.28036   0.22066   0.00000  Uiso   1.00
H49    H     0.01182   0.20568   0.24716   0.00000  Uiso   1.00
H50    H     0.04405   0.22744   0.20225   0.00000  Uiso   1.00
C51    C     0.50033   0.08665   0.16672   0.00000  Uiso   1.00
C52    C     0.49967   0.24668   0.16662   0.00000  Uiso   1.00
C53    C     0.40066   0.16566   0.15530   0.00000  Uiso   1.00
C54    C     0.59934   0.16768   0.17803   0.00000  Uiso   1.00
C55    C     0.34698   0.15638   0.15205   0.00000  Uiso   1.00
C56    C     0.65302   0.17695   0.18128   0.00000  Uiso   1.00
C57    C     0.51797   0.02151   0.13044   0.00000  Uiso   1.00
C58    C     0.48204   0.31182   0.20290   0.00000  Uiso   1.00
C59    C     0.51770   0.31210   0.13036   0.00000  Uiso   1.00
C60    C     0.48231   0.02123   0.20298   0.00000  Uiso   1.00
C61    C     0.49973   0.29082   0.16659   0.00000  Uiso   1.00
C62    C     0.50027   0.04251   0.16675   0.00000  Uiso   1.00
C63    C     0.53371   0.19177   0.02780   0.00000  Uiso   1.00
C64    C     0.46629   0.14156   0.30554   0.00000  Uiso   1.00
C65    C     0.53368   0.19177   0.31317   0.00000  Uiso   1.00
C66    C     0.46632   0.14156   0.02016   0.00000  Uiso   1.00
H67    H     0.53239   0.03803   0.10254   0.00000  Uiso   1.00
H68    H     0.46761   0.29530   0.23079   0.00000  Uiso   1.00
H69    H     0.53198   0.29580   0.10242   0.00000  Uiso   1.00
H70    H     0.46802   0.03753   0.23091   0.00000  Uiso   1.00
H71    H     0.56066   0.21185   0.04901   0.00000  Uiso   1.00
H72    H     0.43934   0.12148   0.28432   0.00000  Uiso   1.00
H73    H     0.56061   0.21185   0.29806   0.00000  Uiso   1.00
H74    H     0.43939   0.12148   0.03527   0.00000  Uiso   1.00
N75    N     0.49999   0.16666   0.28573   0.00000  Uiso   1.00
N76    N     0.50001   0.16668   0.04760   0.00000  Uiso   1.00
O77    O     0.50000   0.10558   0.20487   0.00000  Uiso   1.00
O78    O     0.50000   0.22775   0.12846   0.00000  Uiso   1.00
O79    O     0.50000   0.10559   0.12843   0.00000  Uiso   1.00
O80    O     0.50000   0.22774   0.20490   0.00000  Uiso   1.00
O81    O     0.42392   0.16666   0.19595   0.00000  Uiso   1.00
O82    O     0.57608   0.16667   0.13739   0.00000  Uiso   1.00
O83    O     0.42392   0.16667   0.11950   0.00000  Uiso   1.00
O84    O     0.57608   0.16666   0.21383   0.00000  Uiso   1.00
Zn85   Zn    0.50000   0.16666   0.21771   0.00000  Uiso   1.00
Zn86   Zn    0.50000   0.16667   0.11563   0.00000  Uiso   1.00
C87    C     0.66037   0.11832   0.12271   0.00000  Uiso   1.00
C88    C     0.36395   0.08107   0.12891   0.00000  Uiso   1.00
H89    H     0.39917   0.08709   0.11208   0.00000  Uiso   1.00
H90    H     0.37553   0.07449   0.16576   0.00000  Uiso   1.00
H91    H     0.34406   0.05296   0.11269   0.00000  Uiso   1.00
H92    H     0.62260   0.10590   0.13106   0.00000  Uiso   1.00
H93    H     0.65488   0.12765   0.08617   0.00000  Uiso   1.00
C94    C     0.33963   0.21501   0.21062   0.00000  Uiso   1.00
C95    C     0.63603   0.25225   0.20445   0.00000  Uiso   1.00
H96    H     0.62441   0.25883   0.16761   0.00000  Uiso   1.00
H97    H     0.60084   0.24622   0.22131   0.00000  Uiso   1.00
H98    H     0.65593   0.28036   0.22066   0.00000  Uiso   1.00
H99    H     0.34516   0.20568   0.24716   0.00000  Uiso   1.00
H100   H     0.37739   0.22744   0.20225   0.00000  Uiso   1.00
C101   C     0.83367   0.08665   0.16672   0.00000  Uiso   1.00
C102   C     0.83300   0.24668   0.16662   0.00000  Uiso   1.00
C103   C     0.73399   0.16566   0.15530   0.00000  Uiso   1.00
C104   C     0.93267   0.16768   0.17803   0.00000  Uiso   1.00
C105   C     0.68031   0.15638   0.15205   0.00000  Uiso   1.00
C106   C     0.98636   0.17695   0.18128   0.00000  Uiso   1.00
C107   C     0.85130   0.02151   0.13044   0.00000  Uiso   1.00
C108   C     0.81537   0.31182   0.20290   0.00000  Uiso   1.00
C109   C     0.85103   0.31210   0.13036   0.00000  Uiso   1.00
C110   C     0.81564   0.02123   0.20298   0.00000  Uiso   1.00
C111   C     0.83307   0.29082   0.16659   0.00000  Uiso   1.00
C112   C     0.83360   0.04251   0.16675   0.00000  Uiso   1.00
C113   C     0.86704   0.19177   0.02780   0.00000  Uiso   1.00
C114   C     0.79963   0.14156   0.30554   0.00000  Uiso   1.00
C115   C     0.86702   0.19177   0.31317   0.00000  Uiso   1.00
C116   C     0.79965   0.14156   0.02016   0.00000  Uiso   1.00
H117   H     0.86573   0.03803   0.10254   0.00000  Uiso   1.00
H118   H     0.80094   0.29530   0.23079   0.00000  Uiso   1.00
H119   H     0.86531   0.29580   0.10242   0.00000  Uiso   1.00
H120   H     0.80136   0.03753   0.23091   0.00000  Uiso   1.00
H121   H     0.89399   0.21185   0.04901   0.00000  Uiso   1.00
H122   H     0.77268   0.12148   0.28432   0.00000  Uiso   1.00
H123   H     0.89395   0.21185   0.29806   0.00000  Uiso   1.00
H124   H     0.77272   0.12148   0.03527   0.00000  Uiso   1.00
N125   N     0.83332   0.16666   0.28573   0.00000  Uiso   1.00
N126   N     0.83335   0.16668   0.04760   0.00000  Uiso   1.00
O127   O     0.83333   0.10558   0.20487   0.00000  Uiso   1.00
O128   O     0.83334   0.22775   0.12846   0.00000  Uiso   1.00
O129   O     0.83333   0.10559   0.12843   0.00000  Uiso   1.00
O130   O     0.83334   0.22774   0.20490   0.00000  Uiso   1.00
O131   O     0.75725   0.16666   0.19595   0.00000  Uiso   1.00
O132   O     0.90942   0.16667   0.13739   0.00000  Uiso   1.00
O133   O     0.75725   0.16667   0.11950   0.00000  Uiso   1.00
O134   O     0.90942   0.16666   0.21383   0.00000  Uiso   1.00
Zn135  Zn    0.83333   0.16666   0.21771   0.00000  Uiso   1.00
Zn136  Zn    0.83333   0.16667   0.11563   0.00000  Uiso   1.00
C137   C     0.99371   0.11832   0.12271   0.00000  Uiso   1.00
C138   C     0.69729   0.08107   0.12891   0.00000  Uiso   1.00
H139   H     0.73251   0.08709   0.11208   0.00000  Uiso   1.00
H140   H     0.70886   0.07449   0.16576   0.00000  Uiso   1.00
H141   H     0.67739   0.05296   0.11269   0.00000  Uiso   1.00
H142   H     0.95594   0.10590   0.13106   0.00000  Uiso   1.00
H143   H     0.98822   0.12765   0.08617   0.00000  Uiso   1.00
C144   C     0.67296   0.21501   0.21062   0.00000  Uiso   1.00
C145   C     0.96936   0.25225   0.20445   0.00000  Uiso   1.00
H146   H     0.95775   0.25883   0.16761   0.00000  Uiso   1.00
H147   H     0.93417   0.24622   0.22131   0.00000  Uiso   1.00
H148   H     0.98926   0.28036   0.22066   0.00000  Uiso   1.00
H149   H     0.67849   0.20568   0.24716   0.00000  Uiso   1.00
H150   H     0.71072   0.22744   0.20225   0.00000  Uiso   1.00
C151   C     0.16700   0.41999   0.16672   0.00000  Uiso   1.00
C152   C     0.16634   0.58001   0.16662   0.00000  Uiso   1.00
C153   C     0.06733   0.49899   0.15530   0.00000  Uiso   1.00
C154   C     0.26601   0.50101   0.17803   0.00000  Uiso   1.00
C155   C     0.01364   0.48972   0.15205   0.00000  Uiso   1.00
C156   C     0.31969   0.51028   0.18128   0.00000  Uiso   1.00
C157   C     0.18463   0.35484   0.13044   0.00000  Uiso   1.00
C158   C     0.14870   0.64516   0.20290   0.00000  Uiso   1.00
C159   C     0.18436   0.64544   0.13036   0.00000  Uiso   1.00
C160   C     0.14897   0.35456   0.20298   0.00000  Uiso   1.00
C161   C     0.16640   0.62415   0.16659   0.00000  Uiso   1.00
C162   C     0.16694   0.37585   0.16675   0.00000  Uiso   1.00
C163   C     0.20037   0.52511   0.02780   0.00000  Uiso   1.00
C164   C     0.13296   0.47489   0.30554   0.00000  Uiso   1.00
C165   C     0.20035   0.52511   0.31317   0.00000  Uiso   1.00
C166   C     0.13298   0.47489   0.02016   0.00000  Uiso   1.00
H167   H     0.19906   0.37137   0.10254   0.00000  Uiso   1.00
H168   H     0.13428   0.62863   0.23079   0.00000  Uiso   1.00
H169   H     0.19864   0.62914   0.10242   0.00000  Uiso   1.00
H170   H     0.13469   0.37086   0.23091   0.00000  Uiso   1.00
H171   H     0.22732   0.54518   0.04901   0.00000  Uiso   1.00
H172   H     0.10601   0.45482   0.28432   0.00000  Uiso   1.00
H173   H     0.22728   0.54519   0.29806   0.00000  Uiso   1.00
H174   H     0.10605   0.45481   0.03527   0.00000  Uiso   1.00
N175   N     0.16665   0.49999   0.28573   0.00000  Uiso   1.00
N176   N     0.16668   0.50001   0.04760   0.00000  Uiso   1.00
O177   O     0.16666   0.43892   0.20487   0.00000  Uiso   1.00
O178   O     0.16667   0.56108   0.12846   0.00000  Uiso   1.00
O179   O     0.16666   0.43893   0.12843   0.00000  Uiso   1.00
O180   O     0.16667   0.56107   0.20490   0.00000  Uiso   1.00
O181   O     0.09058   0.50000   0.19595   0.00000  Uiso   1.00
O182   O     0.24275   0.50000   0.13739   0.00000  Uiso   1.00
O183   O     0.09058   0.50000   0.11950   0.00000  Uiso   1.00
O184   O     0.24275   0.50000   0.21383   0.00000  Uiso   1.00
Zn185  Zn    0.16667   0.49999   0.21771   0.00000  Uiso   1.00
Zn186  Zn    0.16667   0.50001   0.11563   0.00000  Uiso   1.00
C187   C     0.32704   0.45166   0.12271   0.00000  Uiso   1.00
C188   C     0.03062   0.41440   0.12891   0.00000  Uiso   1.00
H189   H     0.06584   0.42042   0.11208   0.00000  Uiso   1.00
H190   H     0.04220   0.40782   0.16576   0.00000  Uiso   1.00
H191   H     0.01073   0.38630   0.11269   0.00000  Uiso   1.00
H192   H     0.28927   0.43923   0.13106   0.00000  Uiso   1.00
H193   H     0.32155   0.46098   0.08617   0.00000  Uiso   1.00
C194   C     0.00630   0.54834   0.21062   0.00000  Uiso   1.00
C195   C     0.30270   0.58559   0.20445   0.00000  Uiso   1.00
H196   H     0.29108   0.59217   0.16761   0.00000  Uiso   1.00
H197   H     0.26751   0.57956   0.22131   0.00000  Uiso   1.00
H198   H     0.32260   0.61369   0.22066   0.00000  Uiso   1.00
H199   H     0.01182   0.53901   0.24716   0.00000  Uiso   1.00
H200   H     0.04405   0.56078   0.20225   0.00000  Uiso   1.00
C201   C     0.50033   0.41999   0.16672   0.00000  Uiso   1.00
C202   C     0.49967   0.58001   0.16662   0.00000  Uiso   1.00
C203   C     0.40066   0.49899   0.15530   0.00000  Uiso   1.00
C204   C     0.59934   0.50101   0.17803   0.00000  Uiso   1.00
C205   C     0.34698   0.48972   0.15205   0.00000  Uiso   1.00
C206   C     0.65302   0.51028   0.18128   0.00000  Uiso   1.00
C207   C     0.51797   0.35484   0.13044   0.00000  Uiso   1.00
C208   C     0.48204   0.64516   0.20290   0.00000  Uiso   1.00
C209   C     0.51770   0.64544   0.13036   0.00000  Uiso   1.00
C210   C     0.48231   0.35456   0.20298   0.00000  Uiso   1.00
C211   C     0.49973   0.62415   0.16659   0.00000  Uiso   1.00
C212   C     0.50027   0.37585   0.16675   0.00000  Uiso   1.00
C213   C     0.53371   0.52511   0.02780   0.00000  Uiso   1.00
C214   C     0.46629   0.47489   0.30554   0.00000  Uiso   1.00
C215   C     0.53368   0.52511   0.31317   0.00000  Uiso   1.00
C216   C     0.46632   0.47489   0.02016   0.00000  Uiso   1.00
H217   H     0.53239   0.37137   0.10254   0.00000  Uiso   1.00
H218   H     0.46761   0.62863   0.23079   0.00000  Uiso   1.00
H219   H     0.53198   0.62914   0.10242   0.00000  Uiso   1.00
H220   H     0.46802   0.37086   0.23091   0.00000  Uiso   1.00
H221   H     0.56066   0.54518   0.04901   0.00000  Uiso   1.00
H222   H     0.43934   0.45482   0.28432   0.00000  Uiso   1.00
H223   H     0.56061   0.54519   0.29806   0.00000  Uiso   1.00
H224   H     0.43939   0.45481   0.03527   0.00000  Uiso   1.00
N225   N     0.49999   0.49999   0.28573   0.00000  Uiso   1.00
N226   N     0.50001   0.50001   0.04760   0.00000  Uiso   1.00
O227   O     0.50000   0.43892   0.20487   0.00000  Uiso   1.00
O228   O     0.50000   0.56108   0.12846   0.00000  Uiso   1.00
O229   O     0.50000   0.43893   0.12843   0.00000  Uiso   1.00
O230   O     0.50000   0.56107   0.20490   0.00000  Uiso   1.00
O231   O     0.42392   0.50000   0.19595   0.00000  Uiso   1.00
O232   O     0.57608   0.50000   0.13739   0.00000  Uiso   1.00
O233   O     0.42392   0.50000   0.11950   0.00000  Uiso   1.00
O234   O     0.57608   0.50000   0.21383   0.00000  Uiso   1.00
Zn235  Zn    0.50000   0.49999   0.21771   0.00000  Uiso   1.00
Zn236  Zn    0.50000   0.50001   0.11563   0.00000  Uiso   1.00
C237   C     0.66037   0.45166   0.12271   0.00000  Uiso   1.00
C238   C     0.36395   0.41440   0.12891   0.00000  Uiso   1.00
H239   H     0.39917   0.42042   0.11208   0.00000  Uiso   1.00
H240   H     0.37553   0.40782   0.16576   0.00000  Uiso   1.00
H241   H     0.34406   0.38630   0.11269   0.00000  Uiso   1.00
H242   H     0.62260   0.43923   0.13106   0.00000  Uiso   1.00
H243   H     0.65488   0.46098   0.08617   0.00000  Uiso   1.00
C244   C     0.33963   0.54834   0.21062   0.00000  Uiso   1.00
C245   C     0.63603   0.58559   0.20445   0.00000  Uiso   1.00
H246   H     0.62441   0.59217   0.16761   0.00000  Uiso   1.00
H247   H     0.60084   0.57956   0.22131   0.00000  Uiso   1.00
H248   H     0.65593   0.61369   0.22066   0.00000  Uiso   1.00
H249   H     0.34516   0.53901   0.24716   0.00000  Uiso   1.00
H250   H     0.37739   0.56078   0.20225   0.00000  Uiso   1.00
C251   C     0.83367   0.41999   0.16672   0.00000  Uiso   1.00
C252   C     0.83300   0.58001   0.16662   0.00000  Uiso   1.00
C253   C     0.73399   0.49899   0.15530   0.00000  Uiso   1.00
C254   C     0.93267   0.50101   0.17803   0.00000  Uiso   1.00
C255   C     0.68031   0.48972   0.15205   0.00000  Uiso   1.00
C256   C     0.98636   0.51028   0.18128   0.00000  Uiso   1.00
C257   C     0.85130   0.35484   0.13044   0.00000  Uiso   1.00
C258   C     0.81537   0.64516   0.20290   0.00000  Uiso   1.00
C259   C     0.85103   0.64544   0.13036   0.00000  Uiso   1.00
C260   C     0.81564   0.35456   0.20298   0.00000  Uiso   1.00
C261   C     0.83307   0.62415   0.16659   0.00000  Uiso   1.00
C262   C     0.83360   0.37585   0.16675   0.00000  Uiso   1.00
C263   C     0.86704   0.52511   0.02780   0.00000  Uiso   1.00
C264   C     0.79963   0.47489   0.30554   0.00000  Uiso   1.00
C265   C     0.86702   0.52511   0.31317   0.00000  Uiso   1.00
C266   C     0.79965   0.47489   0.02016   0.00000  Uiso   1.00
H267   H     0.86573   0.37137   0.10254   0.00000  Uiso   1.00
H268   H     0.80094   0.62863   0.23079   0.00000  Uiso   1.00
H269   H     0.86531   0.62914   0.10242   0.00000  Uiso   1.00
H270   H     0.80136   0.37086   0.23091   0.00000  Uiso   1.00
H271   H     0.89399   0.54518   0.04901   0.00000  Uiso   1.00
H272   H     0.77268   0.45482   0.28432   0.00000  Uiso   1.00
H273   H     0.89395   0.54519   0.29806   0.00000  Uiso   1.00
H274   H     0.77272   0.45481   0.03527   0.00000  Uiso   1.00
N275   N     0.83332   0.49999   0.28573   0.00000  Uiso   1.00
N276   N     0.83335   0.50001   0.04760   0.00000  Uiso   1.00
O277   O     0.83333   0.43892   0.20487   0.00000  Uiso   1.00
O278   O     0.83334   0.56108   0.12846   0.00000  Uiso   1.00
O279   O     0.83333   0.43893   0.12843   0.00000  Uiso   1.00
O280   O     0.83334   0.56107   0.20490   0.00000  Uiso   1.00
O281   O     0.75725   0.50000   0.19595   0.00000  Uiso   1.00
O282   O     0.90942   0.50000   0.13739   0.00000  Uiso   1.00
O283   O     0.75725   0.50000   0.11950   0.00000  Uiso   1.00
O284   O     0.90942   0.50000   0.21383   0.00000  Uiso   1.00
Zn285  Zn    0.83333   0.49999   0.21771   0.00000  Uiso   1.00
Zn286  Zn    0.83333   0.50001   0.11563   0.00000  Uiso   1.00
C287   C     0.99371   0.45166   0.12271   0.00000  Uiso   1.00
C288   C     0.69729   0.41440   0.12891   0.00000  Uiso   1.00
H289   H     0.73251   0.42042   0.11208   0.00000  Uiso   1.00
H290   H     0.70886   0.40782   0.16576   0.00000  Uiso   1.00
H291   H     0.67739   0.38630   0.11269   0.00000  Uiso   1.00
H292   H     0.95594   0.43923   0.13106   0.00000  Uiso   1.00
H293   H     0.98822   0.46098   0.08617   0.00000  Uiso   1.00
C294   C     0.67296   0.54834   0.21062   0.00000  Uiso   1.00
C295   C     0.96936   0.58559   0.20445   0.00000  Uiso   1.00
H296   H     0.95775   0.59217   0.16761   0.00000  Uiso   1.00
H297   H     0.93417   0.57956   0.22131   0.00000  Uiso   1.00
H298   H     0.98926   0.61369   0.22066   0.00000  Uiso   1.00
H299   H     0.67849   0.53901   0.24716   0.00000  Uiso   1.00
H300   H     0.71072   0.56078   0.20225   0.00000  Uiso   1.00
C301   C     0.16700   0.75332   0.16672   0.00000  Uiso   1.00
C302   C     0.16634   0.91334   0.16662   0.00000  Uiso   1.00
C303   C     0.06733   0.83232   0.15530   0.00000  Uiso   1.00
C304   C     0.26601   0.83434   0.17803   0.00000  Uiso   1.00
C305   C     0.01364   0.82305   0.15205   0.00000  Uiso   1.00
C306   C     0.31969   0.84361   0.18128   0.00000  Uiso   1.00
C307   C     0.18463   0.68817   0.13044   0.00000  Uiso   1.00
C308   C     0.14870   0.97849   0.20290   0.00000  Uiso   1.00
C309   C     0.18436   0.97877   0.13036   0.00000  Uiso   1.00
C310   C     0.14897   0.68790   0.20298   0.00000  Uiso   1.00
C311   C     0.16640   0.95749   0.16659   0.00000  Uiso   1.00
C312   C     0.16694   0.70918   0.16675   0.00000  Uiso   1.00
C313   C     0.20037   0.85844   0.02780   0.00000  Uiso   1.00
C314   C     0.13296   0.80823   0.30554   0.00000  Uiso   1.00
C315   C     0.20035   0.85844   0.31317   0.00000  Uiso   1.00
C316   C     0.13298   0.80823   0.02016   0.00000  Uiso   1.00
H317   H     0.19906   0.70470   0.10254   0.00000  Uiso   1.00
H318   H     0.13428   0.96197   0.23079   0.00000  Uiso   1.00
H319   H     0.19864   0.96247   0.10242   0.00000  Uiso   1.00
H320   H     0.13469   0.70420   0.23091   0.00000  Uiso   1.00
H321   H     0.22732   0.87851   0.04901   0.00000  Uiso   1.00
H322   H     0.10601   0.78815   0.28432   0.00000  Uiso   1.00
H323   H     0.22728   0.87852   0.29806   0.00000  Uiso   1.00
H324   H     0.10605   0.78815   0.03527   0.00000  Uiso   1.00
N325   N     0.16665   0.83332   0.28573   0.00000  Uiso   1.00
N326   N     0.16668   0.83334   0.04760   0.00000  Uiso   1.00
O327   O     0.16666   0.77225   0.20487   0.00000  Uiso   1.00
O328   O     0.16667   0.89442   0.12846   0.00000  Uiso   1.00
O329   O     0.16666   0.77226   0.12843   0.00000  Uiso   1.00
O330   O     0.16667   0.89441   0.20490   0.00000  Uiso   1.00
O331   O     0.09058   0.83333   0.19595   0.00000  Uiso   1.00
O332   O     0.24275   0.83334   0.13739   0.00000  Uiso   1.00
O333   O     0.09058   0.83334   0.11950   0.00000  Uiso   1.00
O334   O     0.24275   0.83333   0.21383   0.00000  Uiso   1.00
Zn335  Zn    0.16667   0.83333   0.21771   0.00000  Uiso   1.00
Zn336  Zn    0.16667   0.83334   0.11563   0.00000  Uiso   1.00
C337   C     0.32704   0.78499   0.12271   0.00000  Uiso   1.00
C338   C     0.03062   0.74774   0.12891   0.00000  Uiso   1.00
H339   H     0.06584   0.75376   0.11208   0.00000  Uiso   1.00
H340   H     0.04220   0.74115   0.16576   0.00000  Uiso   1.00
H341   H     0.01073   0.71963   0.11269   0.00000  Uiso   1.00
H342   H     0.28927   0.77257   0.13106   0.00000  Uiso   1.00
H343   H     0.32155   0.79432   0.08617   0.00000  Uiso   1.00
C344   C     0.00630   0.88167   0.21062   0.00000  Uiso   1.00
C345   C     0.30270   0.91892   0.20445   0.00000  Uiso   1.00
H346   H     0.29108   0.92550   0.16761   0.00000  Uiso   1.00
H347   H     0.26751   0.91289   0.22131   0.00000  Uiso   1.00
H348   H     0.32260   0.94703   0.22066   0.00000  Uiso   1.00
H349   H     0.01182   0.87234   0.24716   0.00000  Uiso   1.00
H350   H     0.04405   0.89411   0.20225   0.00000  Uiso   1.00
C351   C     0.50033   0.75332   0.16672   0.00000  Uiso   1.00
C352   C     0.49967   0.91334   0.16662   0.00000  Uiso   1.00
C353   C     0.40066   0.83232   0.15530   0.00000  Uiso   1.00
C354   C     0.59934   0.83434   0.17803   0.00000  Uiso   1.00
C355   C     0.34698   0.82305   0.15205   0.00000  Uiso   1.00
C356   C     0.65302   0.84361   0.18128   0.00000  Uiso   1.00
C357   C     0.51797   0.68817   0.13044   0.00000  Uiso   1.00
C358   C     0.48204   0.97849   0.20290   0.00000  Uiso   1.00
C359   C     0.51770   0.97877   0.13036   0.00000  Uiso   1.00
C360   C     0.48231   0.68790   0.20298   0.00000  Uiso   1.00
C361   C     0.49973   0.95749   0.16659   0.00000  Uiso   1.00
C362   C     0.50027   0.70918   0.16675   0.00000  Uiso   1.00
C363   C     0.53371   0.85844   0.02780   0.00000  Uiso   1.00
C364   C     0.46629   0.80823   0.30554   0.00000  Uiso   1.00
C365   C     0.53368   0.85844   0.31317   0.00000  Uiso   1.00
C366   C     0.46632   0.80823   0.02016   0.00000  Uiso   1.00
H367   H     0.53239   0.70470   0.10254   0.00000  Uiso   1.00
H368   H     0.46761   0.96197   0.23079   0.00000  Uiso   1.00
H369   H     0.53198   0.96247   0.10242   0.00000  Uiso   1.00
H370   H     0.46802   0.70420   0.23091   0.00000  Uiso   1.00
H371   H     0.56066   0.87851   0.04901   0.00000  Uiso   1.00
H372   H     0.43934   0.78815   0.28432   0.00000  Uiso   1.00
H373   H     0.56061   0.87852   0.29806   0.00000  Uiso   1.00
H374   H     0.43939   0.78815   0.03527   0.00000  Uiso   1.00
N375   N     0.49999   0.83332   0.28573   0.00000  Uiso   1.00
N376   N     0.50001   0.83334   0.04760   0.00000  Uiso   1.00
O377   O     0.50000   0.77225   0.20487   0.00000  Uiso   1.00
O378   O     0.50000   0.89442   0.12846   0.00000  Uiso   1.00
O379   O     0.50000   0.77226   0.12843   0.00000  Uiso   1.00
O380   O     0.50000   0.89441   0.20490   0.00000  Uiso   1.00
O381   O     0.42392   0.83333   0.19595   0.00000  Uiso   1.00
O382   O     0.57608   0.83334   0.13739   0.00000  Uiso   1.00
O383   O     0.42392   0.83334   0.11950   0.00000  Uiso   1.00
O384   O     0.57608   0.83333   0.21383   0.00000  Uiso   1.00
Zn385  Zn    0.50000   0.83333   0.21771   0.00000  Uiso   1.00
Zn386  Zn    0.50000   0.83334   0.11563   0.00000  Uiso   1.00
C387   C     0.66037   0.78499   0.12271   0.00000  Uiso   1.00
C388   C     0.36395   0.74774   0.12891   0.00000  Uiso   1.00
H389   H     0.39917   0.75376   0.11208   0.00000  Uiso   1.00
H390   H     0.37553   0.74115   0.16576   0.00000  Uiso   1.00
H391   H     0.34406   0.71963   0.11269   0.00000  Uiso   1.00
H392   H     0.62260   0.77257   0.13106   0.00000  Uiso   1.00
H393   H     0.65488   0.79432   0.08617   0.00000  Uiso   1.00
C394   C     0.33963   0.88167   0.21062   0.00000  Uiso   1.00
C395   C     0.63603   0.91892   0.20445   0.00000  Uiso   1.00
H396   H     0.62441   0.92550   0.16761   0.00000  Uiso   1.00
H397   H     0.60084   0.91289   0.22131   0.00000  Uiso   1.00
H398   H     0.65593   0.94703   0.22066   0.00000  Uiso   1.00
H399   H     0.34516   0.87234   0.24716   0.00000  Uiso   1.00
H400   H     0.37739   0.89411   0.20225   0.00000  Uiso   1.00
C401   C     0.83367   0.75332   0.16672   0.00000  Uiso   1.00
C402   C     0.83300   0.91334   0.16662   0.00000  Uiso   1.00
C403   C     0.73399   0.83232   0.15530   0.00000  Uiso   1.00
C404   C     0.93267   0.83434   0.17803   0.00000  Uiso   1.00
C405   C     0.68031   0.82305   0.15205   0.00000  Uiso   1.00
C406   C     0.98636   0.84361   0.18128   0.00000  Uiso   1.00
C407   C     0.85130   0.68817   0.13044   0.00000  Uiso   1.00
C408   C     0.81537   0.97849   0.20290   0.00000  Uiso   1.00
C409   C     0.85103   0.97877   0.13036   0.00000  Uiso   1.00
C410   C     0.81564   0.68790   0.20298   0.00000  Uiso   1.00
C411   C     0.83307   0.95749   0.16659   0.00000  Uiso   1.00
C412   C     0.83360   0.70918   0.16675   0.00000  Uiso   1.00
C413   C     0.86704   0.85844   0.02780   0.00000  Uiso   1.00
C414   C     0.79963   0.80823   0.30554   0.00000  Uiso   1.00
C415   C     0.86702   0.85844   0.31317   0.00000  Uiso   1.00
C416   C     0.79965   0.80823   0.02016   0.00000  Uiso   1.00
H417   H     0.86573   0.70470   0.10254   0.00000  Uiso   1.00
H418   H     0.80094   0.96197   0.23079   0.00000  Uiso   1.00
H419   H     0.86531   0.96247   0.10242   0.00000  Uiso   1.00
H420   H     0.80136   0.70420   0.23091   0.00000  Uiso   1.00
H421   H     0.89399   0.87851   0.04901   0.00000  Uiso   1.00
H422   H     0.77268   0.78815   0.28432   0.00000  Uiso   1.00
H423   H     0.89395   0.87852   0.29806   0.00000  Uiso   1.00
H424   H     0.77272   0.78815   0.03527   0.00000  Uiso   1.00
N425   N     0.83332   0.83332   0.28573   0.00000  Uiso   1.00
N426   N     0.83335   0.83334   0.04760   0.00000  Uiso   1.00
O427   O     0.83333   0.77225   0.20487   0.00000  Uiso   1.00
O428   O     0.83334   0.89442   0.12846   0.00000  Uiso   1.00
O429   O     0.83333   0.77226   0.12843   0.00000  Uiso   1.00
O430   O     0.83334   0.89441   0.20490   0.00000  Uiso   1.00
O431   O     0.75725   0.83333   0.19595   0.00000  Uiso   1.00
O432   O     0.90942   0.83334   0.13739   0.00000  Uiso   1.00
O433   O     0.75725   0.83334   0.11950   0.00000  Uiso   1.00
O434   O     0.90942   0.83333   0.21383   0.00000  Uiso   1.00
Zn435  Zn    0.83333   0.83333   0.21771   0.00000  Uiso   1.00
Zn436  Zn    0.83333   0.83334   0.11563   0.00000  Uiso   1.00
C437   C     0.99371   0.78499   0.12271   0.00000  Uiso   1.00
C438   C     0.69729   0.74774   0.12891   0.00000  Uiso   1.00
H439   H     0.73251   0.75376   0.11208   0.00000  Uiso   1.00
H440   H     0.70886   0.74115   0.16576   0.00000  Uiso   1.00
H441   H     0.67739   0.71963   0.11269   0.00000  Uiso   1.00
H442   H     0.95594   0.77257   0.13106   0.00000  Uiso   1.00
H443   H     0.98822   0.79432   0.08617   0.00000  Uiso   1.00
C444   C     0.67296   0.88167   0.21062   0.00000  Uiso   1.00
C445   C     0.96936   0.91892   0.20445   0.00000  Uiso   1.00
H446   H     0.95775   0.92550   0.16761   0.00000  Uiso   1.00
H447   H     0.93417   0.91289   0.22131   0.00000  Uiso   1.00
H448   H     0.98926   0.94703   0.22066   0.00000  Uiso   1.00
H449   H     0.67849   0.87234   0.24716   0.00000  Uiso   1.00
H450   H     0.71072   0.89411   0.20225   0.00000  Uiso   1.00
C451   C     0.16700   0.08665   0.50005   0.00000  Uiso   1.00
C452   C     0.16634   0.24668   0.49995   0.00000  Uiso   1.00
C453   C     0.06733   0.16566   0.48864   0.00000  Uiso   1.00
C454   C     0.26601   0.16768   0.51136   0.00000  Uiso   1.00
C455   C     0.01364   0.15638   0.48539   0.00000  Uiso   1.00
C456   C     0.31969   0.17695   0.51461   0.00000  Uiso   1.00
C457   C     0.18463   0.02151   0.46377   0.00000  Uiso   1.00
C458   C     0.14870   0.31182   0.53623   0.00000  Uiso   1.00
C459   C     0.18436   0.31210   0.46369   0.00000  Uiso   1.00
C460   C     0.14897   0.02123   0.53631   0.00000  Uiso   1.00
C461   C     0.16640   0.29082   0.49992   0.00000  Uiso   1.00
C462   C     0.16694   0.04251   0.50008   0.00000  Uiso   1.00
C463   C     0.20037   0.19177   0.36113   0.00000  Uiso   1.00
C464   C     0.13296   0.14156   0.63887   0.00000  Uiso   1.00
C465   C     0.20035   0.19177   0.64651   0.00000  Uiso   1.00
C466   C     0.13298   0.14156   0.35349   0.00000  Uiso   1.00
H467   H     0.19906   0.03803   0.43587   0.00000  Uiso   1.00
H468   H     0.13428   0.29530   0.56413   0.00000  Uiso   1.00
H469   H     0.19864   0.29580   0.43575   0.00000  Uiso   1.00
H470   H     0.13469   0.03753   0.56425   0.00000  Uiso   1.00
H471   H     0.22732   0.21185   0.38235   0.00000  Uiso   1.00
H472   H     0.10601   0.12148   0.61765   0.00000  Uiso   1.00
H473   H     0.22728   0.21185   0.63140   0.00000  Uiso   1.00
H474   H     0.10605   0.12148   0.36860   0.00000  Uiso   1.00
N475   N     0.16665   0.16666   0.61907   0.00000  Uiso   1.00
N476   N     0.16668   0.16668   0.38093   0.00000  Uiso   1.00
O477   O     0.16666   0.10558   0.53821   0.00000  Uiso   1.00
O478   O     0.16667   0.22775   0.46179   0.00000  Uiso   1.00
O479   O     0.16666   0.10559   0.46176   0.00000  Uiso   1.00
O480   O     0.16667   0.22774   0.53824   0.00000  Uiso   1.00
O481   O     0.09058   0.16666   0.52928   0.00000  Uiso   1.00
O482   O     0.24275   0.16667   0.47072   0.00000  Uiso   1.00
O483   O     0.09058   0.16667   0.45284   0.00000  Uiso   1.00
O484   O     0.24275   0.16666   0.54716   0.00000  Uiso   1.00
Zn485  Zn    0.16667   0.16666   0.55104   0.00000  Uiso   1.00
Zn486  Zn    0.16667   0.16667   0.44896   0.00000  Uiso   1.00
C487   C     0.32704   0.11832   0.45604   0.00000  Uiso   1.00
C488   C     0.03062   0.08107   0.46224   0.00000  Uiso   1.00
H489   H     0.06584   0.08709   0.44542   0.00000  Uiso   1.00
H490   H     0.04220   0.07449   0.49909   0.00000  Uiso   1.00
H491   H     0.01073   0.05296   0.44602   0.00000  Uiso   1.00
H492   H     0.28927   0.10590   0.46439   0.00000  Uiso   1.00
H493   H     0.32155   0.12765   0.41951   0.00000  Uiso   1.00
C494   C     0.00630   0.21501   0.54396   0.00000  Uiso   1.00
C495   C     0.30270   0.25225   0.53778   0.00000  Uiso   1.00
H496   H     0.29108   0.25883   0.50094   0.00000  Uiso   1.00
H497   H     0.26751   0.24622   0.55464   0.00000  Uiso   1.00
H498   H     0.32260   0.28036   0.55399   0.00000  Uiso   1.00
H499   H     0.01182   0.20568   0.58049   0.00000  Uiso   1.00
H500   H     0.04405   0.22744   0.53558   0.00000  Uiso   1.00
C501   C     0.50033   0.08665   0.50005   0.00000  Uiso   1.00
C502   C     0.49967   0.24668   0.49995   0.00000  Uiso   1.00
C503   C     0.40066   0.16566   0.48864   0.00000  Uiso   1.00
C504   C     0.59934   0.16768   0.51136   0.00000  Uiso   1.00
C505   C     0.34698   0.15638   0.48539   0.00000  Uiso   1.00
C506   C     0.65302   0.17695   0.51461   0.00000  Uiso   1.00
C507   C     0.51797   0.02151   0.46377   0.00000  Uiso   1.00
C508   C     0.48204   0.31182   0.53623   0.00000  Uiso   1.00
C509   C     0.51770   0.31210   0.46369   0.00000  Uiso   1.00
C510   C     0.48231   0.02123   0.53631   0.00000  Uiso   1.00
C511   C     0.49973   0.29082   0.49992   0.00000  Uiso   1.00
C512   C     0.50027   0.04251   0.50008   0.00000  Uiso   1.00
C513   C     0.53371   0.19177   0.36113   0.00000  Uiso   1.00
C514   C     0.46629   0.14156   0.63887   0.00000  Uiso   1.00
C515   C     0.53368   0.19177   0.64651   0.00000  Uiso   1.00
C516   C     0.46632   0.14156   0.35349   0.00000  Uiso   1.00
H517   H     0.53239   0.03803   0.43587   0.00000  Uiso   1.00
H518   H     0.46761   0.29530   0.56413   0.00000  Uiso   1.00
H519   H     0.53198   0.29580   0.43575   0.00000  Uiso   1.00
H520   H     0.46802   0.03753   0.56425   0.00000  Uiso   1.00
H521   H     0.56066   0.21185   0.38235   0.00000  Uiso   1.00
H522   H     0.43934   0.12148   0.61765   0.00000  Uiso   1.00
H523   H     0.56061   0.21185   0.63140   0.00000  Uiso   1.00
H524   H     0.43939   0.12148   0.36860   0.00000  Uiso   1.00
N525   N     0.49999   0.16666   0.61907   0.00000  Uiso   1.00
N526   N     0.50001   0.16668   0.38093   0.00000  Uiso   1.00
O527   O     0.50000   0.10558   0.53821   0.00000  Uiso   1.00
O528   O     0.50000   0.22775   0.46179   0.00000  Uiso   1.00
O529   O     0.50000   0.10559   0.46176   0.00000  Uiso   1.00
O530   O     0.50000   0.22774   0.53824   0.00000  Uiso   1.00
O531   O     0.42392   0.16666   0.52928   0.00000  Uiso   1.00
O532   O     0.57608   0.16667   0.47072   0.00000  Uiso   1.00
O533   O     0.42392   0.16667   0.45284   0.00000  Uiso   1.00
O534   O     0.57608   0.16666   0.54716   0.00000  Uiso   1.00
Zn535  Zn    0.50000   0.16666   0.55104   0.00000  Uiso   1.00
Zn536  Zn    0.50000   0.16667   0.44896   0.00000  Uiso   1.00
C537   C     0.66037   0.11832   0.45604   0.00000  Uiso   1.00
C538   C     0.36395   0.08107   0.46224   0.00000  Uiso   1.00
H539   H     0.39917   0.08709   0.44542   0.00000  Uiso   1.00
H540   H     0.37553   0.07449   0.49909   0.00000  Uiso   1.00
H541   H     0.34406   0.05296   0.44602   0.00000  Uiso   1.00
H542   H     0.62260   0.10590   0.46439   0.00000  Uiso   1.00
H543   H     0.65488   0.12765   0.41951   0.00000  Uiso   1.00
C544   C     0.33963   0.21501   0.54396   0.00000  Uiso   1.00
C545   C     0.63603   0.25225   0.53778   0.00000  Uiso   1.00
H546   H     0.62441   0.25883   0.50094   0.00000  Uiso   1.00
H547   H     0.60084   0.24622   0.55464   0.00000  Uiso   1.00
H548   H     0.65593   0.28036   0.55399   0.00000  Uiso   1.00
H549   H     0.34516   0.20568   0.58049   0.00000  Uiso   1.00
H550   H     0.37739   0.22744   0.53558   0.00000  Uiso   1.00
C551   C     0.83367   0.08665   0.50005   0.00000  Uiso   1.00
C552   C     0.83300   0.24668   0.49995   0.00000  Uiso   1.00
C553   C     0.73399   0.16566   0.48864   0.00000  Uiso   1.00
C554   C     0.93267   0.16768   0.51136   0.00000  Uiso   1.00
C555   C     0.68031   0.15638   0.48539   0.00000  Uiso   1.00
C556   C     0.98636   0.17695   0.51461   0.00000  Uiso   1.00
C557   C     0.85130   0.02151   0.46377   0.00000  Uiso   1.00
C558   C     0.81537   0.31182   0.53623   0.00000  Uiso   1.00
C559   C     0.85103   0.31210   0.46369   0.00000  Uiso   1.00
C560   C     0.81564   0.02123   0.53631   0.00000  Uiso   1.00
C561   C     0.83307   0.29082   0.49992   0.00000  Uiso   1.00
C562   C     0.83360   0.04251   0.50008   0.00000  Uiso   1.00
C563   C     0.86704   0.19177   0.36113   0.00000  Uiso   1.00
C564   C     0.79963   0.14156   0.63887   0.00000  Uiso   1.00
C565   C     0.86702   0.19177   0.64651   0.00000  Uiso   1.00
C566   C     0.79965   0.14156   0.35349   0.00000  Uiso   1.00
H567   H     0.86573   0.03803   0.43587   0.00000  Uiso   1.00
H568   H     0.80094   0.29530   0.56413   0.00000  Uiso   1.00
H569   H     0.86531   0.29580   0.43575   0.00000  Uiso   1.00
H570   H     0.80136   0.03753   0.56425   0.00000  Uiso   1.00
H571   H     0.89399   0.21185   0.38235   0.00000  Uiso   1.00
H572   H     0.77268   0.12148   0.61765   0.00000  Uiso   1.00
H573   H     0.89395   0.21185   0.63140   0.00000  Uiso   1.00
H574   H     0.77272   0.12148   0.36860   0.00000  Uiso   1.00
N575   N     0.83332   0.16666   0.61907   0.00000  Uiso   1.00
N576   N     0.83335   0.16668   0.38093   0.00000  Uiso   1.00
O577   O     0.83333   0.10558   0.53821   0.00000  Uiso   1.00
O578   O     0.83334   0.22775   0.46179   0.00000  Uiso   1.00
O579   O     0.83333   0.10559   0.46176   0.00000  Uiso   1.00
O580   O     0.83334   0.22774   0.53824   0.00000  Uiso   1.00
O581   O     0.75725   0.16666   0.52928   0.00000  Uiso   1.00
O582   O     0.90942   0.16667   0.47072   0.00000  Uiso   1.00
O583   O     0.75725   0.16667   0.45284   0.00000  Uiso   1.00
O584   O     0.90942   0.16666   0.54716   0.00000  Uiso   1.00
Zn585  Zn    0.83333   0.16666   0.55104   0.00000  Uiso   1.00
Zn586  Zn    0.83333   0.16667   0.44896   0.00000  Uiso   1.00
C587   C     0.99371   0.11832   0.45604   0.00000  Uiso   1.00
C588   C     0.69729   0.08107   0.46224   0.00000  Uiso   1.00
H589   H     0.73251   0.08709   0.44542   0.00000  Uiso   1.00
H590   H     0.70886   0.07449   0.49909   0.00000  Uiso   1.00
H591   H     0.67739   0.05296   0.44602   0.00000  Uiso   1.00
H592   H     0.95594   0.10590   0.46439   0.00000  Uiso   1.00
H593   H     0.98822   0.12765   0.41951   0.00000  Uiso   1.00
C594   C     0.67296   0.21501   0.54396   0.00000  Uiso   1.00
C595   C     0.96936   0.25225   0.53778   0.00000  Uiso   1.00
H596   H     0.95775   0.25883   0.50094   0.00000  Uiso   1.00
H597   H     0.93417   0.24622   0.55464   0.00000  Uiso   1.00
H598   H     0.98926   0.28036   0.55399   0.00000  Uiso   1.00
H599   H     0.67849   0.20568   0.58049   0.00000  Uiso   1.00
H600   H     0.71072   0.22744   0.53558   0.00000  Uiso   1.00
C601   C     0.16700   0.41999   0.50005   0.00000  Uiso   1.00
C602   C     0.16634   0.58001   0.49995   0.00000  Uiso   1.00
C603   C     0.06733   0.49899   0.48864   0.00000  Uiso   1.00
C604   C     0.26601   0.50101   0.51136   0.00000  Uiso   1.00
C605   C     0.01364   0.48972   0.48539   0.00000  Uiso   1.00
C606   C     0.31969   0.51028   0.51461   0.00000  Uiso   1.00
C607   C     0.18463   0.35484   0.46377   0.00000  Uiso   1.00
C608   C     0.14870   0.64516   0.53623   0.00000  Uiso   1.00
C609   C     0.18436   0.64544   0.46369   0.00000  Uiso   1.00
C610   C     0.14897   0.35456   0.53631   0.00000  Uiso   1.00
C611   C     0.16640   0.62415   0.49992   0.00000  Uiso   1.00
C612   C     0.16694   0.37585   0.50008   0.00000  Uiso   1.00
C613   C     0.20037   0.52511   0.36113   0.00000  Uiso   1.00
C614   C     0.13296   0.47489   0.63887   0.00000  Uiso   1.00
C615   C     0.20035   0.52511   0.64651   0.00000  Uiso   1.00
C616   C     0.13298   0.47489   0.35349   0.00000  Uiso   1.00
H617   H     0.19906   0.37137   0.43587   0.00000  Uiso   1.00
H618   H     0.13428   0.62863   0.56413   0.00000  Uiso   1.00
H619   H     0.19864   0.62914   0.43575   0.00000  Uiso   1.00
H620   H     0.13469   0.37086   0.56425   0.00000  Uiso   1.00
H621   H     0.22732   0.54518   0.38235   0.00000  Uiso   1.00
H622   H     0.10601   0.45482   0.61765   0.00000  Uiso   1.00
H623   H     0.22728   0.54519   0.63140   0.00000  Uiso   1.00
H624   H     0.10605   0.45481   0.36860   0.00000  Uiso   1.00
N625   N     0.16665   0.49999   0.61907   0.00000  Uiso   1.00
N626   N     0.16668   0.50001   0.38093   0.00000  Uiso   1.00
O627   O     0.16666   0.43892   0.53821   0.00000  Uiso   1.00
O628   O     0.16667   0.56108   0.46179   0.00000  Uiso   1.00
O629   O     0.16666   0.43893   0.46176   0.00000  Uiso   1.00
O630   O     0.16667   0.56107   0.53824   0.00000  Uiso   1.00
O631   O     0.09058   0.50000   0.52928   0.00000  Uiso   1.00
O632   O     0.24275   0.50000   0.47072   0.00000  Uiso   1.00
O633   O     0.09058   0.50000   0.45284   0.00000  Uiso   1.00
O634   O     0.24275   0.50000   0.54716   0.00000  Uiso   1.00
Zn635  Zn    0.16667   0.49999   0.55104   0.00000  Uiso   1.00
Zn636  Zn    0.16667   0.50001   0.44896   0.00000  Uiso   1.00
C637   C     0.32704   0.45166   0.45604   0.00000  Uiso   1.00
C638   C     0.03062   0.41440   0.46224   0.00000  Uiso   1.00
H639   H     0.06584   0.42042   0.44542   0.00000  Uiso   1.00
H640   H     0.04220   0.40782   0.49909   0.00000  Uiso   1.00
H641   H     0.01073   0.38630   0.44602   0.00000  Uiso   1.00
H642   H     0.28927   0.43923   0.46439   0.00000  Uiso   1.00
H643   H     0.32155   0.46098   0.41951   0.00000  Uiso   1.00
C644   C     0.00630   0.54834   0.54396   0.00000  Uiso   1.00
C645   C     0.30270   0.58559   0.53778   0.00000  Uiso   1.00
H646   H     0.29108   0.59217   0.50094   0.00000  Uiso   1.00
H647   H     0.26751   0.57956   0.55464   0.00000  Uiso   1.00
H648   H     0.32260   0.61369   0.55399   0.00000  Uiso   1.00
H649   H     0.01182   0.53901   0.58049   0.00000  Uiso   1.00
H650   H     0.04405   0.56078   0.53558   0.00000  Uiso   1.00
C651   C     0.50033   0.41999   0.50005   0.00000  Uiso   1.00
C652   C     0.49967   0.58001   0.49995   0.00000  Uiso   1.00
C653   C     0.40066   0.49899   0.48864   0.00000  Uiso   1.00
C654   C     0.59934   0.50101   0.51136   0.00000  Uiso   1.00
C655   C     0.34698   0.48972   0.48539   0.00000  Uiso   1.00
C656   C     0.65302   0.51028   0.51461   0.00000  Uiso   1.00
C657   C     0.51797   0.35484   0.46377   0.00000  Uiso   1.00
C658   C     0.48204   0.64516   0.53623   0.00000  Uiso   1.00
C659   C     0.51770   0.64544   0.46369   0.00000  Uiso   1.00
C660   C     0.48231   0.35456   0.53631   0.00000  Uiso   1.00
C661   C     0.49973   0.62415   0.49992   0.00000  Uiso   1.00
C662   C     0.50027   0.37585   0.50008   0.00000  Uiso   1.00
C663   C     0.53371   0.52511   0.36113   0.00000  Uiso   1.00
C664   C     0.46629   0.47489   0.63887   0.00000  Uiso   1.00
C665   C     0.53368   0.52511   0.64651   0.00000  Uiso   1.00
C666   C     0.46632   0.47489   0.35349   0.00000  Uiso   1.00
H667   H     0.53239   0.37137   0.43587   0.00000  Uiso   1.00
H668   H     0.46761   0.62863   0.56413   0.00000  Uiso   1.00
H669   H     0.53198   0.62914   0.43575   0.00000  Uiso   1.00
H670   H     0.46802   0.37086   0.56425   0.00000  Uiso   1.00
H671   H     0.56066   0.54518   0.38235   0.00000  Uiso   1.00
H672   H     0.43934   0.45482   0.61765   0.00000  Uiso   1.00
H673   H     0.56061   0.54519   0.63140   0.00000  Uiso   1.00
H674   H     0.43939   0.45481   0.36860   0.00000  Uiso   1.00
N675   N     0.49999   0.49999   0.61907   0.00000  Uiso   1.00
N676   N     0.50001   0.50001   0.38093   0.00000  Uiso   1.00
O677   O     0.50000   0.43892   0.53821   0.00000  Uiso   1.00
O678   O     0.50000   0.56108   0.46179   0.00000  Uiso   1.00
O679   O     0.50000   0.43893   0.46176   0.00000  Uiso   1.00
O680   O     0.50000   0.56107   0.53824   0.00000  Uiso   1.00
O681   O     0.42392   0.50000   0.52928   0.00000  Uiso   1.00
O682   O     0.57608   0.50000   0.47072   0.00000  Uiso   1.00
O683   O     0.42392   0.50000   0.45284   0.00000  Uiso   1.00
O684   O     0.57608   0.50000   0.54716   0.00000  Uiso   1.00
Zn685  Zn    0.50000   0.49999   0.55104   0.00000  Uiso   1.00
Zn686  Zn    0.50000   0.50001   0.44896   0.00000  Uiso   1.00
C687   C     0.66037   0.45166   0.45604   0.00000  Uiso   1.00
C688   C     0.36395   0.41440   0.46224   0.00000  Uiso   1.00
H689   H     0.39917   0.42042   0.44542   0.00000  Uiso   1.00
H690   H     0.37553   0.40782   0.49909   0.00000  Uiso   1.00
H691   H     0.34406   0.38630   0.44602   0.00000  Uiso   1.00
H692   H     0.62260   0.43923   0.46439   0.00000  Uiso   1.00
H693   H     0.65488   0.46098   0.41951   0.00000  Uiso   1.00
C694   C     0.33963   0.54834   0.54396   0.00000  Uiso   1.00
C695   C     0.63603   0.58559   0.53778   0.00000  Uiso   1.00
H696   H     0.62441   0.59217   0.50094   0.00000  Uiso   1.00
H697   H     0.60084   0.57956   0.55464   0.00000  Uiso   1.00
H698   H     0.65593   0.61369   0.55399   0.00000  Uiso   1.00
H699   H     0.34516   0.53901   0.58049   0.00000  Uiso   1.00
H700   H     0.37739   0.56078   0.53558   0.00000  Uiso   1.00
C701   C     0.83367   0.41999   0.50005   0.00000  Uiso   1.00
C702   C     0.83300   0.58001   0.49995   0.00000  Uiso   1.00
C703   C     0.73399   0.49899   0.48864   0.00000  Uiso   1.00
C704   C     0.93267   0.50101   0.51136   0.00000  Uiso   1.00
C705   C     0.68031   0.48972   0.48539   0.00000  Uiso   1.00
C706   C     0.98636   0.51028   0.51461   0.00000  Uiso   1.00
C707   C     0.85130   0.35484   0.46377   0.00000  Uiso   1.00
C708   C     0.81537   0.64516   0.53623   0.00000  Uiso   1.00
C709   C     0.85103   0.64544   0.46369   0.00000  Uiso   1.00
C710   C     0.81564   0.35456   0.53631   0.00000  Uiso   1.00
C711   C     0.83307   0.62415   0.49992   0.00000  Uiso   1.00
C712   C     0.83360   0.37585   0.50008   0.00000  Uiso   1.00
C713   C     0.86704   0.52511   0.36113   0.00000  Uiso   1.00
C714   C     0.79963   0.47489   0.63887   0.00000  Uiso   1.00
C715   C     0.86702   0.52511   0.64651   0.00000  Uiso   1.00
C716   C     0.79965   0.47489   0.35349   0.00000  Uiso   1.00
H717   H     0.86573   0.37137   0.43587   0.00000  Uiso   1.00
H718   H     0.80094   0.62863   0.56413   0.00000  Uiso   1.00
H719   H     0.86531   0.62914   0.43575   0.00000  Uiso   1.00
H720   H     0.80136   0.37086   0.56425   0.00000  Uiso   1.00
H721   H     0.89399   0.54518   0.38235   0.00000  Uiso   1.00
H722   H     0.77268   0.45482   0.61765   0.00000  Uiso   1.00
H723   H     0.89395   0.54519   0.63140   0.00000  Uiso   1.00
H724   H     0.77272   0.45481   0.36860   0.00000  Uiso   1.00
N725   N     0.83332   0.49999   0.61907   0.00000  Uiso   1.00
N726   N     0.83335   0.50001   0.38093   0.00000  Uiso   1.00
O727   O     0.83333   0.43892   0.53821   0.00000  Uiso   1.00
O728   O     0.83334   0.56108   0.46179   0.00000  Uiso   1.00
O729   O     0.83333   0.43893   0.46176   0.00000  Uiso   1.00
O730   O     0.83334   0.56107   0.53824   0.00000  Uiso   1.00
O731   O     0.75725   0.50000   0.52928   0.00000  Uiso   1.00
O732   O     0.90942   0.50000   0.47072   0.00000  Uiso   1.00
O733   O     0.75725   0.50000   0.45284   0.00000  Uiso   1.00
O734   O     0.90942   0.50000   0.54716   0.00000  Uiso   1.00
Zn735  Zn    0.83333   0.49999   0.55104   0.00000  Uiso   1.00
Zn736  Zn    0.83333   0.50001   0.44896   0.00000  Uiso   1.00
C737   C     0.99371   0.45166   0.45604   0.00000  Uiso   1.00
C738   C     0.69729   0.41440   0.46224   0.00000  Uiso   1.00
H739   H     0.73251   0.42042   0.44542   0.00000  Uiso   1.00
H740   H     0.70886   0.40782   0.49909   0.00000  Uiso   1.00
H741   H     0.67739   0.38630   0.44602   0.00000  Uiso   1.00
H742   H     0.95594   0.43923   0.46439   0.00000  Uiso   1.00
H743   H     0.98822   0.46098   0.41951   0.00000  Uiso   1.00
C744   C     0.67296   0.54834   0.54396   0.00000  Uiso   1.00
C745   C     0.96936   0.58559   0.53778   0.00000  Uiso   1.00
H746   H     0.95775   0.59217   0.50094   0.00000  Uiso   1.00
H747   H     0.93417   0.57956   0.55464   0.00000  Uiso   1.00
H748   H     0.98926   0.61369   0.55399   0.00000  Uiso   1.00
H749   H     0.67849   0.53901   0.58049   0.00000  Uiso   1.00
H750   H     0.71072   0.56078   0.53558   0.00000  Uiso   1.00
C751   C     0.16700   0.75332   0.50005   0.00000  Uiso   1.00
C752   C     0.16634   0.91334   0.49995   0.00000  Uiso   1.00
C753   C     0.06733   0.83232   0.48864   0.00000  Uiso   1.00
C754   C     0.26601   0.83434   0.51136   0.00000  Uiso   1.00
C755   C     0.01364   0.82305   0.48539   0.00000  Uiso   1.00
C756   C     0.31969   0.84361   0.51461   0.00000  Uiso   1.00
C757   C     0.18463   0.68817   0.46377   0.00000  Uiso   1.00
C758   C     0.14870   0.97849   0.53623   0.00000  Uiso   1.00
C759   C     0.18436   0.97877   0.46369   0.00000  Uiso   1.00
C760   C     0.14897   0.68790   0.53631   0.00000  Uiso   1.00
C761   C     0.16640   0.95749   0.49992   0.00000  Uiso   1.00
C762   C     0.16694   0.70918   0.50008   0.00000  Uiso   1.00
C763   C     0.20037   0.85844   0.36113   0.00000  Uiso   1.00
C764   C     0.13296   0.80823   0.63887   0.00000  Uiso   1.00
C765   C     0.20035   0.85844   0.64651   0.00000  Uiso   1.00
C766   C     0.13298   0.80823   0.35349   0.00000  Uiso   1.00
H767   H     0.19906   0.70470   0.43587   0.00000  Uiso   1.00
H768   H     0.13428   0.96197   0.56413   0.00000  Uiso   1.00
H769   H     0.19864   0.96247   0.43575   0.00000  Uiso   1.00
H770   H     0.13469   0.70420   0.56425   0.00000  Uiso   1.00
H771   H     0.22732   0.87851   0.38235   0.00000  Uiso   1.00
H772   H     0.10601   0.78815   0.61765   0.00000  Uiso   1.00
H773   H     0.22728   0.87852   0.63140   0.00000  Uiso   1.00
H774   H     0.10605   0.78815   0.36860   0.00000  Uiso   1.00
N775   N     0.16665   0.83332   0.61907   0.00000  Uiso   1.00
N776   N     0.16668   0.83334   0.38093   0.00000  Uiso   1.00
O777   O     0.16666   0.77225   0.53821   0.00000  Uiso   1.00
O778   O     0.16667   0.89442   0.46179   0.00000  Uiso   1.00
O779   O     0.16666   0.77226   0.46176   0.00000  Uiso   1.00
O780   O     0.16667   0.89441   0.53824   0.00000  Uiso   1.00
O781   O     0.09058   0.83333   0.52928   0.00000  Uiso   1.00
O782   O     0.24275   0.83334   0.47072   0.00000  Uiso   1.00
O783   O     0.09058   0.83334   0.45284   0.00000  Uiso   1.00
O784   O     0.24275   0.83333   0.54716   0.00000  Uiso   1.00
Zn785  Zn    0.16667   0.83333   0.55104   0.00000  Uiso   1.00
Zn786  Zn    0.16667   0.83334   0.44896   0.00000  Uiso   1.00
C787   C     0.32704   0.78499   0.45604   0.00000  Uiso   1.00
C788   C     0.03062   0.74774   0.46224   0.00000  Uiso   1.00
H789   H     0.06584   0.75376   0.44542   0.00000  Uiso   1.00
H790   H     0.04220   0.74115   0.49909   0.00000  Uiso   1.00
H791   H     0.01073   0.71963   0.44602   0.00000  Uiso   1.00
H792   H     0.28927   0.77257   0.46439   0.00000  Uiso   1.00
H793   H     0.32155   0.79432   0.41951   0.00000  Uiso   1.00
C794   C     0.00630   0.88167   0.54396   0.00000  Uiso   1.00
C795   C     0.30270   0.91892   0.53778   0.00000  Uiso   1.00
H796   H     0.29108   0.92550   0.50094   0.00000  Uiso   1.00
H797   H     0.26751   0.91289   0.55464   0.00000  Uiso   1.00
H798   H     0.32260   0.94703   0.55399   0.00000  Uiso   1.00
H799   H     0.01182   0.87234   0.58049   0.00000  Uiso   1.00
H800   H     0.04405   0.89411   0.53558   0.00000  Uiso   1.00
C801   C     0.50033   0.75332   0.50005   0.00000  Uiso   1.00
C802   C     0.49967   0.91334   0.49995   0.00000  Uiso   1.00
C803   C     0.40066   0.83232   0.48864   0.00000  Uiso   1.00
C804   C     0.59934   0.83434   0.51136   0.00000  Uiso   1.00
C805   C     0.34698   0.82305   0.48539   0.00000  Uiso   1.00
C806   C     0.65302   0.84361   0.51461   0.00000  Uiso   1.00
C807   C     0.51797   0.68817   0.46377   0.00000  Uiso   1.00
C808   C     0.48204   0.97849   0.53623   0.00000  Uiso   1.00
C809   C     0.51770   0.97877   0.46369   0.00000  Uiso   1.00
C810   C     0.48231   0.68790   0.53631   0.00000  Uiso   1.00
C811   C     0.49973   0.95749   0.49992   0.00000  Uiso   1.00
C812   C     0.50027   0.70918   0.50008   0.00000  Uiso   1.00
C813   C     0.53371   0.85844   0.36113   0.00000  Uiso   1.00
C814   C     0.46629   0.80823   0.63887   0.00000  Uiso   1.00
C815   C     0.53368   0.85844   0.64651   0.00000  Uiso   1.00
C816   C     0.46632   0.80823   0.35349   0.00000  Uiso   1.00
H817   H     0.53239   0.70470   0.43587   0.00000  Uiso   1.00
H818   H     0.46761   0.96197   0.56413   0.00000  Uiso   1.00
H819   H     0.53198   0.96247   0.43575   0.00000  Uiso   1.00
H820   H     0.46802   0.70420   0.56425   0.00000  Uiso   1.00
H821   H     0.56066   0.87851   0.38235   0.00000  Uiso   1.00
H822   H     0.43934   0.78815   0.61765   0.00000  Uiso   1.00
H823   H     0.56061   0.87852   0.63140   0.00000  Uiso   1.00
H824   H     0.43939   0.78815   0.36860   0.00000  Uiso   1.00
N825   N     0.49999   0.83332   0.61907   0.00000  Uiso   1.00
N826   N     0.50001   0.83334   0.38093   0.00000  Uiso   1.00
O827   O     0.50000   0.77225   0.53821   0.00000  Uiso   1.00
O828   O     0.50000   0.89442   0.46179   0.00000  Uiso   1.00
O829   O     0.50000   0.77226   0.46176   0.00000  Uiso   1.00
O830   O     0.50000   0.89441   0.53824   0.00000  Uiso   1.00
O831   O     0.42392   0.83333   0.52928   0.00000  Uiso   1.00
O832   O     0.57608   0.83334   0.47072   0.00000  Uiso   1.00
O833   O     0.42392   0.83334   0.45284   0.00000  Uiso   1.00
O834   O     0.57608   0.83333   0.54716   0.00000  Uiso   1.00
Zn835  Zn    0.50000   0.83333   0.55104   0.00000  Uiso   1.00
Zn836  Zn    0.50000   0.83334   0.44896   0.00000  Uiso   1.00
C837   C     0.66037   0.78499   0.45604   0.00000  Uiso   1.00
C838   C     0.36395   0.74774   0.46224   0.00000  Uiso   1.00
H839   H     0.39917   0.75376   0.44542   0.00000  Uiso   1.00
H840   H     0.37553   0.74115   0.49909   0.00000  Uiso   1.00
H841   H     0.34406   0.71963   0.44602   0.00000  Uiso   1.00
H842   H     0.62260   0.77257   0.46439   0.00000  Uiso   1.00
H843   H     0.65488   0.79432   0.41951   0.00000  Uiso   1.00
C844   C     0.33963   0.88167   0.54396   0.00000  Uiso   1.00
C845   C     0.63603   0.91892   0.53778   0.00000  Uiso   1.00
H846   H     0.62441   0.92550   0.50094   0.00000  Uiso   1.00
H847   H     0.60084   0.91289   0.55464   0.00000  Uiso   1.00
H848   H     0.65593   0.94703   0.55399   0.00000  Uiso   1.00
H849   H     0.34516   0.87234   0.58049   0.00000  Uiso   1.00
H850   H     0.37739   0.89411   0.53558   0.00000  Uiso   1.00
C851   C     0.83367   0.75332   0.50005   0.00000  Uiso   1.00
C852   C     0.83300   0.91334   0.49995   0.00000  Uiso   1.00
C853   C     0.73399   0.83232   0.48864   0.00000  Uiso   1.00
C854   C     0.93267   0.83434   0.51136   0.00000  Uiso   1.00
C855   C     0.68031   0.82305   0.48539   0.00000  Uiso   1.00
C856   C     0.98636   0.84361   0.51461   0.00000  Uiso   1.00
C857   C     0.85130   0.68817   0.46377   0.00000  Uiso   1.00
C858   C     0.81537   0.97849   0.53623   0.00000  Uiso   1.00
C859   C     0.85103   0.97877   0.46369   0.00000  Uiso   1.00
C860   C     0.81564   0.68790   0.53631   0.00000  Uiso   1.00
C861   C     0.83307   0.95749   0.49992   0.00000  Uiso   1.00
C862   C     0.83360   0.70918   0.50008   0.00000  Uiso   1.00
C863   C     0.86704   0.85844   0.36113   0.00000  Uiso   1.00
C864   C     0.79963   0.80823   0.63887   0.00000  Uiso   1.00
C865   C     0.86702   0.85844   0.64651   0.00000  Uiso   1.00
C866   C     0.79965   0.80823   0.35349   0.00000  Uiso   1.00
H867   H     0.86573   0.70470   0.43587   0.00000  Uiso   1.00
H868   H     0.80094   0.96197   0.56413   0.00000  Uiso   1.00
H869   H     0.86531   0.96247   0.43575   0.00000  Uiso   1.00
H870   H     0.80136   0.70420   0.56425   0.00000  Uiso   1.00
H871   H     0.89399   0.87851   0.38235   0.00000  Uiso   1.00
H872   H     0.77268   0.78815   0.61765   0.00000  Uiso   1.00
H873   H     0.89395   0.87852   0.63140   0.00000  Uiso   1.00
H874   H     0.77272   0.78815   0.36860   0.00000  Uiso   1.00
N875   N     0.83332   0.83332   0.61907   0.00000  Uiso   1.00
N876   N     0.83335   0.83334   0.38093   0.00000  Uiso   1.00
O877   O     0.83333   0.77225   0.53821   0.00000  Uiso   1.00
O878   O     0.83334   0.89442   0.46179   0.00000  Uiso   1.00
O879   O     0.83333   0.77226   0.46176   0.00000  Uiso   1.00
O880   O     0.83334   0.89441   0.53824   0.00000  Uiso   1.00
O881   O     0.75725   0.83333   0.52928   0.00000  Uiso   1.00
O882   O     0.90942   0.83334   0.47072   0.00000  Uiso   1.00
O883   O     0.75725   0.83334   0.45284   0.00000  Uiso   1.00
O884   O     0.90942   0.83333   0.54716   0.00000  Uiso   1.00
Zn885  Zn    0.83333   0.83333   0.55104   0.00000  Uiso   1.00
Zn886  Zn    0.83333   0.83334   0.44896   0.00000  Uiso   1.00
C887   C     0.99371   0.78499   0.45604   0.00000  Uiso   1.00
C888   C     0.69729   0.74774   0.46224   0.00000  Uiso   1.00
H889   H     0.73251   0.75376   0.44542   0.00000  Uiso   1.00
H890   H     0.70886   0.74115   0.49909   0.00000  Uiso   1.00
H891   H     0.67739   0.71963   0.44602   0.00000  Uiso   1.00
H892   H     0.95594   0.77257   0.46439   0.00000  Uiso   1.00
H893   H     0.98822   0.79432   0.41951   0.00000  Uiso   1.00
C894   C     0.67296   0.88167   0.54396   0.00000  Uiso   1.00
C895   C     0.96936   0.91892   0.53778   0.00000  Uiso   1.00
H896   H     0.95775   0.92550   0.50094   0.00000  Uiso   1.00
H897   H     0.93417   0.91289   0.55464   0.00000  Uiso   1.00
H898   H     0.98926   0.94703   0.55399   0.00000  Uiso   1.00
H899   H     0.67849   0.87234   0.58049   0.00000  Uiso   1.00
H900   H     0.71072   0.89411   0.53558   0.00000  Uiso   1.00
C901   C     0.16700   0.08665   0.83338   0.00000  Uiso   1.00
C902   C     0.16634   0.24668   0.83328   0.00000  Uiso   1.00
C903   C     0.06733   0.16566   0.82197   0.00000  Uiso   1.00
C904   C     0.26601   0.16768   0.84470   0.00000  Uiso   1.00
C905   C     0.01364   0.15638   0.81872   0.00000  Uiso   1.00
C906   C     0.31969   0.17695   0.84795   0.00000  Uiso   1.00
C907   C     0.18463   0.02151   0.79710   0.00000  Uiso   1.00
C908   C     0.14870   0.31182   0.86956   0.00000  Uiso   1.00
C909   C     0.18436   0.31210   0.79702   0.00000  Uiso   1.00
C910   C     0.14897   0.02123   0.86964   0.00000  Uiso   1.00
C911   C     0.16640   0.29082   0.83325   0.00000  Uiso   1.00
C912   C     0.16694   0.04251   0.83341   0.00000  Uiso   1.00
C913   C     0.20037   0.19177   0.69446   0.00000  Uiso   1.00
C914   C     0.13296   0.14156   0.97220   0.00000  Uiso   1.00
C915   C     0.20035   0.19177   0.97984   0.00000  Uiso   1.00
C916   C     0.13298   0.14156   0.68683   0.00000  Uiso   1.00
H917   H     0.19906   0.03803   0.76921   0.00000  Uiso   1.00
H918   H     0.13428   0.29530   0.89746   0.00000  Uiso   1.00
H919   H     0.19864   0.29580   0.76909   0.00000  Uiso   1.00
H920   H     0.13469   0.03753   0.89758   0.00000  Uiso   1.00
H921   H     0.22732   0.21185   0.71568   0.00000  Uiso   1.00
H922   H     0.10601   0.12148   0.95099   0.00000  Uiso   1.00
H923   H     0.22728   0.21185   0.96473   0.00000  Uiso   1.00
H924   H     0.10605   0.12148   0.70194   0.00000  Uiso   1.00
N925   N     0.16665   0.16666   0.95240   0.00000  Uiso   1.00
N926   N     0.16668   0.16668   0.71427   0.00000  Uiso   1.00
O927   O     0.16666   0.10558   0.87154   0.00000  Uiso   1.00
O928   O     0.16667   0.22775   0.79513   0.00000  Uiso   1.00
O929   O     0.16666   0.10559   0.79510   0.00000  Uiso   1.00
O930   O     0.16667   0.22774   0.87157   0.00000  Uiso   1.00
O931   O     0.09058   0.16666   0.86261   0.00000  Uiso   1.00
O932   O     0.24275   0.16667   0.80405   0.00000  Uiso   1.00
O933   O     0.09058   0.16667   0.78617   0.00000  Uiso   1.00
O934   O     0.24275   0.16666   0.88050   0.00000  Uiso   1.00
Zn935  Zn    0.16667   0.16666   0.88437   0.00000  Uiso   1.00
Zn936  Zn    0.16667   0.16667   0.78229   0.00000  Uiso   1.00
C937   C     0.32704   0.11832   0.78937   0.00000  Uiso   1.00
C938   C     0.03062   0.08107   0.79558   0.00000  Uiso   1.00
H939   H     0.06584   0.08709   0.77875   0.00000  Uiso   1.00
H940   H     0.04220   0.07449   0.83243   0.00000  Uiso   1.00
H941   H     0.01073   0.05296   0.77935   0.00000  Uiso   1.00
H942   H     0.28927   0.10590   0.79773   0.00000  Uiso   1.00
H943   H     0.32155   0.12765   0.75284   0.00000  Uiso   1.00
C944   C     0.00630   0.21501   0.87729   0.00000  Uiso   1.00
C945   C     0.30270   0.25225   0.87112   0.00000  Uiso   1.00
H946   H     0.29108   0.25883   0.83427   0.00000  Uiso   1.00
H947   H     0.26751   0.24622   0.88798   0.00000  Uiso   1.00
H948   H     0.32260   0.28036   0.88732   0.00000  Uiso   1.00
H949   H     0.01182   0.20568   0.91382   0.00000  Uiso   1.00
H950   H     0.04405   0.22744   0.86891   0.00000  Uiso   1.00
C951   C     0.50033   0.08665   0.83338   0.00000  Uiso   1.00
C952   C     0.49967   0.24668   0.83328   0.00000  Uiso   1.00
C953   C     0.40066   0.16566   0.82197   0.00000  Uiso   1.00
C954   C     0.59934   0.16768   0.84470   0.00000  Uiso   1.00
C955   C     0.34698   0.15638   0.81872   0.00000  Uiso   1.00
C956   C     0.65302   0.17695   0.84795   0.00000  Uiso   1.00
C957   C     0.51797   0.02151   0.79710   0.00000  Uiso   1.00
C958   C     0.48204   0.31182   0.86956   0.00000  Uiso   1.00
C959   C     0.51770   0.31210   0.79702   0.00000  Uiso   1.00
C960   C     0.48231   0.02123   0.86964   0.00000  Uiso   1.00
C961   C     0.49973   0.29082   0.83325   0.00000  Uiso   1.00
C962   C     0.50027   0.04251   0.83341   0.00000  Uiso   1.00
C963   C     0.53371   0.19177   0.69446   0.00000  Uiso   1.00
C964   C     0.46629   0.14156   0.97220   0.00000  Uiso   1.00
C965   C     0.53368   0.19177   0.97984   0.00000  Uiso   1.00
C966   C     0.46632   0.14156   0.68683   0.00000  Uiso   1.00
H967   H     0.53239   0.03803   0.76921   0.00000  Uiso   1.00
H968   H     0.46761   0.29530   0.89746   0.00000  Uiso   1.00
H969   H     0.53198   0.29580   0.76909   0.00000  Uiso   1.00
H970   H     0.46802   0.03753   0.89758   0.00000  Uiso   1.00
H971   H     0.56066   0.21185   0.71568   0.00000  Uiso   1.00
H972   H     0.43934   0.12148   0.95099   0.00000  Uiso   1.00
H973   H     0.56061   0.21185   0.96473   0.00000  Uiso   1.00
H974   H     0.43939   0.12148   0.70194   0.00000  Uiso   1.00
N975   N     0.49999   0.16666   0.95240   0.00000  Uiso   1.00
N976   N     0.50001   0.16668   0.71427   0.00000  Uiso   1.00
O977   O     0.50000   0.10558   0.87154   0.00000  Uiso   1.00
O978   O     0.50000   0.22775   0.79513   0.00000  Uiso   1.00
O979   O     0.50000   0.10559   0.79510   0.00000  Uiso   1.00
O980   O     0.50000   0.22774   0.87157   0.00000  Uiso   1.00
O981   O     0.42392   0.16666   0.86261   0.00000  Uiso   1.00
O982   O     0.57608   0.16667   0.80405   0.00000  Uiso   1.00
O983   O     0.42392   0.16667   0.78617   0.00000  Uiso   1.00
O984   O     0.57608   0.16666   0.88050   0.00000  Uiso   1.00
Zn985  Zn    0.50000   0.16666   0.88437   0.00000  Uiso   1.00
Zn986  Zn    0.50000   0.16667   0.78229   0.00000  Uiso   1.00
C987   C     0.66037   0.11832   0.78937   0.00000  Uiso   1.00
C988   C     0.36395   0.08107   0.79558   0.00000  Uiso   1.00
H989   H     0.39917   0.08709   0.77875   0.00000  Uiso   1.00
H990   H     0.37553   0.07449   0.83243   0.00000  Uiso   1.00
H991   H     0.34406   0.05296   0.77935   0.00000  Uiso   1.00
H992   H     0.62260   0.10590   0.79773   0.00000  Uiso   1.00
H993   H     0.65488   0.12765   0.75284   0.00000  Uiso   1.00
C994   C     0.33963   0.21501   0.87729   0.00000  Uiso   1.00
C995   C     0.63603   0.25225   0.87112   0.00000  Uiso   1.00
H996   H     0.62441   0.25883   0.83427   0.00000  Uiso   1.00
H997   H     0.60084   0.24622   0.88798   0.00000  Uiso   1.00
H998   H     0.65593   0.28036   0.88732   0.00000  Uiso   1.00
H999   H     0.34516   0.20568   0.91382   0.00000  Uiso   1.00
H1000  H     0.37739   0.22744   0.86891   0.00000  Uiso   1.00
C1001  C     0.83367   0.08665   0.83338   0.00000  Uiso   1.00
C1002  C     0.83300   0.24668   0.83328   0.00000  Uiso   1.00
C1003  C     0.73399   0.16566   0.82197   0.00000  Uiso   1.00
C1004  C     0.93267   0.16768   0.84470   0.00000  Uiso   1.00
C1005  C     0.68031   0.15638   0.81872   0.00000  Uiso   1.00
C1006  C     0.98636   0.17695   0.84795   0.00000  Uiso   1.00
C1007  C     0.85130   0.02151   0.79710   0.00000  Uiso   1.00
C1008  C     0.81537   0.31182   0.86956   0.00000  Uiso   1.00
C1009  C     0.85103   0.31210   0.79702   0.00000  Uiso   1.00
C1010  C     0.81564   0.02123   0.86964   0.00000  Uiso   1.00
C1011  C     0.83307   0.29082   0.83325   0.00000  Uiso   1.00
C1012  C     0.83360   0.04251   0.83341   0.00000  Uiso   1.00
C1013  C     0.86704   0.19177   0.69446   0.00000  Uiso   1.00
C1014  C     0.79963   0.14156   0.97220   0.00000  Uiso   1.00
C1015  C     0.86702   0.19177   0.97984   0.00000  Uiso   1.00
C1016  C     0.79965   0.14156   0.68683   0.00000  Uiso   1.00
H1017  H     0.86573   0.03803   0.76921   0.00000  Uiso   1.00
H1018  H     0.80094   0.29530   0.89746   0.00000  Uiso   1.00
H1019  H     0.86531   0.29580   0.76909   0.00000  Uiso   1.00
H1020  H     0.80136   0.03753   0.89758   0.00000  Uiso   1.00
H1021  H     0.89399   0.21185   0.71568   0.00000  Uiso   1.00
H1022  H     0.77268   0.12148   0.95099   0.00000  Uiso   1.00
H1023  H     0.89395   0.21185   0.96473   0.00000  Uiso   1.00
H1024  H     0.77272   0.12148   0.70194   0.00000  Uiso   1.00
N1025  N     0.83332   0.16666   0.95240   0.00000  Uiso   1.00
N1026  N     0.83335   0.16668   0.71427   0.00000  Uiso   1.00
O1027  O     0.83333   0.10558   0.87154   0.00000  Uiso   1.00
O1028  O     0.83334   0.22775   0.79513   0.00000  Uiso   1.00
O1029  O     0.83333   0.10559   0.79510   0.00000  Uiso   1.00
O1030  O     0.83334   0.22774   0.87157   0.00000  Uiso   1.00
O1031  O     0.75725   0.16666   0.86261   0.00000  Uiso   1.00
O1032  O     0.90942   0.16667   0.80405   0.00000  Uiso   1.00
O1033  O     0.75725   0.16667   0.78617   0.00000  Uiso   1.00
O1034  O     0.90942   0.16666   0.88050   0.00000  Uiso   1.00
Zn1035 Zn    0.83333   0.16666   0.88437   0.00000  Uiso   1.00
Zn1036 Zn    0.83333   0.16667   0.78229   0.00000  Uiso   1.00
C1037  C     0.99371   0.11832   0.78937   0.00000  Uiso   1.00
C1038  C     0.69729   0.08107   0.79558   0.00000  Uiso   1.00
H1039  H     0.73251   0.08709   0.77875   0.00000  Uiso   1.00
H1040  H     0.70886   0.07449   0.83243   0.00000  Uiso   1.00
H1041  H     0.67739   0.05296   0.77935   0.00000  Uiso   1.00
H1042  H     0.95594   0.10590   0.79773   0.00000  Uiso   1.00
H1043  H     0.98822   0.12765   0.75284   0.00000  Uiso   1.00
C1044  C     0.67296   0.21501   0.87729   0.00000  Uiso   1.00
C1045  C     0.96936   0.25225   0.87112   0.00000  Uiso   1.00
H1046  H     0.95775   0.25883   0.83427   0.00000  Uiso   1.00
H1047  H     0.93417   0.24622   0.88798   0.00000  Uiso   1.00
H1048  H     0.98926   0.28036   0.88732   0.00000  Uiso   1.00
H1049  H     0.67849   0.20568   0.91382   0.00000  Uiso   1.00
H1050  H     0.71072   0.22744   0.86891   0.00000  Uiso   1.00
C1051  C     0.16700   0.41999   0.83338   0.00000  Uiso   1.00
C1052  C     0.16634   0.58001   0.83328   0.00000  Uiso   1.00
C1053  C     0.06733   0.49899   0.82197   0.00000  Uiso   1.00
C1054  C     0.26601   0.50101   0.84470   0.00000  Uiso   1.00
C1055  C     0.01364   0.48972   0.81872   0.00000  Uiso   1.00
C1056  C     0.31969   0.51028   0.84795   0.00000  Uiso   1.00
C1057  C     0.18463   0.35484   0.79710   0.00000  Uiso   1.00
C1058  C     0.14870   0.64516   0.86956   0.00000  Uiso   1.00
C1059  C     0.18436   0.64544   0.79702   0.00000  Uiso   1.00
C1060  C     0.14897   0.35456   0.86964   0.00000  Uiso   1.00
C1061  C     0.16640   0.62415   0.83325   0.00000  Uiso   1.00
C1062  C     0.16694   0.37585   0.83341   0.00000  Uiso   1.00
C1063  C     0.20037   0.52511   0.69446   0.00000  Uiso   1.00
C1064  C     0.13296   0.47489   0.97220   0.00000  Uiso   1.00
C1065  C     0.20035   0.52511   0.97984   0.00000  Uiso   1.00
C1066  C     0.13298   0.47489   0.68683   0.00000  Uiso   1.00
H1067  H     0.19906   0.37137   0.76921   0.00000  Uiso   1.00
H1068  H     0.13428   0.62863   0.89746   0.00000  Uiso   1.00
H1069  H     0.19864   0.62914   0.76909   0.00000  Uiso   1.00
H1070  H     0.13469   0.37086   0.89758   0.00000  Uiso   1.00
H1071  H     0.22732   0.54518   0.71568   0.00000  Uiso   1.00
H1072  H     0.10601   0.45482   0.95099   0.00000  Uiso   1.00
H1073  H     0.22728   0.54519   0.96473   0.00000  Uiso   1.00
H1074  H     0.10605   0.45481   0.70194   0.00000  Uiso   1.00
N1075  N     0.16665   0.49999   0.95240   0.00000  Uiso   1.00
N1076  N     0.16668   0.50001   0.71427   0.00000  Uiso   1.00
O1077  O     0.16666   0.43892   0.87154   0.00000  Uiso   1.00
O1078  O     0.16667   0.56108   0.79513   0.00000  Uiso   1.00
O1079  O     0.16666   0.43893   0.79510   0.00000  Uiso   1.00
O1080  O     0.16667   0.56107   0.87157   0.00000  Uiso   1.00
O1081  O     0.09058   0.50000   0.86261   0.00000  Uiso   1.00
O1082  O     0.24275   0.50000   0.80405   0.00000  Uiso   1.00
O1083  O     0.09058   0.50000   0.78617   0.00000  Uiso   1.00
O1084  O     0.24275   0.50000   0.88050   0.00000  Uiso   1.00
Zn1085 Zn    0.16667   0.49999   0.88437   0.00000  Uiso   1.00
Zn1086 Zn    0.16667   0.50001   0.78229   0.00000  Uiso   1.00
C1087  C     0.32704   0.45166   0.78937   0.00000  Uiso   1.00
C1088  C     0.03062   0.41440   0.79558   0.00000  Uiso   1.00
H1089  H     0.06584   0.42042   0.77875   0.00000  Uiso   1.00
H1090  H     0.04220   0.40782   0.83243   0.00000  Uiso   1.00
H1091  H     0.01073   0.38630   0.77935   0.00000  Uiso   1.00
H1092  H     0.28927   0.43923   0.79773   0.00000  Uiso   1.00
H1093  H     0.32155   0.46098   0.75284   0.00000  Uiso   1.00
C1094  C     0.00630   0.54834   0.87729   0.00000  Uiso   1.00
C1095  C     0.30270   0.58559   0.87112   0.00000  Uiso   1.00
H1096  H     0.29108   0.59217   0.83427   0.00000  Uiso   1.00
H1097  H     0.26751   0.57956   0.88798   0.00000  Uiso   1.00
H1098  H     0.32260   0.61369   0.88732   0.00000  Uiso   1.00
H1099  H     0.01182   0.53901   0.91382   0.00000  Uiso   1.00
H1100  H     0.04405   0.56078   0.86891   0.00000  Uiso   1.00
C1101  C     0.50033   0.41999   0.83338   0.00000  Uiso   1.00
C1102  C     0.49967   0.58001   0.83328   0.00000  Uiso   1.00
C1103  C     0.40066   0.49899   0.82197   0.00000  Uiso   1.00
C1104  C     0.59934   0.50101   0.84470   0.00000  Uiso   1.00
C1105  C     0.34698   0.48972   0.81872   0.00000  Uiso   1.00
C1106  C     0.65302   0.51028   0.84795   0.00000  Uiso   1.00
C1107  C     0.51797   0.35484   0.79710   0.00000  Uiso   1.00
C1108  C     0.48204   0.64516   0.86956   0.00000  Uiso   1.00
C1109  C     0.51770   0.64544   0.79702   0.00000  Uiso   1.00
C1110  C     0.48231   0.35456   0.86964   0.00000  Uiso   1.00
C1111  C     0.49973   0.62415   0.83325   0.00000  Uiso   1.00
C1112  C     0.50027   0.37585   0.83341   0.00000  Uiso   1.00
C1113  C     0.53371   0.52511   0.69446   0.00000  Uiso   1.00
C1114  C     0.46629   0.47489   0.97220   0.00000  Uiso   1.00
C1115  C     0.53368   0.52511   0.97984   0.00000  Uiso   1.00
C1116  C     0.46632   0.47489   0.68683   0.00000  Uiso   1.00
H1117  H     0.53239   0.37137   0.76921   0.00000  Uiso   1.00
H1118  H     0.46761   0.62863   0.89746   0.00000  Uiso   1.00
H1119  H     0.53198   0.62914   0.76909   0.00000  Uiso   1.00
H1120  H     0.46802   0.37086   0.89758   0.00000  Uiso   1.00
H1121  H     0.56066   0.54518   0.71568   0.00000  Uiso   1.00
H1122  H     0.43934   0.45482   0.95099   0.00000  Uiso   1.00
H1123  H     0.56061   0.54519   0.96473   0.00000  Uiso   1.00
H1124  H     0.43939   0.45481   0.70194   0.00000  Uiso   1.00
N1125  N     0.49999   0.49999   0.95240   0.00000  Uiso   1.00
N1126  N     0.50001   0.50001   0.71427   0.00000  Uiso   1.00
O1127  O     0.50000   0.43892   0.87154   0.00000  Uiso   1.00
O1128  O     0.50000   0.56108   0.79513   0.00000  Uiso   1.00
O1129  O     0.50000   0.43893   0.79510   0.00000  Uiso   1.00
O1130  O     0.50000   0.56107   0.87157   0.00000  Uiso   1.00
O1131  O     0.42392   0.50000   0.86261   0.00000  Uiso   1.00
O1132  O     0.57608   0.50000   0.80405   0.00000  Uiso   1.00
O1133  O     0.42392   0.50000   0.78617   0.00000  Uiso   1.00
O1134  O     0.57608   0.50000   0.88050   0.00000  Uiso   1.00
Zn1135 Zn    0.50000   0.49999   0.88437   0.00000  Uiso   1.00
Zn1136 Zn    0.50000   0.50001   0.78229   0.00000  Uiso   1.00
C1137  C     0.66037   0.45166   0.78937   0.00000  Uiso   1.00
C1138  C     0.36395   0.41440   0.79558   0.00000  Uiso   1.00
H1139  H     0.39917   0.42042   0.77875   0.00000  Uiso   1.00
H1140  H     0.37553   0.40782   0.83243   0.00000  Uiso   1.00
H1141  H     0.34406   0.38630   0.77935   0.00000  Uiso   1.00
H1142  H     0.62260   0.43923   0.79773   0.00000  Uiso   1.00
H1143  H     0.65488   0.46098   0.75284   0.00000  Uiso   1.00
C1144  C     0.33963   0.54834   0.87729   0.00000  Uiso   1.00
C1145  C     0.63603   0.58559   0.87112   0.00000  Uiso   1.00
H1146  H     0.62441   0.59217   0.83427   0.00000  Uiso   1.00
H1147  H     0.60084   0.57956   0.88798   0.00000  Uiso   1.00
H1148  H     0.65593   0.61369   0.88732   0.00000  Uiso   1.00
H1149  H     0.34516   0.53901   0.91382   0.00000  Uiso   1.00
H1150  H     0.37739   0.56078   0.86891   0.00000  Uiso   1.00
C1151  C     0.83367   0.41999   0.83338   0.00000  Uiso   1.00
C1152  C     0.83300   0.58001   0.83328   0.00000  Uiso   1.00
C1153  C     0.73399   0.49899   0.82197   0.00000  Uiso   1.00
C1154  C     0.93267   0.50101   0.84470   0.00000  Uiso   1.00
C1155  C     0.68031   0.48972   0.81872   0.00000  Uiso   1.00
C1156  C     0.98636   0.51028   0.84795   0.00000  Uiso   1.00
C1157  C     0.85130   0.35484   0.79710   0.00000  Uiso   1.00
C1158  C     0.81537   0.64516   0.86956   0.00000  Uiso   1.00
C1159  C     0.85103   0.64544   0.79702   0.00000  Uiso   1.00
C1160  C     0.81564   0.35456   0.86964   0.00000  Uiso   1.00
C1161  C     0.83307   0.62415   0.83325   0.00000  Uiso   1.00
C1162  C     0.83360   0.37585   0.83341   0.00000  Uiso   1.00
C1163  C     0.86704   0.52511   0.69446   0.00000  Uiso   1.00
C1164  C     0.79963   0.47489   0.97220   0.00000  Uiso   1.00
C1165  C     0.86702   0.52511   0.97984   0.00000  Uiso   1.00
C1166  C     0.79965   0.47489   0.68683   0.00000  Uiso   1.00
H1167  H     0.86573   0.37137   0.76921   0.00000  Uiso   1.00
H1168  H     0.80094   0.62863   0.89746   0.00000  Uiso   1.00
H1169  H     0.86531   0.62914   0.76909   0.00000  Uiso   1.00
H1170  H     0.80136   0.37086   0.89758   0.00000  Uiso   1.00
H1171  H     0.89399   0.54518   0.71568   0.00000  Uiso   1.00
H1172  H     0.77268   0.45482   0.95099   0.00000  Uiso   1.00
H1173  H     0.89395   0.54519   0.96473   0.00000  Uiso   1.00
H1174  H     0.77272   0.45481   0.70194   0.00000  Uiso   1.00
N1175  N     0.83332   0.49999   0.95240   0.00000  Uiso   1.00
N1176  N     0.83335   0.50001   0.71427   0.00000  Uiso   1.00
O1177  O     0.83333   0.43892   0.87154   0.00000  Uiso   1.00
O1178  O     0.83334   0.56108   0.79513   0.00000  Uiso   1.00
O1179  O     0.83333   0.43893   0.79510   0.00000  Uiso   1.00
O1180  O     0.83334   0.56107   0.87157   0.00000  Uiso   1.00
O1181  O     0.75725   0.50000   0.86261   0.00000  Uiso   1.00
O1182  O     0.90942   0.50000   0.80405   0.00000  Uiso   1.00
O1183  O     0.75725   0.50000   0.78617   0.00000  Uiso   1.00
O1184  O     0.90942   0.50000   0.88050   0.00000  Uiso   1.00
Zn1185 Zn    0.83333   0.49999   0.88437   0.00000  Uiso   1.00
Zn1186 Zn    0.83333   0.50001   0.78229   0.00000  Uiso   1.00
C1187  C     0.99371   0.45166   0.78937   0.00000  Uiso   1.00
C1188  C     0.69729   0.41440   0.79558   0.00000  Uiso   1.00
H1189  H     0.73251   0.42042   0.77875   0.00000  Uiso   1.00
H1190  H     0.70886   0.40782   0.83243   0.00000  Uiso   1.00
H1191  H     0.67739   0.38630   0.77935   0.00000  Uiso   1.00
H1192  H     0.95594   0.43923   0.79773   0.00000  Uiso   1.00
H1193  H     0.98822   0.46098   0.75284   0.00000  Uiso   1.00
C1194  C     0.67296   0.54834   0.87729   0.00000  Uiso   1.00
C1195  C     0.96936   0.58559   0.87112   0.00000  Uiso   1.00
H1196  H     0.95775   0.59217   0.83427   0.00000  Uiso   1.00
H1197  H     0.93417   0.57956   0.88798   0.00000  Uiso   1.00
H1198  H     0.98926   0.61369   0.88732   0.00000  Uiso   1.00
H1199  H     0.67849   0.53901   0.91382   0.00000  Uiso   1.00
H1200  H     0.71072   0.56078   0.86891   0.00000  Uiso   1.00
C1201  C     0.16700   0.75332   0.83338   0.00000  Uiso   1.00
C1202  C     0.16634   0.91334   0.83328   0.00000  Uiso   1.00
C1203  C     0.06733   0.83232   0.82197   0.00000  Uiso   1.00
C1204  C     0.26601   0.83434   0.84470   0.00000  Uiso   1.00
C1205  C     0.01364   0.82305   0.81872   0.00000  Uiso   1.00
C1206  C     0.31969   0.84361   0.84795   0.00000  Uiso   1.00
C1207  C     0.18463   0.68817   0.79710   0.00000  Uiso   1.00
C1208  C     0.14870   0.97849   0.86956   0.00000  Uiso   1.00
C1209  C     0.18436   0.97877   0.79702   0.00000  Uiso   1.00
C1210  C     0.14897   0.68790   0.86964   0.00000  Uiso   1.00
C1211  C     0.16640   0.95749   0.83325   0.00000  Uiso   1.00
C1212  C     0.16694   0.70918   0.83341   0.00000  Uiso   1.00
C1213  C     0.20037   0.85844   0.69446   0.00000  Uiso   1.00
C1214  C     0.13296   0.80823   0.97220   0.00000  Uiso   1.00
C1215  C     0.20035   0.85844   0.97984   0.00000  Uiso   1.00
C1216  C     0.13298   0.80823   0.68683   0.00000  Uiso   1.00
H1217  H     0.19906   0.70470   0.76921   0.00000  Uiso   1.00
H1218  H     0.13428   0.96197   0.89746   0.00000  Uiso   1.00
H1219  H     0.19864   0.96247   0.76909   0.00000  Uiso   1.00
H1220  H     0.13469   0.70420   0.89758   0.00000  Uiso   1.00
H1221  H     0.22732   0.87851   0.71568   0.00000  Uiso   1.00
H1222  H     0.10601   0.78815   0.95099   0.00000  Uiso   1.00
H1223  H     0.22728   0.87852   0.96473   0.00000  Uiso   1.00
H1224  H     0.10605   0.78815   0.70194   0.00000  Uiso   1.00
N1225  N     0.16665   0.83332   0.95240   0.00000  Uiso   1.00
N1226  N     0.16668   0.83334   0.71427   0.00000  Uiso   1.00
O1227  O     0.16666   0.77225   0.87154   0.00000  Uiso   1.00
O1228  O     0.16667   0.89442   0.79513   0.00000  Uiso   1.00
O1229  O     0.16666   0.77226   0.79510   0.00000  Uiso   1.00
O1230  O     0.16667   0.89441   0.87157   0.00000  Uiso   1.00
O1231  O     0.09058   0.83333   0.86261   0.00000  Uiso   1.00
O1232  O     0.24275   0.83334   0.80405   0.00000  Uiso   1.00
O1233  O     0.09058   0.83334   0.78617   0.00000  Uiso   1.00
O1234  O     0.24275   0.83333   0.88050   0.00000  Uiso   1.00
Zn1235 Zn    0.16667   0.83333   0.88437   0.00000  Uiso   1.00
Zn1236 Zn    0.16667   0.83334   0.78229   0.00000  Uiso   1.00
C1237  C     0.32704   0.78499   0.78937   0.00000  Uiso   1.00
C1238  C     0.03062   0.74774   0.79558   0.00000  Uiso   1.00
H1239  H     0.06584   0.75376   0.77875   0.00000  Uiso   1.00
H1240  H     0.04220   0.74115   0.83243   0.00000  Uiso   1.00
H1241  H     0.01073   0.71963   0.77935   0.00000  Uiso   1.00
H1242  H     0.28927   0.77257   0.79773   0.00000  Uiso   1.00
H1243  H     0.32155   0.79432   0.75284   0.00000  Uiso   1.00
C1244  C     0.00630   0.88167   0.87729   0.00000  Uiso   1.00
C1245  C     0.30270   0.91892   0.87112   0.00000  Uiso   1.00
H1246  H     0.29108   0.92550   0.83427   0.00000  Uiso   1.00
H1247  H     0.26751   0.91289   0.88798   0.00000  Uiso   1.00
H1248  H     0.32260   0.94703   0.88732   0.00000  Uiso   1.00
H1249  H     0.01182   0.87234   0.91382   0.00000  Uiso   1.00
H1250  H     0.04405   0.89411   0.86891   0.00000  Uiso   1.00
C1251  C     0.50033   0.75332   0.83338   0.00000  Uiso   1.00
C1252  C     0.49967   0.91334   0.83328   0.00000  Uiso   1.00
C1253  C     0.40066   0.83232   0.82197   0.00000  Uiso   1.00
C1254  C     0.59934   0.83434   0.84470   0.00000  Uiso   1.00
C1255  C     0.34698   0.82305   0.81872   0.00000  Uiso   1.00
C1256  C     0.65302   0.84361   0.84795   0.00000  Uiso   1.00
C1257  C     0.51797   0.68817   0.79710   0.00000  Uiso   1.00
C1258  C     0.48204   0.97849   0.86956   0.00000  Uiso   1.00
C1259  C     0.51770   0.97877   0.79702   0.00000  Uiso   1.00
C1260  C     0.48231   0.68790   0.86964   0.00000  Uiso   1.00
C1261  C     0.49973   0.95749   0.83325   0.00000  Uiso   1.00
C1262  C     0.50027   0.70918   0.83341   0.00000  Uiso   1.00
C1263  C     0.53371   0.85844   0.69446   0.00000  Uiso   1.00
C1264  C     0.46629   0.80823   0.97220   0.00000  Uiso   1.00
C1265  C     0.53368   0.85844   0.97984   0.00000  Uiso   1.00
C1266  C     0.46632   0.80823   0.68683   0.00000  Uiso   1.00
H1267  H     0.53239   0.70470   0.76921   0.00000  Uiso   1.00
H1268  H     0.46761   0.96197   0.89746   0.00000  Uiso   1.00
H1269  H     0.53198   0.96247   0.76909   0.00000  Uiso   1.00
H1270  H     0.46802   0.70420   0.89758   0.00000  Uiso   1.00
H1271  H     0.56066   0.87851   0.71568   0.00000  Uiso   1.00
H1272  H     0.43934   0.78815   0.95099   0.00000  Uiso   1.00
H1273  H     0.56061   0.87852   0.96473   0.00000  Uiso   1.00
H1274  H     0.43939   0.78815   0.70194   0.00000  Uiso   1.00
N1275  N     0.49999   0.83332   0.95240   0.00000  Uiso   1.00
N1276  N     0.50001   0.83334   0.71427   0.00000  Uiso   1.00
O1277  O     0.50000   0.77225   0.87154   0.00000  Uiso   1.00
O1278  O     0.50000   0.89442   0.79513   0.00000  Uiso   1.00
O1279  O     0.50000   0.77226   0.79510   0.00000  Uiso   1.00
O1280  O     0.50000   0.89441   0.87157   0.00000  Uiso   1.00
O1281  O     0.42392   0.83333   0.86261   0.00000  Uiso   1.00
O1282  O     0.57608   0.83334   0.80405   0.00000  Uiso   1.00
O1283  O     0.42392   0.83334   0.78617   0.00000  Uiso   1.00
O1284  O     0.57608   0.83333   0.88050   0.00000  Uiso   1.00
Zn1285 Zn    0.50000   0.83333   0.88437   0.00000  Uiso   1.00
Zn1286 Zn    0.50000   0.83334   0.78229   0.00000  Uiso   1.00
C1287  C     0.66037   0.78499   0.78937   0.00000  Uiso   1.00
C1288  C     0.36395   0.74774   0.79558   0.00000  Uiso   1.00
H1289  H     0.39917   0.75376   0.77875   0.00000  Uiso   1.00
H1290  H     0.37553   0.74115   0.83243   0.00000  Uiso   1.00
H1291  H     0.34406   0.71963   0.77935   0.00000  Uiso   1.00
H1292  H     0.62260   0.77257   0.79773   0.00000  Uiso   1.00
H1293  H     0.65488   0.79432   0.75284   0.00000  Uiso   1.00
C1294  C     0.33963   0.88167   0.87729   0.00000  Uiso   1.00
C1295  C     0.63603   0.91892   0.87112   0.00000  Uiso   1.00
H1296  H     0.62441   0.92550   0.83427   0.00000  Uiso   1.00
H1297  H     0.60084   0.91289   0.88798   0.00000  Uiso   1.00
H1298  H     0.65593   0.94703   0.88732   0.00000  Uiso   1.00
H1299  H     0.34516   0.87234   0.91382   0.00000  Uiso   1.00
H1300  H     0.37739   0.89411   0.86891   0.00000  Uiso   1.00
C1301  C     0.83367   0.75332   0.83338   0.00000  Uiso   1.00
C1302  C     0.83300   0.91334   0.83328   0.00000  Uiso   1.00
C1303  C     0.73399   0.83232   0.82197   0.00000  Uiso   1.00
C1304  C     0.93267   0.83434   0.84470   0.00000  Uiso   1.00
C1305  C     0.68031   0.82305   0.81872   0.00000  Uiso   1.00
C1306  C     0.98636   0.84361   0.84795   0.00000  Uiso   1.00
C1307  C     0.85130   0.68817   0.79710   0.00000  Uiso   1.00
C1308  C     0.81537   0.97849   0.86956   0.00000  Uiso   1.00
C1309  C     0.85103   0.97877   0.79702   0.00000  Uiso   1.00
C1310  C     0.81564   0.68790   0.86964   0.00000  Uiso   1.00
C1311  C     0.83307   0.95749   0.83325   0.00000  Uiso   1.00
C1312  C     0.83360   0.70918   0.83341   0.00000  Uiso   1.00
C1313  C     0.86704   0.85844   0.69446   0.00000  Uiso   1.00
C1314  C     0.79963   0.80823   0.97220   0.00000  Uiso   1.00
C1315  C     0.86702   0.85844   0.97984   0.00000  Uiso   1.00
C1316  C     0.79965   0.80823   0.68683   0.00000  Uiso   1.00
H1317  H     0.86573   0.70470   0.76921   0.00000  Uiso   1.00
H1318  H     0.80094   0.96197   0.89746   0.00000  Uiso   1.00
H1319  H     0.86531   0.96247   0.76909   0.00000  Uiso   1.00
H1320  H     0.80136   0.70420   0.89758   0.00000  Uiso   1.00
H1321  H     0.89399   0.87851   0.71568   0.00000  Uiso   1.00
H1322  H     0.77268   0.78815   0.95099   0.00000  Uiso   1.00
H1323  H     0.89395   0.87852   0.96473   0.00000  Uiso   1.00
H1324  H     0.77272   0.78815   0.70194   0.00000  Uiso   1.00
N1325  N     0.83332   0.83332   0.95240   0.00000  Uiso   1.00
N1326  N     0.83335   0.83334   0.71427   0.00000  Uiso   1.00
O1327  O     0.83333   0.77225   0.87154   0.00000  Uiso   1.00
O1328  O     0.83334   0.89442   0.79513   0.00000  Uiso   1.00
O1329  O     0.83333   0.77226   0.79510   0.00000  Uiso   1.00
O1330  O     0.83334   0.89441   0.87157   0.00000  Uiso   1.00
O1331  O     0.75725   0.83333   0.86261   0.00000  Uiso   1.00
O1332  O     0.90942   0.83334   0.80405   0.00000  Uiso   1.00
O1333  O     0.75725   0.83334   0.78617   0.00000  Uiso   1.00
O1334  O     0.90942   0.83333   0.88050   0.00000  Uiso   1.00
Zn1335 Zn    0.83333   0.83333   0.88437   0.00000  Uiso   1.00
Zn1336 Zn    0.83333   0.83334   0.78229   0.00000  Uiso   1.00
C1337  C     0.99371   0.78499   0.78937   0.00000  Uiso   1.00
C1338  C     0.69729   0.74774   0.79558   0.00000  Uiso   1.00
H1339  H     0.73251   0.75376   0.77875   0.00000  Uiso   1.00
H1340  H     0.70886   0.74115   0.83243   0.00000  Uiso   1.00
H1341  H     0.67739   0.71963   0.77935   0.00000  Uiso   1.00
H1342  H     0.95594   0.77257   0.79773   0.00000  Uiso   1.00
H1343  H     0.98822   0.79432   0.75284   0.00000  Uiso   1.00
C1344  C     0.67296   0.88167   0.87729   0.00000  Uiso   1.00
C1345  C     0.96936   0.91892   0.87112   0.00000  Uiso   1.00
H1346  H     0.95775   0.92550   0.83427   0.00000  Uiso   1.00
H1347  H     0.93417   0.91289   0.88798   0.00000  Uiso   1.00
H1348  H     0.98926   0.94703   0.88732   0.00000  Uiso   1.00
H1349  H     0.67849   0.87234   0.91382   0.00000  Uiso   1.00
H1350  H     0.71072   0.89411   0.86891   0.00000  Uiso   1.00
loop_
_geom_bond_atom_site_label_1
_geom_bond_atom_site_label_2
_geom_bond_distance
_geom_bond_site_symmetry_2
_ccdc_geom_bond_type
C1     O29     1.282   .     A
C1     C12     1.415   .     S
C1     O27     1.282   .     A
C2     O30     1.282   .     A
C2     C11     1.415   .     S
C2     O28     1.282   .     A
C3     O31     1.271   .     A
C3     O33     1.283   .     A
C3     C5      1.407   .     S
C4     O34     1.283   .     A
C4     O32     1.271   .     A
C4     C6      1.407   .     S
C5     C106    1.359   1_455 S
C5     C137    1.543   1_455 S
C6     C55     1.359   .     S
C6     C94     1.543   .     S
C7     C12     1.396   .     A
C7     H17     1.084   .     S
C7     C309    1.370   1_545 S
C8     C11     1.396   .     A
C8     H18     1.084   .     S
C8     C160    1.370   .     S
C9     C11     1.396   .     A
C9     H19     1.084   .     S
C9     C157    1.370   .     S
C10    C12     1.396   .     A
C10    H20     1.084   .     S
C10    C308    1.370   1_545 S
C13    H21     1.082   .     S
C13    N26     1.366   .     A
C13    C915    1.417   1_554 S
C14    H22     1.082   .     S
C14    N25     1.366   .     A
C14    C466    1.417   .     S
C15    H23     1.082   .     S
C15    N25     1.367   .     A
C15    C463    1.417   .     S
C16    H24     1.082   .     S
C16    N26     1.367   .     A
C16    C914    1.417   1_554 S
N25    Zn35    2.010   .     S
N26    Zn36    2.010   .     S
O27    Zn35    1.995   .     S
O28    Zn36    1.995   .     S
O29    Zn36    1.994   .     S
O30    Zn35    1.994   .     S
O31    Zn35    1.986   .     S
O32    Zn36    1.986   .     S
O33    Zn36    1.984   .     S
O34    Zn35    1.984   .     S
C37    H43     1.111   .     S
C37    H42     1.108   .     S
C37    C55     1.543   .     S
C37    C88     1.531   .     S
C38    H40     1.111   .     S
C38    H39     1.108   .     S
C38    H41     1.111   .     S
C38    C137    1.531   1_455 S
C44    H49     1.111   .     S
C44    H50     1.108   .     S
C44    C106    1.543   1_455 S
C44    C145    1.531   1_455 S
C45    H46     1.111   .     S
C45    H47     1.108   .     S
C45    H48     1.111   .     S
C45    C94     1.531   .     S
C51    O79     1.282   .     A
C51    C62     1.415   .     S
C51    O77     1.282   .     A
C52    O80     1.282   .     A
C52    C61     1.415   .     S
C52    O78     1.282   .     A
C53    O81     1.271   .     A
C53    O83     1.283   .     A
C53    C55     1.407   .     S
C54    O84     1.283   .     A
C54    O82     1.271   .     A
C54    C56     1.407   .     S
C56    C105    1.359   .     S
C56    C144    1.543   .     S
C57    C62     1.396   .     A
C57    H67     1.084   .     S
C57    C359    1.370   1_545 S
C58    C61     1.396   .     A
C58    H68     1.084   .     S
C58    C210    1.370   .     S
C59    C61     1.396   .     A
C59    H69     1.084   .     S
C59    C207    1.370   .     S
C60    C62     1.396   .     A
C60    H70     1.084   .     S
C60    C358    1.370   1_545 S
C63    H71     1.082   .     S
C63    N76     1.366   .     A
C63    C965    1.417   1_554 S
C64    H72     1.082   .     S
C64    N75     1.366   .     A
C64    C516    1.417   .     S
C65    H73     1.082   .     S
C65    N75     1.367   .     A
C65    C513    1.417   .     S
C66    H74     1.082   .     S
C66    N76     1.367   .     A
C66    C964    1.417   1_554 S
N75    Zn85    2.010   .     S
N76    Zn86    2.010   .     S
O77    Zn85    1.995   .     S
O78    Zn86    1.995   .     S
O79    Zn86    1.994   .     S
O80    Zn85    1.994   .     S
O81    Zn85    1.986   .     S
O82    Zn86    1.986   .     S
O83    Zn86    1.984   .     S
O84    Zn85    1.984   .     S
C87    H93     1.111   .     S
C87    H92     1.108   .     S
C87    C105    1.543   .     S
C87    C138    1.531   .     S
C88    H90     1.111   .     S
C88    H89     1.108   .     S
C88    H91     1.111   .     S
C94    H99     1.111   .     S
C94    H100    1.108   .     S
C95    H96     1.111   .     S
C95    H97     1.108   .     S
C95    H98     1.111   .     S
C95    C144    1.531   .     S
C101   O129    1.282   .     A
C101   C112    1.415   .     S
C101   O127    1.282   .     A
C102   O130    1.282   .     A
C102   C111    1.415   .     S
C102   O128    1.282   .     A
C103   O131    1.271   .     A
C103   O133    1.283   .     A
C103   C105    1.407   .     S
C104   O134    1.283   .     A
C104   O132    1.271   .     A
C104   C106    1.407   .     S
C106   C5      1.359   1_655 S
C106   C44     1.543   1_655 S
C107   C112    1.396   .     A
C107   H117    1.084   .     S
C107   C409    1.370   1_545 S
C108   C111    1.396   .     A
C108   H118    1.084   .     S
C108   C260    1.370   .     S
C109   C111    1.396   .     A
C109   H119    1.084   .     S
C109   C257    1.370   .     S
C110   C112    1.396   .     A
C110   H120    1.084   .     S
C110   C408    1.370   1_545 S
C113   H121    1.082   .     S
C113   N126    1.366   .     A
C113   C1015   1.417   1_554 S
C114   H122    1.082   .     S
C114   N125    1.366   .     A
C114   C566    1.417   .     S
C115   H123    1.082   .     S
C115   N125    1.367   .     A
C115   C563    1.417   .     S
C116   H124    1.082   .     S
C116   N126    1.367   .     A
C116   C1014   1.417   1_554 S
N125   Zn135   2.010   .     S
N126   Zn136   2.010   .     S
O127   Zn135   1.995   .     S
O128   Zn136   1.995   .     S
O129   Zn136   1.994   .     S
O130   Zn135   1.994   .     S
O131   Zn135   1.986   .     S
O132   Zn136   1.986   .     S
O133   Zn136   1.984   .     S
O134   Zn135   1.984   .     S
C137   H143    1.111   .     S
C137   H142    1.108   .     S
C137   C5      1.543   1_655 S
C137   C38     1.531   1_655 S
C138   H140    1.111   .     S
C138   H139    1.108   .     S
C138   H141    1.111   .     S
C144   H149    1.111   .     S
C144   H150    1.108   .     S
C145   H146    1.111   .     S
C145   H147    1.108   .     S
C145   H148    1.111   .     S
C145   C44     1.531   1_655 S
C151   O179    1.282   .     A
C151   C162    1.415   .     S
C151   O177    1.282   .     A
C152   O180    1.282   .     A
C152   C161    1.415   .     S
C152   O178    1.282   .     A
C153   O181    1.271   .     A
C153   O183    1.283   .     A
C153   C155    1.407   .     S
C154   O184    1.283   .     A
C154   O182    1.271   .     A
C154   C156    1.407   .     S
C155   C256    1.359   1_455 S
C155   C287    1.543   1_455 S
C156   C205    1.359   .     S
C156   C244    1.543   .     S
C157   C162    1.396   .     A
C157   H167    1.084   .     S
C158   C161    1.396   .     A
C158   H168    1.084   .     S
C158   C310    1.370   .     S
C159   C161    1.396   .     A
C159   H169    1.084   .     S
C159   C307    1.370   .     S
C160   C162    1.396   .     A
C160   H170    1.084   .     S
C163   H171    1.082   .     S
C163   N176    1.366   .     A
C163   C1065   1.417   1_554 S
C164   H172    1.082   .     S
C164   N175    1.366   .     A
C164   C616    1.417   .     S
C165   H173    1.082   .     S
C165   N175    1.367   .     A
C165   C613    1.417   .     S
C166   H174    1.082   .     S
C166   N176    1.367   .     A
C166   C1064   1.417   1_554 S
N175   Zn185   2.010   .     S
N176   Zn186   2.010   .     S
O177   Zn185   1.995   .     S
O178   Zn186   1.995   .     S
O179   Zn186   1.994   .     S
O180   Zn185   1.994   .     S
O181   Zn185   1.986   .     S
O182   Zn186   1.986   .     S
O183   Zn186   1.984   .     S
O184   Zn185   1.984   .     S
C187   H193    1.111   .     S
C187   H192    1.108   .     S
C187   C205    1.543   .     S
C187   C238    1.531   .     S
C188   H190    1.111   .     S
C188   H189    1.108   .     S
C188   H191    1.111   .     S
C188   C287    1.531   1_455 S
C194   H199    1.111   .     S
C194   H200    1.108   .     S
C194   C256    1.543   1_455 S
C194   C295    1.531   1_455 S
C195   H196    1.111   .     S
C195   H197    1.108   .     S
C195   H198    1.111   .     S
C195   C244    1.531   .     S
C201   O229    1.282   .     A
C201   C212    1.415   .     S
C201   O227    1.282   .     A
C202   O230    1.282   .     A
C202   C211    1.415   .     S
C202   O228    1.282   .     A
C203   O231    1.271   .     A
C203   O233    1.283   .     A
C203   C205    1.407   .     S
C204   O234    1.283   .     A
C204   O232    1.271   .     A
C204   C206    1.407   .     S
C206   C255    1.359   .     S
C206   C294    1.543   .     S
C207   C212    1.396   .     A
C207   H217    1.084   .     S
C208   C211    1.396   .     A
C208   H218    1.084   .     S
C208   C360    1.370   .     S
C209   C211    1.396   .     A
C209   H219    1.084   .     S
C209   C357    1.370   .     S
C210   C212    1.396   .     A
C210   H220    1.084   .     S
C213   H221    1.082   .     S
C213   N226    1.366   .     A
C213   C1115   1.417   1_554 S
C214   H222    1.082   .     S
C214   N225    1.366   .     A
C214   C666    1.417   .     S
C215   H223    1.082   .     S
C215   N225    1.367   .     A
C215   C663    1.417   .     S
C216   H224    1.082   .     S
C216   N226    1.367   .     A
C216   C1114   1.417   1_554 S
N225   Zn235   2.010   .     S
N226   Zn236   2.010   .     S
O227   Zn235   1.995   .     S
O228   Zn236   1.995   .     S
O229   Zn236   1.994   .     S
O230   Zn235   1.994   .     S
O231   Zn235   1.986   .     S
O232   Zn236   1.986   .     S
O233   Zn236   1.984   .     S
O234   Zn235   1.984   .     S
C237   H243    1.111   .     S
C237   H242    1.108   .     S
C237   C255    1.543   .     S
C237   C288    1.531   .     S
C238   H240    1.111   .     S
C238   H239    1.108   .     S
C238   H241    1.111   .     S
C244   H249    1.111   .     S
C244   H250    1.108   .     S
C245   H246    1.111   .     S
C245   H247    1.108   .     S
C245   H248    1.111   .     S
C245   C294    1.531   .     S
C251   O279    1.282   .     A
C251   C262    1.415   .     S
C251   O277    1.282   .     A
C252   O280    1.282   .     A
C252   C261    1.415   .     S
C252   O278    1.282   .     A
C253   O281    1.271   .     A
C253   O283    1.283   .     A
C253   C255    1.407   .     S
C254   O284    1.283   .     A
C254   O282    1.271   .     A
C254   C256    1.407   .     S
C256   C155    1.359   1_655 S
C256   C194    1.543   1_655 S
C257   C262    1.396   .     A
C257   H267    1.084   .     S
C258   C261    1.396   .     A
C258   H268    1.084   .     S
C258   C410    1.370   .     S
C259   C261    1.396   .     A
C259   H269    1.084   .     S
C259   C407    1.370   .     S
C260   C262    1.396   .     A
C260   H270    1.084   .     S
C263   H271    1.082   .     S
C263   N276    1.366   .     A
C263   C1165   1.417   1_554 S
C264   H272    1.082   .     S
C264   N275    1.366   .     A
C264   C716    1.417   .     S
C265   H273    1.082   .     S
C265   N275    1.367   .     A
C265   C713    1.417   .     S
C266   H274    1.082   .     S
C266   N276    1.367   .     A
C266   C1164   1.417   1_554 S
N275   Zn285   2.010   .     S
N276   Zn286   2.010   .     S
O277   Zn285   1.995   .     S
O278   Zn286   1.995   .     S
O279   Zn286   1.994   .     S
O280   Zn285   1.994   .     S
O281   Zn285   1.986   .     S
O282   Zn286   1.986   .     S
O283   Zn286   1.984   .     S
O284   Zn285   1.984   .     S
C287   H293    1.111   .     S
C287   H292    1.108   .     S
C287   C155    1.543   1_655 S
C287   C188    1.531   1_655 S
C288   H290    1.111   .     S
C288   H289    1.108   .     S
C288   H291    1.111   .     S
C294   H299    1.111   .     S
C294   H300    1.108   .     S
C295   H296    1.111   .     S
C295   H297    1.108   .     S
C295   H298    1.111   .     S
C295   C194    1.531   1_655 S
C301   O329    1.282   .     A
C301   C312    1.415   .     S
C301   O327    1.282   .     A
C302   O330    1.282   .     A
C302   C311    1.415   .     S
C302   O328    1.282   .     A
C303   O331    1.271   .     A
C303   O333    1.283   .     A
C303   C305    1.407   .     S
C304   O334    1.283   .     A
C304   O332    1.271   .     A
C304   C306    1.407   .     S
C305   C406    1.359   1_455 S
C305   C437    1.543   1_455 S
C306   C355    1.359   .     S
C306   C394    1.543   .     S
C307   C312    1.396   .     A
C307   H317    1.084   .     S
C308   C311    1.396   .     A
C308   H318    1.084   .     S
C308   C10     1.370   1_565 S
C309   C311    1.396   .     A
C309   H319    1.084   .     S
C309   C7      1.370   1_565 S
C310   C312    1.396   .     A
C310   H320    1.084   .     S
C313   H321    1.082   .     S
C313   N326    1.366   .     A
C313   C1215   1.417   1_554 S
C314   H322    1.082   .     S
C314   N325    1.366   .     A
C314   C766    1.417   .     S
C315   H323    1.082   .     S
C315   N325    1.367   .     A
C315   C763    1.417   .     S
C316   H324    1.082   .     S
C316   N326    1.367   .     A
C316   C1214   1.417   1_554 S
N325   Zn335   2.010   .     S
N326   Zn336   2.010   .     S
O327   Zn335   1.995   .     S
O328   Zn336   1.995   .     S
O329   Zn336   1.994   .     S
O330   Zn335   1.994   .     S
O331   Zn335   1.986   .     S
O332   Zn336   1.986   .     S
O333   Zn336   1.984   .     S
O334   Zn335   1.984   .     S
C337   H343    1.111   .     S
C337   H342    1.108   .     S
C337   C355    1.543   .     S
C337   C388    1.531   .     S
C338   H340    1.111   .     S
C338   H339    1.108   .     S
C338   H341    1.111   .     S
C338   C437    1.531   1_455 S
C344   H349    1.111   .     S
C344   H350    1.108   .     S
C344   C406    1.543   1_455 S
C344   C445    1.531   1_455 S
C345   H346    1.111   .     S
C345   H347    1.108   .     S
C345   H348    1.111   .     S
C345   C394    1.531   .     S
C351   O379    1.282   .     A
C351   C362    1.415   .     S
C351   O377    1.282   .     A
C352   O380    1.282   .     A
C352   C361    1.415   .     S
C352   O378    1.282   .     A
C353   O381    1.271   .     A
C353   O383    1.283   .     A
C353   C355    1.407   .     S
C354   O384    1.283   .     A
C354   O382    1.271   .     A
C354   C356    1.407   .     S
C356   C405    1.359   .     S
C356   C444    1.543   .     S
C357   C362    1.396   .     A
C357   H367    1.084   .     S
C358   C361    1.396   .     A
C358   H368    1.084   .     S
C358   C60     1.370   1_565 S
C359   C361    1.396   .     A
C359   H369    1.084   .     S
C359   C57     1.370   1_565 S
C360   C362    1.396   .     A
C360   H370    1.084   .     S
C363   H371    1.082   .     S
C363   N376    1.366   .     A
C363   C1265   1.417   1_554 S
C364   H372    1.082   .     S
C364   N375    1.366   .     A
C364   C816    1.417   .     S
C365   H373    1.082   .     S
C365   N375    1.367   .     A
C365   C813    1.417   .     S
C366   H374    1.082   .     S
C366   N376    1.367   .     A
C366   C1264   1.417   1_554 S
N375   Zn385   2.010   .     S
N376   Zn386   2.010   .     S
O377   Zn385   1.995   .     S
O378   Zn386   1.995   .     S
O379   Zn386   1.994   .     S
O380   Zn385   1.994   .     S
O381   Zn385   1.986   .     S
O382   Zn386   1.986   .     S
O383   Zn386   1.984   .     S
O384   Zn385   1.984   .     S
C387   H393    1.111   .     S
C387   H392    1.108   .     S
C387   C405    1.543   .     S
C387   C438    1.531   .     S
C388   H390    1.111   .     S
C388   H389    1.108   .     S
C388   H391    1.111   .     S
C394   H399    1.111   .     S
C394   H400    1.108   .     S
C395   H396    1.111   .     S
C395   H397    1.108   .     S
C395   H398    1.111   .     S
C395   C444    1.531   .     S
C401   O429    1.282   .     A
C401   C412    1.415   .     S
C401   O427    1.282   .     A
C402   O430    1.282   .     A
C402   C411    1.415   .     S
C402   O428    1.282   .     A
C403   O431    1.271   .     A
C403   O433    1.283   .     A
C403   C405    1.407   .     S
C404   O434    1.283   .     A
C404   O432    1.271   .     A
C404   C406    1.407   .     S
C406   C305    1.359   1_655 S
C406   C344    1.543   1_655 S
C407   C412    1.396   .     A
C407   H417    1.084   .     S
C408   C411    1.396   .     A
C408   H418    1.084   .     S
C408   C110    1.370   1_565 S
C409   C411    1.396   .     A
C409   H419    1.084   .     S
C409   C107    1.370   1_565 S
C410   C412    1.396   .     A
C410   H420    1.084   .     S
C413   H421    1.082   .     S
C413   N426    1.366   .     A
C413   C1315   1.417   1_554 S
C414   H422    1.082   .     S
C414   N425    1.366   .     A
C414   C866    1.417   .     S
C415   H423    1.082   .     S
C415   N425    1.367   .     A
C415   C863    1.417   .     S
C416   H424    1.082   .     S
C416   N426    1.367   .     A
C416   C1314   1.417   1_554 S
N425   Zn435   2.010   .     S
N426   Zn436   2.010   .     S
O427   Zn435   1.995   .     S
O428   Zn436   1.995   .     S
O429   Zn436   1.994   .     S
O430   Zn435   1.994   .     S
O431   Zn435   1.986   .     S
O432   Zn436   1.986   .     S
O433   Zn436   1.984   .     S
O434   Zn435   1.984   .     S
C437   H443    1.111   .     S
C437   H442    1.108   .     S
C437   C305    1.543   1_655 S
C437   C338    1.531   1_655 S
C438   H440    1.111   .     S
C438   H439    1.108   .     S
C438   H441    1.111   .     S
C444   H449    1.111   .     S
C444   H450    1.108   .     S
C445   H446    1.111   .     S
C445   H447    1.108   .     S
C445   H448    1.111   .     S
C445   C344    1.531   1_655 S
C451   O479    1.282   .     A
C451   C462    1.415   .     S
C451   O477    1.282   .     A
C452   O480    1.282   .     A
C452   C461    1.415   .     S
C452   O478    1.282   .     A
C453   O481    1.271   .     A
C453   O483    1.283   .     A
C453   C455    1.407   .     S
C454   O484    1.283   .     A
C454   O482    1.271   .     A
C454   C456    1.407   .     S
C455   C556    1.359   1_455 S
C455   C587    1.543   1_455 S
C456   C505    1.359   .     S
C456   C544    1.543   .     S
C457   C462    1.396   .     A
C457   H467    1.084   .     S
C457   C759    1.370   1_545 S
C458   C461    1.396   .     A
C458   H468    1.084   .     S
C458   C610    1.370   .     S
C459   C461    1.396   .     A
C459   H469    1.084   .     S
C459   C607    1.370   .     S
C460   C462    1.396   .     A
C460   H470    1.084   .     S
C460   C758    1.370   1_545 S
C463   H471    1.082   .     S
C463   N476    1.366   .     A
C464   H472    1.082   .     S
C464   N475    1.366   .     A
C464   C916    1.417   .     S
C465   H473    1.082   .     S
C465   N475    1.367   .     A
C465   C913    1.417   .     S
C466   H474    1.082   .     S
C466   N476    1.367   .     A
N475   Zn485   2.010   .     S
N476   Zn486   2.010   .     S
O477   Zn485   1.995   .     S
O478   Zn486   1.995   .     S
O479   Zn486   1.994   .     S
O480   Zn485   1.994   .     S
O481   Zn485   1.986   .     S
O482   Zn486   1.986   .     S
O483   Zn486   1.984   .     S
O484   Zn485   1.984   .     S
C487   H493    1.111   .     S
C487   H492    1.108   .     S
C487   C505    1.543   .     S
C487   C538    1.531   .     S
C488   H490    1.111   .     S
C488   H489    1.108   .     S
C488   H491    1.111   .     S
C488   C587    1.531   1_455 S
C494   H499    1.111   .     S
C494   H500    1.108   .     S
C494   C556    1.543   1_455 S
C494   C595    1.531   1_455 S
C495   H496    1.111   .     S
C495   H497    1.108   .     S
C495   H498    1.111   .     S
C495   C544    1.531   .     S
C501   O529    1.282   .     A
C501   C512    1.415   .     S
C501   O527    1.282   .     A
C502   O530    1.282   .     A
C502   C511    1.415   .     S
C502   O528    1.282   .     A
C503   O531    1.271   .     A
C503   O533    1.283   .     A
C503   C505    1.407   .     S
C504   O534    1.283   .     A
C504   O532    1.271   .     A
C504   C506    1.407   .     S
C506   C555    1.359   .     S
C506   C594    1.543   .     S
C507   C512    1.396   .     A
C507   H517    1.084   .     S
C507   C809    1.370   1_545 S
C508   C511    1.396   .     A
C508   H518    1.084   .     S
C508   C660    1.370   .     S
C509   C511    1.396   .     A
C509   H519    1.084   .     S
C509   C657    1.370   .     S
C510   C512    1.396   .     A
C510   H520    1.084   .     S
C510   C808    1.370   1_545 S
C513   H521    1.082   .     S
C513   N526    1.366   .     A
C514   H522    1.082   .     S
C514   N525    1.366   .     A
C514   C966    1.417   .     S
C515   H523    1.082   .     S
C515   N525    1.367   .     A
C515   C963    1.417   .     S
C516   H524    1.082   .     S
C516   N526    1.367   .     A
N525   Zn535   2.010   .     S
N526   Zn536   2.010   .     S
O527   Zn535   1.995   .     S
O528   Zn536   1.995   .     S
O529   Zn536   1.994   .     S
O530   Zn535   1.994   .     S
O531   Zn535   1.986   .     S
O532   Zn536   1.986   .     S
O533   Zn536   1.984   .     S
O534   Zn535   1.984   .     S
C537   H543    1.111   .     S
C537   H542    1.108   .     S
C537   C555    1.543   .     S
C537   C588    1.531   .     S
C538   H540    1.111   .     S
C538   H539    1.108   .     S
C538   H541    1.111   .     S
C544   H549    1.111   .     S
C544   H550    1.108   .     S
C545   H546    1.111   .     S
C545   H547    1.108   .     S
C545   H548    1.111   .     S
C545   C594    1.531   .     S
C551   O579    1.282   .     A
C551   C562    1.415   .     S
C551   O577    1.282   .     A
C552   O580    1.282   .     A
C552   C561    1.415   .     S
C552   O578    1.282   .     A
C553   O581    1.271   .     A
C553   O583    1.283   .     A
C553   C555    1.407   .     S
C554   O584    1.283   .     A
C554   O582    1.271   .     A
C554   C556    1.407   .     S
C556   C455    1.359   1_655 S
C556   C494    1.543   1_655 S
C557   C562    1.396   .     A
C557   H567    1.084   .     S
C557   C859    1.370   1_545 S
C558   C561    1.396   .     A
C558   H568    1.084   .     S
C558   C710    1.370   .     S
C559   C561    1.396   .     A
C559   H569    1.084   .     S
C559   C707    1.370   .     S
C560   C562    1.396   .     A
C560   H570    1.084   .     S
C560   C858    1.370   1_545 S
C563   H571    1.082   .     S
C563   N576    1.366   .     A
C564   H572    1.082   .     S
C564   N575    1.366   .     A
C564   C1016   1.417   .     S
C565   H573    1.082   .     S
C565   N575    1.367   .     A
C565   C1013   1.417   .     S
C566   H574    1.082   .     S
C566   N576    1.367   .     A
N575   Zn585   2.010   .     S
N576   Zn586   2.010   .     S
O577   Zn585   1.995   .     S
O578   Zn586   1.995   .     S
O579   Zn586   1.994   .     S
O580   Zn585   1.994   .     S
O581   Zn585   1.986   .     S
O582   Zn586   1.986   .     S
O583   Zn586   1.984   .     S
O584   Zn585   1.984   .     S
C587   H593    1.111   .     S
C587   H592    1.108   .     S
C587   C455    1.543   1_655 S
C587   C488    1.531   1_655 S
C588   H590    1.111   .     S
C588   H589    1.108   .     S
C588   H591    1.111   .     S
C594   H599    1.111   .     S
C594   H600    1.108   .     S
C595   H596    1.111   .     S
C595   H597    1.108   .     S
C595   H598    1.111   .     S
C595   C494    1.531   1_655 S
C601   O629    1.282   .     A
C601   C612    1.415   .     S
C601   O627    1.282   .     A
C602   O630    1.282   .     A
C602   C611    1.415   .     S
C602   O628    1.282   .     A
C603   O631    1.271   .     A
C603   O633    1.283   .     A
C603   C605    1.407   .     S
C604   O634    1.283   .     A
C604   O632    1.271   .     A
C604   C606    1.407   .     S
C605   C706    1.359   1_455 S
C605   C737    1.543   1_455 S
C606   C655    1.359   .     S
C606   C694    1.543   .     S
C607   C612    1.396   .     A
C607   H617    1.084   .     S
C608   C611    1.396   .     A
C608   H618    1.084   .     S
C608   C760    1.370   .     S
C609   C611    1.396   .     A
C609   H619    1.084   .     S
C609   C757    1.370   .     S
C610   C612    1.396   .     A
C610   H620    1.084   .     S
C613   H621    1.082   .     S
C613   N626    1.366   .     A
C614   H622    1.082   .     S
C614   N625    1.366   .     A
C614   C1066   1.417   .     S
C615   H623    1.082   .     S
C615   N625    1.367   .     A
C615   C1063   1.417   .     S
C616   H624    1.082   .     S
C616   N626    1.367   .     A
N625   Zn635   2.010   .     S
N626   Zn636   2.010   .     S
O627   Zn635   1.995   .     S
O628   Zn636   1.995   .     S
O629   Zn636   1.994   .     S
O630   Zn635   1.994   .     S
O631   Zn635   1.986   .     S
O632   Zn636   1.986   .     S
O633   Zn636   1.984   .     S
O634   Zn635   1.984   .     S
C637   H643    1.111   .     S
C637   H642    1.108   .     S
C637   C655    1.543   .     S
C637   C688    1.531   .     S
C638   H640    1.111   .     S
C638   H639    1.108   .     S
C638   H641    1.111   .     S
C638   C737    1.531   1_455 S
C644   H649    1.111   .     S
C644   H650    1.108   .     S
C644   C706    1.543   1_455 S
C644   C745    1.531   1_455 S
C645   H646    1.111   .     S
C645   H647    1.108   .     S
C645   H648    1.111   .     S
C645   C694    1.531   .     S
C651   O679    1.282   .     A
C651   C662    1.415   .     S
C651   O677    1.282   .     A
C652   O680    1.282   .     A
C652   C661    1.415   .     S
C652   O678    1.282   .     A
C653   O681    1.271   .     A
C653   O683    1.283   .     A
C653   C655    1.407   .     S
C654   O684    1.283   .     A
C654   O682    1.271   .     A
C654   C656    1.407   .     S
C656   C705    1.359   .     S
C656   C744    1.543   .     S
C657   C662    1.396   .     A
C657   H667    1.084   .     S
C658   C661    1.396   .     A
C658   H668    1.084   .     S
C658   C810    1.370   .     S
C659   C661    1.396   .     A
C659   H669    1.084   .     S
C659   C807    1.370   .     S
C660   C662    1.396   .     A
C660   H670    1.084   .     S
C663   H671    1.082   .     S
C663   N676    1.366   .     A
C664   H672    1.082   .     S
C664   N675    1.366   .     A
C664   C1116   1.417   .     S
C665   H673    1.082   .     S
C665   N675    1.367   .     A
C665   C1113   1.417   .     S
C666   H674    1.082   .     S
C666   N676    1.367   .     A
N675   Zn685   2.010   .     S
N676   Zn686   2.010   .     S
O677   Zn685   1.995   .     S
O678   Zn686   1.995   .     S
O679   Zn686   1.994   .     S
O680   Zn685   1.994   .     S
O681   Zn685   1.986   .     S
O682   Zn686   1.986   .     S
O683   Zn686   1.984   .     S
O684   Zn685   1.984   .     S
C687   H693    1.111   .     S
C687   H692    1.108   .     S
C687   C705    1.543   .     S
C687   C738    1.531   .     S
C688   H690    1.111   .     S
C688   H689    1.108   .     S
C688   H691    1.111   .     S
C694   H699    1.111   .     S
C694   H700    1.108   .     S
C695   H696    1.111   .     S
C695   H697    1.108   .     S
C695   H698    1.111   .     S
C695   C744    1.531   .     S
C701   O729    1.282   .     A
C701   C712    1.415   .     S
C701   O727    1.282   .     A
C702   O730    1.282   .     A
C702   C711    1.415   .     S
C702   O728    1.282   .     A
C703   O731    1.271   .     A
C703   O733    1.283   .     A
C703   C705    1.407   .     S
C704   O734    1.283   .     A
C704   O732    1.271   .     A
C704   C706    1.407   .     S
C706   C605    1.359   1_655 S
C706   C644    1.543   1_655 S
C707   C712    1.396   .     A
C707   H717    1.084   .     S
C708   C711    1.396   .     A
C708   H718    1.084   .     S
C708   C860    1.370   .     S
C709   C711    1.396   .     A
C709   H719    1.084   .     S
C709   C857    1.370   .     S
C710   C712    1.396   .     A
C710   H720    1.084   .     S
C713   H721    1.082   .     S
C713   N726    1.366   .     A
C714   H722    1.082   .     S
C714   N725    1.366   .     A
C714   C1166   1.417   .     S
C715   H723    1.082   .     S
C715   N725    1.367   .     A
C715   C1163   1.417   .     S
C716   H724    1.082   .     S
C716   N726    1.367   .     A
N725   Zn735   2.010   .     S
N726   Zn736   2.010   .     S
O727   Zn735   1.995   .     S
O728   Zn736   1.995   .     S
O729   Zn736   1.994   .     S
O730   Zn735   1.994   .     S
O731   Zn735   1.986   .     S
O732   Zn736   1.986   .     S
O733   Zn736   1.984   .     S
O734   Zn735   1.984   .     S
C737   H743    1.111   .     S
C737   H742    1.108   .     S
C737   C605    1.543   1_655 S
C737   C638    1.531   1_655 S
C738   H740    1.111   .     S
C738   H739    1.108   .     S
C738   H741    1.111   .     S
C744   H749    1.111   .     S
C744   H750    1.108   .     S
C745   H746    1.111   .     S
C745   H747    1.108   .     S
C745   H748    1.111   .     S
C745   C644    1.531   1_655 S
C751   O779    1.282   .     A
C751   C762    1.415   .     S
C751   O777    1.282   .     A
C752   O780    1.282   .     A
C752   C761    1.415   .     S
C752   O778    1.282   .     A
C753   O781    1.271   .     A
C753   O783    1.283   .     A
C753   C755    1.407   .     S
C754   O784    1.283   .     A
C754   O782    1.271   .     A
C754   C756    1.407   .     S
C755   C856    1.359   1_455 S
C755   C887    1.543   1_455 S
C756   C805    1.359   .     S
C756   C844    1.543   .     S
C757   C762    1.396   .     A
C757   H767    1.084   .     S
C758   C761    1.396   .     A
C758   H768    1.084   .     S
C758   C460    1.370   1_565 S
C759   C761    1.396   .     A
C759   H769    1.084   .     S
C759   C457    1.370   1_565 S
C760   C762    1.396   .     A
C760   H770    1.084   .     S
C763   H771    1.082   .     S
C763   N776    1.366   .     A
C764   H772    1.082   .     S
C764   N775    1.366   .     A
C764   C1216   1.417   .     S
C765   H773    1.082   .     S
C765   N775    1.367   .     A
C765   C1213   1.417   .     S
C766   H774    1.082   .     S
C766   N776    1.367   .     A
N775   Zn785   2.010   .     S
N776   Zn786   2.010   .     S
O777   Zn785   1.995   .     S
O778   Zn786   1.995   .     S
O779   Zn786   1.994   .     S
O780   Zn785   1.994   .     S
O781   Zn785   1.986   .     S
O782   Zn786   1.986   .     S
O783   Zn786   1.984   .     S
O784   Zn785   1.984   .     S
C787   H793    1.111   .     S
C787   H792    1.108   .     S
C787   C805    1.543   .     S
C787   C838    1.531   .     S
C788   H790    1.111   .     S
C788   H789    1.108   .     S
C788   H791    1.111   .     S
C788   C887    1.531   1_455 S
C794   H799    1.111   .     S
C794   H800    1.108   .     S
C794   C856    1.543   1_455 S
C794   C895    1.531   1_455 S
C795   H796    1.111   .     S
C795   H797    1.108   .     S
C795   H798    1.111   .     S
C795   C844    1.531   .     S
C801   O829    1.282   .     A
C801   C812    1.415   .     S
C801   O827    1.282   .     A
C802   O830    1.282   .     A
C802   C811    1.415   .     S
C802   O828    1.282   .     A
C803   O831    1.271   .     A
C803   O833    1.283   .     A
C803   C805    1.407   .     S
C804   O834    1.283   .     A
C804   O832    1.271   .     A
C804   C806    1.407   .     S
C806   C855    1.359   .     S
C806   C894    1.543   .     S
C807   C812    1.396   .     A
C807   H817    1.084   .     S
C808   C811    1.396   .     A
C808   H818    1.084   .     S
C808   C510    1.370   1_565 S
C809   C811    1.396   .     A
C809   H819    1.084   .     S
C809   C507    1.370   1_565 S
C810   C812    1.396   .     A
C810   H820    1.084   .     S
C813   H821    1.082   .     S
C813   N826    1.366   .     A
C814   H822    1.082   .     S
C814   N825    1.366   .     A
C814   C1266   1.417   .     S
C815   H823    1.082   .     S
C815   N825    1.367   .     A
C815   C1263   1.417   .     S
C816   H824    1.082   .     S
C816   N826    1.367   .     A
N825   Zn835   2.010   .     S
N826   Zn836   2.010   .     S
O827   Zn835   1.995   .     S
O828   Zn836   1.995   .     S
O829   Zn836   1.994   .     S
O830   Zn835   1.994   .     S
O831   Zn835   1.986   .     S
O832   Zn836   1.986   .     S
O833   Zn836   1.984   .     S
O834   Zn835   1.984   .     S
C837   H843    1.111   .     S
C837   H842    1.108   .     S
C837   C855    1.543   .     S
C837   C888    1.531   .     S
C838   H840    1.111   .     S
C838   H839    1.108   .     S
C838   H841    1.111   .     S
C844   H849    1.111   .     S
C844   H850    1.108   .     S
C845   H846    1.111   .     S
C845   H847    1.108   .     S
C845   H848    1.111   .     S
C845   C894    1.531   .     S
C851   O879    1.282   .     A
C851   C862    1.415   .     S
C851   O877    1.282   .     A
C852   O880    1.282   .     A
C852   C861    1.415   .     S
C852   O878    1.282   .     A
C853   O881    1.271   .     A
C853   O883    1.283   .     A
C853   C855    1.407   .     S
C854   O884    1.283   .     A
C854   O882    1.271   .     A
C854   C856    1.407   .     S
C856   C755    1.359   1_655 S
C856   C794    1.543   1_655 S
C857   C862    1.396   .     A
C857   H867    1.084   .     S
C858   C861    1.396   .     A
C858   H868    1.084   .     S
C858   C560    1.370   1_565 S
C859   C861    1.396   .     A
C859   H869    1.084   .     S
C859   C557    1.370   1_565 S
C860   C862    1.396   .     A
C860   H870    1.084   .     S
C863   H871    1.082   .     S
C863   N876    1.366   .     A
C864   H872    1.082   .     S
C864   N875    1.366   .     A
C864   C1316   1.417   .     S
C865   H873    1.082   .     S
C865   N875    1.367   .     A
C865   C1313   1.417   .     S
C866   H874    1.082   .     S
C866   N876    1.367   .     A
N875   Zn885   2.010   .     S
N876   Zn886   2.010   .     S
O877   Zn885   1.995   .     S
O878   Zn886   1.995   .     S
O879   Zn886   1.994   .     S
O880   Zn885   1.994   .     S
O881   Zn885   1.986   .     S
O882   Zn886   1.986   .     S
O883   Zn886   1.984   .     S
O884   Zn885   1.984   .     S
C887   H893    1.111   .     S
C887   H892    1.108   .     S
C887   C755    1.543   1_655 S
C887   C788    1.531   1_655 S
C888   H890    1.111   .     S
C888   H889    1.108   .     S
C888   H891    1.111   .     S
C894   H899    1.111   .     S
C894   H900    1.108   .     S
C895   H896    1.111   .     S
C895   H897    1.108   .     S
C895   H898    1.111   .     S
C895   C794    1.531   1_655 S
C901   O929    1.282   .     A
C901   C912    1.415   .     S
C901   O927    1.282   .     A
C902   O930    1.282   .     A
C902   C911    1.415   .     S
C902   O928    1.282   .     A
C903   O931    1.271   .     A
C903   O933    1.283   .     A
C903   C905    1.407   .     S
C904   O934    1.283   .     A
C904   O932    1.271   .     A
C904   C906    1.407   .     S
C905   C1006   1.359   1_455 S
C905   C1037   1.543   1_455 S
C906   C955    1.359   .     S
C906   C994    1.543   .     S
C907   C912    1.396   .     A
C907   H917    1.084   .     S
C907   C1209   1.370   1_545 S
C908   C911    1.396   .     A
C908   H918    1.084   .     S
C908   C1060   1.370   .     S
C909   C911    1.396   .     A
C909   H919    1.084   .     S
C909   C1057   1.370   .     S
C910   C912    1.396   .     A
C910   H920    1.084   .     S
C910   C1208   1.370   1_545 S
C913   H921    1.082   .     S
C913   N926    1.366   .     A
C914   H922    1.082   .     S
C914   N925    1.366   .     A
C914   C16     1.417   1_556 S
C915   H923    1.082   .     S
C915   N925    1.367   .     A
C915   C13     1.417   1_556 S
C916   H924    1.082   .     S
C916   N926    1.367   .     A
N925   Zn935   2.010   .     S
N926   Zn936   2.010   .     S
O927   Zn935   1.995   .     S
O928   Zn936   1.995   .     S
O929   Zn936   1.994   .     S
O930   Zn935   1.994   .     S
O931   Zn935   1.986   .     S
O932   Zn936   1.986   .     S
O933   Zn936   1.984   .     S
O934   Zn935   1.984   .     S
C937   H943    1.111   .     S
C937   H942    1.108   .     S
C937   C955    1.543   .     S
C937   C988    1.531   .     S
C938   H940    1.111   .     S
C938   H939    1.108   .     S
C938   H941    1.111   .     S
C938   C1037   1.531   1_455 S
C944   H949    1.111   .     S
C944   H950    1.108   .     S
C944   C1006   1.543   1_455 S
C944   C1045   1.531   1_455 S
C945   H946    1.111   .     S
C945   H947    1.108   .     S
C945   H948    1.111   .     S
C945   C994    1.531   .     S
C951   O979    1.282   .     A
C951   C962    1.415   .     S
C951   O977    1.282   .     A
C952   O980    1.282   .     A
C952   C961    1.415   .     S
C952   O978    1.282   .     A
C953   O981    1.271   .     A
C953   O983    1.283   .     A
C953   C955    1.407   .     S
C954   O984    1.283   .     A
C954   O982    1.271   .     A
C954   C956    1.407   .     S
C956   C1005   1.359   .     S
C956   C1044   1.543   .     S
C957   C962    1.396   .     A
C957   H967    1.084   .     S
C957   C1259   1.370   1_545 S
C958   C961    1.396   .     A
C958   H968    1.084   .     S
C958   C1110   1.370   .     S
C959   C961    1.396   .     A
C959   H969    1.084   .     S
C959   C1107   1.370   .     S
C960   C962    1.396   .     A
C960   H970    1.084   .     S
C960   C1258   1.370   1_545 S
C963   H971    1.082   .     S
C963   N976    1.366   .     A
C964   H972    1.082   .     S
C964   N975    1.366   .     A
C964   C66     1.417   1_556 S
C965   H973    1.082   .     S
C965   N975    1.367   .     A
C965   C63     1.417   1_556 S
C966   H974    1.082   .     S
C966   N976    1.367   .     A
N975   Zn985   2.010   .     S
N976   Zn986   2.010   .     S
O977   Zn985   1.995   .     S
O978   Zn986   1.995   .     S
O979   Zn986   1.994   .     S
O980   Zn985   1.994   .     S
O981   Zn985   1.986   .     S
O982   Zn986   1.986   .     S
O983   Zn986   1.984   .     S
O984   Zn985   1.984   .     S
C987   H993    1.111   .     S
C987   H992    1.108   .     S
C987   C1005   1.543   .     S
C987   C1038   1.531   .     S
C988   H990    1.111   .     S
C988   H989    1.108   .     S
C988   H991    1.111   .     S
C994   H999    1.111   .     S
C994   H1000   1.108   .     S
C995   H996    1.111   .     S
C995   H997    1.108   .     S
C995   H998    1.111   .     S
C995   C1044   1.531   .     S
C1001  O1029   1.282   .     A
C1001  C1012   1.415   .     S
C1001  O1027   1.282   .     A
C1002  O1030   1.282   .     A
C1002  C1011   1.415   .     S
C1002  O1028   1.282   .     A
C1003  O1031   1.271   .     A
C1003  O1033   1.283   .     A
C1003  C1005   1.407   .     S
C1004  O1034   1.283   .     A
C1004  O1032   1.271   .     A
C1004  C1006   1.407   .     S
C1006  C905    1.359   1_655 S
C1006  C944    1.543   1_655 S
C1007  C1012   1.396   .     A
C1007  H1017   1.084   .     S
C1007  C1309   1.370   1_545 S
C1008  C1011   1.396   .     A
C1008  H1018   1.084   .     S
C1008  C1160   1.370   .     S
C1009  C1011   1.396   .     A
C1009  H1019   1.084   .     S
C1009  C1157   1.370   .     S
C1010  C1012   1.396   .     A
C1010  H1020   1.084   .     S
C1010  C1308   1.370   1_545 S
C1013  H1021   1.082   .     S
C1013  N1026   1.366   .     A
C1014  H1022   1.082   .     S
C1014  N1025   1.366   .     A
C1014  C116    1.417   1_556 S
C1015  H1023   1.082   .     S
C1015  N1025   1.367   .     A
C1015  C113    1.417   1_556 S
C1016  H1024   1.082   .     S
C1016  N1026   1.367   .     A
N1025  Zn1035  2.010   .     S
N1026  Zn1036  2.010   .     S
O1027  Zn1035  1.995   .     S
O1028  Zn1036  1.995   .     S
O1029  Zn1036  1.994   .     S
O1030  Zn1035  1.994   .     S
O1031  Zn1035  1.986   .     S
O1032  Zn1036  1.986   .     S
O1033  Zn1036  1.984   .     S
O1034  Zn1035  1.984   .     S
C1037  H1043   1.111   .     S
C1037  H1042   1.108   .     S
C1037  C905    1.543   1_655 S
C1037  C938    1.531   1_655 S
C1038  H1040   1.111   .     S
C1038  H1039   1.108   .     S
C1038  H1041   1.111   .     S
C1044  H1049   1.111   .     S
C1044  H1050   1.108   .     S
C1045  H1046   1.111   .     S
C1045  H1047   1.108   .     S
C1045  H1048   1.111   .     S
C1045  C944    1.531   1_655 S
C1051  O1079   1.282   .     A
C1051  C1062   1.415   .     S
C1051  O1077   1.282   .     A
C1052  O1080   1.282   .     A
C1052  C1061   1.415   .     S
C1052  O1078   1.282   .     A
C1053  O1081   1.271   .     A
C1053  O1083   1.283   .     A
C1053  C1055   1.407   .     S
C1054  O1084   1.283   .     A
C1054  O1082   1.271   .     A
C1054  C1056   1.407   .     S
C1055  C1156   1.359   1_455 S
C1055  C1187   1.543   1_455 S
C1056  C1105   1.359   .     S
C1056  C1144   1.543   .     S
C1057  C1062   1.396   .     A
C1057  H1067   1.084   .     S
C1058  C1061   1.396   .     A
C1058  H1068   1.084   .     S
C1058  C1210   1.370   .     S
C1059  C1061   1.396   .     A
C1059  H1069   1.084   .     S
C1059  C1207   1.370   .     S
C1060  C1062   1.396   .     A
C1060  H1070   1.084   .     S
C1063  H1071   1.082   .     S
C1063  N1076   1.366   .     A
C1064  H1072   1.082   .     S
C1064  N1075   1.366   .     A
C1064  C166    1.417   1_556 S
C1065  H1073   1.082   .     S
C1065  N1075   1.367   .     A
C1065  C163    1.417   1_556 S
C1066  H1074   1.082   .     S
C1066  N1076   1.367   .     A
N1075  Zn1085  2.010   .     S
N1076  Zn1086  2.010   .     S
O1077  Zn1085  1.995   .     S
O1078  Zn1086  1.995   .     S
O1079  Zn1086  1.994   .     S
O1080  Zn1085  1.994   .     S
O1081  Zn1085  1.986   .     S
O1082  Zn1086  1.986   .     S
O1083  Zn1086  1.984   .     S
O1084  Zn1085  1.984   .     S
C1087  H1093   1.111   .     S
C1087  H1092   1.108   .     S
C1087  C1105   1.543   .     S
C1087  C1138   1.531   .     S
C1088  H1090   1.111   .     S
C1088  H1089   1.108   .     S
C1088  H1091   1.111   .     S
C1088  C1187   1.531   1_455 S
C1094  H1099   1.111   .     S
C1094  H1100   1.108   .     S
C1094  C1156   1.543   1_455 S
C1094  C1195   1.531   1_455 S
C1095  H1096   1.111   .     S
C1095  H1097   1.108   .     S
C1095  H1098   1.111   .     S
C1095  C1144   1.531   .     S
C1101  O1129   1.282   .     A
C1101  C1112   1.415   .     S
C1101  O1127   1.282   .     A
C1102  O1130   1.282   .     A
C1102  C1111   1.415   .     S
C1102  O1128   1.282   .     A
C1103  O1131   1.271   .     A
C1103  O1133   1.283   .     A
C1103  C1105   1.407   .     S
C1104  O1134   1.283   .     A
C1104  O1132   1.271   .     A
C1104  C1106   1.407   .     S
C1106  C1155   1.359   .     S
C1106  C1194   1.543   .     S
C1107  C1112   1.396   .     A
C1107  H1117   1.084   .     S
C1108  C1111   1.396   .     A
C1108  H1118   1.084   .     S
C1108  C1260   1.370   .     S
C1109  C1111   1.396   .     A
C1109  H1119   1.084   .     S
C1109  C1257   1.370   .     S
C1110  C1112   1.396   .     A
C1110  H1120   1.084   .     S
C1113  H1121   1.082   .     S
C1113  N1126   1.366   .     A
C1114  H1122   1.082   .     S
C1114  N1125   1.366   .     A
C1114  C216    1.417   1_556 S
C1115  H1123   1.082   .     S
C1115  N1125   1.367   .     A
C1115  C213    1.417   1_556 S
C1116  H1124   1.082   .     S
C1116  N1126   1.367   .     A
N1125  Zn1135  2.010   .     S
N1126  Zn1136  2.010   .     S
O1127  Zn1135  1.995   .     S
O1128  Zn1136  1.995   .     S
O1129  Zn1136  1.994   .     S
O1130  Zn1135  1.994   .     S
O1131  Zn1135  1.986   .     S
O1132  Zn1136  1.986   .     S
O1133  Zn1136  1.984   .     S
O1134  Zn1135  1.984   .     S
C1137  H1143   1.111   .     S
C1137  H1142   1.108   .     S
C1137  C1155   1.543   .     S
C1137  C1188   1.531   .     S
C1138  H1140   1.111   .     S
C1138  H1139   1.108   .     S
C1138  H1141   1.111   .     S
C1144  H1149   1.111   .     S
C1144  H1150   1.108   .     S
C1145  H1146   1.111   .     S
C1145  H1147   1.108   .     S
C1145  H1148   1.111   .     S
C1145  C1194   1.531   .     S
C1151  O1179   1.282   .     A
C1151  C1162   1.415   .     S
C1151  O1177   1.282   .     A
C1152  O1180   1.282   .     A
C1152  C1161   1.415   .     S
C1152  O1178   1.282   .     A
C1153  O1181   1.271   .     A
C1153  O1183   1.283   .     A
C1153  C1155   1.407   .     S
C1154  O1184   1.283   .     A
C1154  O1182   1.271   .     A
C1154  C1156   1.407   .     S
C1156  C1055   1.359   1_655 S
C1156  C1094   1.543   1_655 S
C1157  C1162   1.396   .     A
C1157  H1167   1.084   .     S
C1158  C1161   1.396   .     A
C1158  H1168   1.084   .     S
C1158  C1310   1.370   .     S
C1159  C1161   1.396   .     A
C1159  H1169   1.084   .     S
C1159  C1307   1.370   .     S
C1160  C1162   1.396   .     A
C1160  H1170   1.084   .     S
C1163  H1171   1.082   .     S
C1163  N1176   1.366   .     A
C1164  H1172   1.082   .     S
C1164  N1175   1.366   .     A
C1164  C266    1.417   1_556 S
C1165  H1173   1.082   .     S
C1165  N1175   1.367   .     A
C1165  C263    1.417   1_556 S
C1166  H1174   1.082   .     S
C1166  N1176   1.367   .     A
N1175  Zn1185  2.010   .     S
N1176  Zn1186  2.010   .     S
O1177  Zn1185  1.995   .     S
O1178  Zn1186  1.995   .     S
O1179  Zn1186  1.994   .     S
O1180  Zn1185  1.994   .     S
O1181  Zn1185  1.986   .     S
O1182  Zn1186  1.986   .     S
O1183  Zn1186  1.984   .     S
O1184  Zn1185  1.984   .     S
C1187  H1193   1.111   .     S
C1187  H1192   1.108   .     S
C1187  C1055   1.543   1_655 S
C1187  C1088   1.531   1_655 S
C1188  H1190   1.111   .     S
C1188  H1189   1.108   .     S
C1188  H1191   1.111   .     S
C1194  H1199   1.111   .     S
C1194  H1200   1.108   .     S
C1195  H1196   1.111   .     S
C1195  H1197   1.108   .     S
C1195  H1198   1.111   .     S
C1195  C1094   1.531   1_655 S
C1201  O1229   1.282   .     A
C1201  C1212   1.415   .     S
C1201  O1227   1.282   .     A
C1202  O1230   1.282   .     A
C1202  C1211   1.415   .     S
C1202  O1228   1.282   .     A
C1203  O1231   1.271   .     A
C1203  O1233   1.283   .     A
C1203  C1205   1.407   .     S
C1204  O1234   1.283   .     A
C1204  O1232   1.271   .     A
C1204  C1206   1.407   .     S
C1205  C1306   1.359   1_455 S
C1205  C1337   1.543   1_455 S
C1206  C1255   1.359   .     S
C1206  C1294   1.543   .     S
C1207  C1212   1.396   .     A
C1207  H1217   1.084   .     S
C1208  C1211   1.396   .     A
C1208  H1218   1.084   .     S
C1208  C910    1.370   1_565 S
C1209  C1211   1.396   .     A
C1209  H1219   1.084   .     S
C1209  C907    1.370   1_565 S
C1210  C1212   1.396   .     A
C1210  H1220   1.084   .     S
C1213  H1221   1.082   .     S
C1213  N1226   1.366   .     A
C1214  H1222   1.082   .     S
C1214  N1225   1.366   .     A
C1214  C316    1.417   1_556 S
C1215  H1223   1.082   .     S
C1215  N1225   1.367   .     A
C1215  C313    1.417   1_556 S
C1216  H1224   1.082   .     S
C1216  N1226   1.367   .     A
N1225  Zn1235  2.010   .     S
N1226  Zn1236  2.010   .     S
O1227  Zn1235  1.995   .     S
O1228  Zn1236  1.995   .     S
O1229  Zn1236  1.994   .     S
O1230  Zn1235  1.994   .     S
O1231  Zn1235  1.986   .     S
O1232  Zn1236  1.986   .     S
O1233  Zn1236  1.984   .     S
O1234  Zn1235  1.984   .     S
C1237  H1243   1.111   .     S
C1237  H1242   1.108   .     S
C1237  C1255   1.543   .     S
C1237  C1288   1.531   .     S
C1238  H1240   1.111   .     S
C1238  H1239   1.108   .     S
C1238  H1241   1.111   .     S
C1238  C1337   1.531   1_455 S
C1244  H1249   1.111   .     S
C1244  H1250   1.108   .     S
C1244  C1306   1.543   1_455 S
C1244  C1345   1.531   1_455 S
C1245  H1246   1.111   .     S
C1245  H1247   1.108   .     S
C1245  H1248   1.111   .     S
C1245  C1294   1.531   .     S
C1251  O1279   1.282   .     A
C1251  C1262   1.415   .     S
C1251  O1277   1.282   .     A
C1252  O1280   1.282   .     A
C1252  C1261   1.415   .     S
C1252  O1278   1.282   .     A
C1253  O1281   1.271   .     A
C1253  O1283   1.283   .     A
C1253  C1255   1.407   .     S
C1254  O1284   1.283   .     A
C1254  O1282   1.271   .     A
C1254  C1256   1.407   .     S
C1256  C1305   1.359   .     S
C1256  C1344   1.543   .     S
C1257  C1262   1.396   .     A
C1257  H1267   1.084   .     S
C1258  C1261   1.396   .     A
C1258  H1268   1.084   .     S
C1258  C960    1.370   1_565 S
C1259  C1261   1.396   .     A
C1259  H1269   1.084   .     S
C1259  C957    1.370   1_565 S
C1260  C1262   1.396   .     A
C1260  H1270   1.084   .     S
C1263  H1271   1.082   .     S
C1263  N1276   1.366   .     A
C1264  H1272   1.082   .     S
C1264  N1275   1.366   .     A
C1264  C366    1.417   1_556 S
C1265  H1273   1.082   .     S
C1265  N1275   1.367   .     A
C1265  C363    1.417   1_556 S
C1266  H1274   1.082   .     S
C1266  N1276   1.367   .     A
N1275  Zn1285  2.010   .     S
N1276  Zn1286  2.010   .     S
O1277  Zn1285  1.995   .     S
O1278  Zn1286  1.995   .     S
O1279  Zn1286  1.994   .     S
O1280  Zn1285  1.994   .     S
O1281  Zn1285  1.986   .     S
O1282  Zn1286  1.986   .     S
O1283  Zn1286  1.984   .     S
O1284  Zn1285  1.984   .     S
C1287  H1293   1.111   .     S
C1287  H1292   1.108   .     S
C1287  C1305   1.543   .     S
C1287  C1338   1.531   .     S
C1288  H1290   1.111   .     S
C1288  H1289   1.108   .     S
C1288  H1291   1.111   .     S
C1294  H1299   1.111   .     S
C1294  H1300   1.108   .     S
C1295  H1296   1.111   .     S
C1295  H1297   1.108   .     S
C1295  H1298   1.111   .     S
C1295  C1344   1.531   .     S
C1301  O1329   1.282   .     A
C1301  C1312   1.415   .     S
C1301  O1327   1.282   .     A
C1302  O1330   1.282   .     A
C1302  C1311   1.415   .     S
C1302  O1328   1.282   .     A
C1303  O1331   1.271   .     A
C1303  O1333   1.283   .     A
C1303  C1305   1.407   .     S
C1304  O1334   1.283   .     A
C1304  O1332   1.271   .     A
C1304  C1306   1.407   .     S
C1306  C1205   1.359   1_655 S
C1306  C1244   1.543   1_655 S
C1307  C1312   1.396   .     A
C1307  H1317   1.084   .     S
C1308  C1311   1.396   .     A
C1308  H1318   1.084   .     S
C1308  C1010   1.370   1_565 S
C1309  C1311   1.396   .     A
C1309  H1319   1.084   .     S
C1309  C1007   1.370   1_565 S
C1310  C1312   1.396   .     A
C1310  H1320   1.084   .     S
C1313  H1321   1.082   .     S
C1313  N1326   1.366   .     A
C1314  H1322   1.082   .     S
C1314  N1325   1.366   .     A
C1314  C416    1.417   1_556 S
C1315  H1323   1.082   .     S
C1315  N1325   1.367   .     A
C1315  C413    1.417   1_556 S
C1316  H1324   1.082   .     S
C1316  N1326   1.367   .     A
N1325  Zn1335  2.010   .     S
N1326  Zn1336  2.010   .     S
O1327  Zn1335  1.995   .     S
O1328  Zn1336  1.995   .     S
O1329  Zn1336  1.994   .     S
O1330  Zn1335  1.994   .     S
O1331  Zn1335  1.986   .     S
O1332  Zn1336  1.986   .     S
O1333  Zn1336  1.984   .     S
O1334  Zn1335  1.984   .     S
C1337  H1343   1.111   .     S
C1337  H1342   1.108   .     S
C1337  C1205   1.543   1_655 S
C1337  C1238   1.531   1_655 S
C1338  H1340   1.111   .     S
C1338  H1339   1.108   .     S
C1338  H1341   1.111   .     S
C1344  H1349   1.111   .     S
C1344  H1350   1.108   .     S
C1345  H1346   1.111   .     S
C1345  H1347   1.108   .     S
C1345  H1348   1.111   .     S
C1345  C1244   1.531   1_655 S
