data_str_m2_o1_o16_pcu_sym.246
_audit_creation_date              2020-01-03
_audit_creation_method            'Materials Studio'
_symmetry_space_group_name_H-M    'P1'
_symmetry_Int_Tables_number       1
_symmetry_cell_setting            triclinic
loop_
_symmetry_equiv_pos_as_xyz
  x,y,z
_cell_length_a                    28.5571
_cell_length_b                    32.4554
_cell_length_c                    26.8570
_cell_angle_alpha                 90.1122
_cell_angle_beta                  72.4772
_cell_angle_gamma                 89.7632
loop_
_atom_site_label
_atom_site_type_symbol
_atom_site_fract_x
_atom_site_fract_y
_atom_site_fract_z
_atom_site_U_iso_or_equiv
_atom_site_adp_type
_atom_site_occupancy
C1     C     0.16601   0.24596   0.25172   0.00000  Uiso   1.00
C2     C     0.14434   0.16062   0.48973   0.00000  Uiso   1.00
C3     C     0.15598   0.14951   0.43619   0.00000  Uiso   1.00
C4     C     0.18049   0.15498   0.01581   0.00000  Uiso   1.00
C5     C     0.22559   0.13510   0.48967   0.00000  Uiso   1.00
C6     C     0.23333   0.11938   0.43956   0.00000  Uiso   1.00
C7     C     0.19855   0.12532   0.41357   0.00000  Uiso   1.00
C8     C     0.17330   0.16860   0.06716   0.00000  Uiso   1.00
C9     C     0.25277   0.14200   0.06655   0.00000  Uiso   1.00
C10    C     0.12413   0.16246   0.40747   0.00000  Uiso   1.00
C11    C     0.20834   0.31173   0.22920   0.00000  Uiso   1.00
C12    C     0.14041   0.16435   0.35005   0.00000  Uiso   1.00
C13    C     0.20892   0.02097   0.22881   0.00000  Uiso   1.00
C14    C     0.16597   0.04295   0.25305   0.00000  Uiso   1.00
C15    C     0.12262   0.02240   0.27965   0.00000  Uiso   1.00
C16    C     0.12168   0.31273   0.28100   0.00000  Uiso   1.00
C17    C     0.16492   0.29069   0.25417   0.00000  Uiso   1.00
C18    C     0.29849   0.18995   0.28519   0.00000  Uiso   1.00
C19    C     0.01471   0.18978   0.28534   0.00000  Uiso   1.00
C20    C     0.03466   0.14307   0.21506   0.00000  Uiso   1.00
C21    C     0.31842   0.14317   0.21507   0.00000  Uiso   1.00
C22    C     0.16651   0.08744   0.25078   0.00000  Uiso   1.00
C23    C     0.19293   0.16608   0.14993   0.00000  Uiso   1.00
C24    C     0.26174   0.12962   0.01481   0.00000  Uiso   1.00
C25    C     0.20782   0.16042   0.09326   0.00000  Uiso   1.00
C26    C     0.07748   0.17834   0.43403   0.00000  Uiso   1.00
C27    C     0.06350   0.18403   0.48765   0.00000  Uiso   1.00
C28    C     0.09670   0.17635   0.01521   0.00000  Uiso   1.00
Cu29   Cu    0.11978   0.16666   0.25000   0.00000  Uiso   1.00
Cu30   Cu    0.21355   0.16667   0.25000   0.00000  Uiso   1.00
H31    H     0.27994   0.13547   0.08627   0.00000  Uiso   1.00
H32    H     0.24261   0.03673   0.20847   0.00000  Uiso   1.00
H33    H     0.27179   0.20866   0.31338   0.00000  Uiso   1.00
H34    H     0.02522   0.20804   0.31390   0.00000  Uiso   1.00
H35    H     0.30759   0.12429   0.18719   0.00000  Uiso   1.00
H36    H     0.26616   0.10165   0.42066   0.00000  Uiso   1.00
H37    H     0.29627   0.11452   0.49500   0.00000  Uiso   1.00
H38    H     0.14063   0.18517   0.08841   0.00000  Uiso   1.00
H39    H     0.05209   0.18753   0.41313   0.00000  Uiso   1.00
H40    H     0.08339   0.18216   0.05659   0.00000  Uiso   1.00
H41    H     0.02724   0.19596   0.00777   0.00000  Uiso   1.00
H42    H     0.24171   0.29519   0.20898   0.00000  Uiso   1.00
N43    N     0.04931   0.16666   0.24998   0.00000  Uiso   1.00
N44    N     0.28402   0.16669   0.24999   0.00000  Uiso   1.00
O45    O     0.12708   0.22678   0.25000   0.00000  Uiso   1.00
O46    O     0.20627   0.22679   0.25000   0.00000  Uiso   1.00
O47    O     0.10775   0.16665   0.32549   0.00000  Uiso   1.00
O48    O     0.18694   0.16666   0.32549   0.00000  Uiso   1.00
O49    O     0.12706   0.10654   0.24999   0.00000  Uiso   1.00
O50    O     0.20625   0.10655   0.24999   0.00000  Uiso   1.00
O51    O     0.14640   0.16667   0.17451   0.00000  Uiso   1.00
O52    O     0.22559   0.16668   0.17451   0.00000  Uiso   1.00
F53    F     0.08162   0.04434   0.30489   0.00000  Uiso   1.00
C54    C     0.07515   0.29127   0.31190   0.00000  Uiso   1.00
H55    H     0.08363   0.26752   0.33768   0.00000  Uiso   1.00
H56    H     0.04804   0.31279   0.33743   0.00000  Uiso   1.00
H57    H     0.05744   0.27684   0.28474   0.00000  Uiso   1.00
F58    F     0.06763   0.11889   0.18029   0.00000  Uiso   1.00
F59    F     0.20494   0.10408   0.36840   0.00000  Uiso   1.00
C60    C     0.49935   0.24596   0.25172   0.00000  Uiso   1.00
C61    C     0.47767   0.16062   0.48973   0.00000  Uiso   1.00
C62    C     0.48932   0.14951   0.43619   0.00000  Uiso   1.00
C63    C     0.51383   0.15498   0.01581   0.00000  Uiso   1.00
C64    C     0.55892   0.13510   0.48967   0.00000  Uiso   1.00
C65    C     0.56666   0.11938   0.43956   0.00000  Uiso   1.00
C66    C     0.53188   0.12532   0.41357   0.00000  Uiso   1.00
C67    C     0.50663   0.16860   0.06716   0.00000  Uiso   1.00
C68    C     0.58611   0.14200   0.06655   0.00000  Uiso   1.00
C69    C     0.45746   0.16246   0.40747   0.00000  Uiso   1.00
C70    C     0.54167   0.31173   0.22920   0.00000  Uiso   1.00
C71    C     0.47374   0.16435   0.35005   0.00000  Uiso   1.00
C72    C     0.54225   0.02097   0.22881   0.00000  Uiso   1.00
C73    C     0.49930   0.04295   0.25305   0.00000  Uiso   1.00
C74    C     0.45595   0.02240   0.27965   0.00000  Uiso   1.00
C75    C     0.45501   0.31273   0.28100   0.00000  Uiso   1.00
C76    C     0.49825   0.29069   0.25417   0.00000  Uiso   1.00
C77    C     0.63183   0.18995   0.28519   0.00000  Uiso   1.00
C78    C     0.34805   0.18978   0.28534   0.00000  Uiso   1.00
C79    C     0.36800   0.14307   0.21506   0.00000  Uiso   1.00
C80    C     0.65175   0.14317   0.21507   0.00000  Uiso   1.00
C81    C     0.49985   0.08744   0.25078   0.00000  Uiso   1.00
C82    C     0.52626   0.16608   0.14993   0.00000  Uiso   1.00
C83    C     0.59507   0.12962   0.01481   0.00000  Uiso   1.00
C84    C     0.54115   0.16042   0.09326   0.00000  Uiso   1.00
C85    C     0.41081   0.17834   0.43403   0.00000  Uiso   1.00
C86    C     0.39683   0.18403   0.48765   0.00000  Uiso   1.00
C87    C     0.43003   0.17635   0.01521   0.00000  Uiso   1.00
Cu88   Cu    0.45311   0.16666   0.25000   0.00000  Uiso   1.00
Cu89   Cu    0.54689   0.16667   0.25000   0.00000  Uiso   1.00
H90    H     0.61327   0.13547   0.08627   0.00000  Uiso   1.00
H91    H     0.57595   0.03673   0.20847   0.00000  Uiso   1.00
H92    H     0.60513   0.20866   0.31338   0.00000  Uiso   1.00
H93    H     0.35855   0.20804   0.31390   0.00000  Uiso   1.00
H94    H     0.64092   0.12429   0.18719   0.00000  Uiso   1.00
H95    H     0.59949   0.10165   0.42066   0.00000  Uiso   1.00
H96    H     0.62961   0.11452   0.49500   0.00000  Uiso   1.00
H97    H     0.47397   0.18517   0.08841   0.00000  Uiso   1.00
H98    H     0.38542   0.18753   0.41313   0.00000  Uiso   1.00
H99    H     0.41672   0.18216   0.05659   0.00000  Uiso   1.00
H100   H     0.36058   0.19596   0.00777   0.00000  Uiso   1.00
H101   H     0.57505   0.29519   0.20898   0.00000  Uiso   1.00
N102   N     0.38265   0.16666   0.24998   0.00000  Uiso   1.00
N103   N     0.61735   0.16669   0.24999   0.00000  Uiso   1.00
O104   O     0.46042   0.22678   0.25000   0.00000  Uiso   1.00
O105   O     0.53961   0.22679   0.25000   0.00000  Uiso   1.00
O106   O     0.44108   0.16665   0.32549   0.00000  Uiso   1.00
O107   O     0.52027   0.16666   0.32549   0.00000  Uiso   1.00
O108   O     0.46039   0.10654   0.24999   0.00000  Uiso   1.00
O109   O     0.53958   0.10655   0.24999   0.00000  Uiso   1.00
O110   O     0.47973   0.16667   0.17451   0.00000  Uiso   1.00
O111   O     0.55892   0.16668   0.17451   0.00000  Uiso   1.00
F112   F     0.41495   0.04434   0.30489   0.00000  Uiso   1.00
C113   C     0.40848   0.29127   0.31190   0.00000  Uiso   1.00
H114   H     0.41696   0.26752   0.33768   0.00000  Uiso   1.00
H115   H     0.38137   0.31279   0.33743   0.00000  Uiso   1.00
H116   H     0.39077   0.27684   0.28474   0.00000  Uiso   1.00
F117   F     0.40096   0.11889   0.18029   0.00000  Uiso   1.00
F118   F     0.53827   0.10408   0.36840   0.00000  Uiso   1.00
C119   C     0.83268   0.24596   0.25172   0.00000  Uiso   1.00
C120   C     0.81100   0.16062   0.48973   0.00000  Uiso   1.00
C121   C     0.82265   0.14951   0.43619   0.00000  Uiso   1.00
C122   C     0.84716   0.15498   0.01581   0.00000  Uiso   1.00
C123   C     0.89226   0.13510   0.48967   0.00000  Uiso   1.00
C124   C     0.90000   0.11938   0.43956   0.00000  Uiso   1.00
C125   C     0.86521   0.12532   0.41357   0.00000  Uiso   1.00
C126   C     0.83996   0.16860   0.06716   0.00000  Uiso   1.00
C127   C     0.91944   0.14200   0.06655   0.00000  Uiso   1.00
C128   C     0.79079   0.16246   0.40747   0.00000  Uiso   1.00
C129   C     0.87501   0.31173   0.22920   0.00000  Uiso   1.00
C130   C     0.80707   0.16435   0.35005   0.00000  Uiso   1.00
C131   C     0.87559   0.02097   0.22881   0.00000  Uiso   1.00
C132   C     0.83264   0.04295   0.25305   0.00000  Uiso   1.00
C133   C     0.78928   0.02240   0.27965   0.00000  Uiso   1.00
C134   C     0.78834   0.31273   0.28100   0.00000  Uiso   1.00
C135   C     0.83159   0.29069   0.25417   0.00000  Uiso   1.00
C136   C     0.96516   0.18995   0.28519   0.00000  Uiso   1.00
C137   C     0.68138   0.18978   0.28534   0.00000  Uiso   1.00
C138   C     0.70133   0.14307   0.21506   0.00000  Uiso   1.00
C139   C     0.98508   0.14317   0.21507   0.00000  Uiso   1.00
C140   C     0.83318   0.08744   0.25078   0.00000  Uiso   1.00
C141   C     0.85959   0.16608   0.14993   0.00000  Uiso   1.00
C142   C     0.92841   0.12962   0.01481   0.00000  Uiso   1.00
C143   C     0.87449   0.16042   0.09326   0.00000  Uiso   1.00
C144   C     0.74415   0.17834   0.43403   0.00000  Uiso   1.00
C145   C     0.73016   0.18403   0.48765   0.00000  Uiso   1.00
C146   C     0.76337   0.17635   0.01521   0.00000  Uiso   1.00
Cu147  Cu    0.78645   0.16666   0.25000   0.00000  Uiso   1.00
Cu148  Cu    0.88022   0.16667   0.25000   0.00000  Uiso   1.00
H149   H     0.94661   0.13547   0.08627   0.00000  Uiso   1.00
H150   H     0.90928   0.03673   0.20847   0.00000  Uiso   1.00
H151   H     0.93846   0.20866   0.31338   0.00000  Uiso   1.00
H152   H     0.69189   0.20804   0.31390   0.00000  Uiso   1.00
H153   H     0.97426   0.12429   0.18719   0.00000  Uiso   1.00
H154   H     0.93282   0.10165   0.42066   0.00000  Uiso   1.00
H155   H     0.96294   0.11452   0.49500   0.00000  Uiso   1.00
H156   H     0.80730   0.18517   0.08841   0.00000  Uiso   1.00
H157   H     0.71875   0.18753   0.41313   0.00000  Uiso   1.00
H158   H     0.75006   0.18216   0.05659   0.00000  Uiso   1.00
H159   H     0.69391   0.19596   0.00777   0.00000  Uiso   1.00
H160   H     0.90838   0.29519   0.20898   0.00000  Uiso   1.00
N161   N     0.71598   0.16666   0.24998   0.00000  Uiso   1.00
N162   N     0.95069   0.16669   0.24999   0.00000  Uiso   1.00
O163   O     0.79375   0.22678   0.25000   0.00000  Uiso   1.00
O164   O     0.87294   0.22679   0.25000   0.00000  Uiso   1.00
O165   O     0.77441   0.16665   0.32549   0.00000  Uiso   1.00
O166   O     0.85360   0.16666   0.32549   0.00000  Uiso   1.00
O167   O     0.79373   0.10654   0.24999   0.00000  Uiso   1.00
O168   O     0.87292   0.10655   0.24999   0.00000  Uiso   1.00
O169   O     0.81306   0.16667   0.17451   0.00000  Uiso   1.00
O170   O     0.89225   0.16668   0.17451   0.00000  Uiso   1.00
F171   F     0.74828   0.04434   0.30489   0.00000  Uiso   1.00
C172   C     0.74181   0.29127   0.31190   0.00000  Uiso   1.00
H173   H     0.75030   0.26752   0.33768   0.00000  Uiso   1.00
H174   H     0.71470   0.31279   0.33743   0.00000  Uiso   1.00
H175   H     0.72410   0.27684   0.28474   0.00000  Uiso   1.00
F176   F     0.73430   0.11889   0.18029   0.00000  Uiso   1.00
F177   F     0.87160   0.10408   0.36840   0.00000  Uiso   1.00
C178   C     0.16601   0.57929   0.25172   0.00000  Uiso   1.00
C179   C     0.14434   0.49396   0.48973   0.00000  Uiso   1.00
C180   C     0.15598   0.48284   0.43619   0.00000  Uiso   1.00
C181   C     0.18049   0.48831   0.01581   0.00000  Uiso   1.00
C182   C     0.22559   0.46843   0.48967   0.00000  Uiso   1.00
C183   C     0.23333   0.45271   0.43956   0.00000  Uiso   1.00
C184   C     0.19855   0.45865   0.41357   0.00000  Uiso   1.00
C185   C     0.17330   0.50194   0.06716   0.00000  Uiso   1.00
C186   C     0.25277   0.47533   0.06655   0.00000  Uiso   1.00
C187   C     0.12413   0.49579   0.40747   0.00000  Uiso   1.00
C188   C     0.20834   0.64507   0.22920   0.00000  Uiso   1.00
C189   C     0.14041   0.49768   0.35005   0.00000  Uiso   1.00
C190   C     0.20892   0.35430   0.22881   0.00000  Uiso   1.00
C191   C     0.16597   0.37628   0.25305   0.00000  Uiso   1.00
C192   C     0.12262   0.35574   0.27965   0.00000  Uiso   1.00
C193   C     0.12168   0.64607   0.28100   0.00000  Uiso   1.00
C194   C     0.16492   0.62403   0.25417   0.00000  Uiso   1.00
C195   C     0.29849   0.52329   0.28519   0.00000  Uiso   1.00
C196   C     0.01471   0.52311   0.28534   0.00000  Uiso   1.00
C197   C     0.03466   0.47640   0.21506   0.00000  Uiso   1.00
C198   C     0.31842   0.47650   0.21507   0.00000  Uiso   1.00
C199   C     0.16651   0.42077   0.25078   0.00000  Uiso   1.00
C200   C     0.19293   0.49941   0.14993   0.00000  Uiso   1.00
C201   C     0.26174   0.46296   0.01481   0.00000  Uiso   1.00
C202   C     0.20782   0.49375   0.09326   0.00000  Uiso   1.00
C203   C     0.07748   0.51167   0.43403   0.00000  Uiso   1.00
C204   C     0.06350   0.51736   0.48765   0.00000  Uiso   1.00
C205   C     0.09670   0.50968   0.01521   0.00000  Uiso   1.00
Cu206  Cu    0.11978   0.49999   0.25000   0.00000  Uiso   1.00
Cu207  Cu    0.21355   0.50001   0.25000   0.00000  Uiso   1.00
H208   H     0.27994   0.46881   0.08627   0.00000  Uiso   1.00
H209   H     0.24261   0.37006   0.20847   0.00000  Uiso   1.00
H210   H     0.27179   0.54200   0.31338   0.00000  Uiso   1.00
H211   H     0.02522   0.54138   0.31390   0.00000  Uiso   1.00
H212   H     0.30759   0.45763   0.18719   0.00000  Uiso   1.00
H213   H     0.26616   0.43498   0.42066   0.00000  Uiso   1.00
H214   H     0.29627   0.44785   0.49500   0.00000  Uiso   1.00
H215   H     0.14063   0.51850   0.08841   0.00000  Uiso   1.00
H216   H     0.05209   0.52086   0.41313   0.00000  Uiso   1.00
H217   H     0.08339   0.51549   0.05659   0.00000  Uiso   1.00
H218   H     0.02724   0.52930   0.00777   0.00000  Uiso   1.00
H219   H     0.24171   0.62852   0.20898   0.00000  Uiso   1.00
N220   N     0.04931   0.49999   0.24998   0.00000  Uiso   1.00
N221   N     0.28402   0.50002   0.24999   0.00000  Uiso   1.00
O222   O     0.12708   0.56011   0.25000   0.00000  Uiso   1.00
O223   O     0.20627   0.56012   0.25000   0.00000  Uiso   1.00
O224   O     0.10775   0.49998   0.32549   0.00000  Uiso   1.00
O225   O     0.18694   0.49999   0.32549   0.00000  Uiso   1.00
O226   O     0.12706   0.43988   0.24999   0.00000  Uiso   1.00
O227   O     0.20625   0.43989   0.24999   0.00000  Uiso   1.00
O228   O     0.14640   0.50001   0.17451   0.00000  Uiso   1.00
O229   O     0.22559   0.50002   0.17451   0.00000  Uiso   1.00
F230   F     0.08162   0.37768   0.30489   0.00000  Uiso   1.00
C231   C     0.07515   0.62461   0.31190   0.00000  Uiso   1.00
H232   H     0.08363   0.60086   0.33768   0.00000  Uiso   1.00
H233   H     0.04804   0.64612   0.33743   0.00000  Uiso   1.00
H234   H     0.05744   0.61018   0.28474   0.00000  Uiso   1.00
F235   F     0.06763   0.45223   0.18029   0.00000  Uiso   1.00
F236   F     0.20494   0.43741   0.36840   0.00000  Uiso   1.00
C237   C     0.49935   0.57929   0.25172   0.00000  Uiso   1.00
C238   C     0.47767   0.49396   0.48973   0.00000  Uiso   1.00
C239   C     0.48932   0.48284   0.43619   0.00000  Uiso   1.00
C240   C     0.51383   0.48831   0.01581   0.00000  Uiso   1.00
C241   C     0.55892   0.46843   0.48967   0.00000  Uiso   1.00
C242   C     0.56666   0.45271   0.43956   0.00000  Uiso   1.00
C243   C     0.53188   0.45865   0.41357   0.00000  Uiso   1.00
C244   C     0.50663   0.50194   0.06716   0.00000  Uiso   1.00
C245   C     0.58611   0.47533   0.06655   0.00000  Uiso   1.00
C246   C     0.45746   0.49579   0.40747   0.00000  Uiso   1.00
C247   C     0.54167   0.64507   0.22920   0.00000  Uiso   1.00
C248   C     0.47374   0.49768   0.35005   0.00000  Uiso   1.00
C249   C     0.54225   0.35430   0.22881   0.00000  Uiso   1.00
C250   C     0.49930   0.37628   0.25305   0.00000  Uiso   1.00
C251   C     0.45595   0.35574   0.27965   0.00000  Uiso   1.00
C252   C     0.45501   0.64607   0.28100   0.00000  Uiso   1.00
C253   C     0.49825   0.62403   0.25417   0.00000  Uiso   1.00
C254   C     0.63183   0.52329   0.28519   0.00000  Uiso   1.00
C255   C     0.34805   0.52311   0.28534   0.00000  Uiso   1.00
C256   C     0.36800   0.47640   0.21506   0.00000  Uiso   1.00
C257   C     0.65175   0.47650   0.21507   0.00000  Uiso   1.00
C258   C     0.49985   0.42077   0.25078   0.00000  Uiso   1.00
C259   C     0.52626   0.49941   0.14993   0.00000  Uiso   1.00
C260   C     0.59507   0.46296   0.01481   0.00000  Uiso   1.00
C261   C     0.54115   0.49375   0.09326   0.00000  Uiso   1.00
C262   C     0.41081   0.51167   0.43403   0.00000  Uiso   1.00
C263   C     0.39683   0.51736   0.48765   0.00000  Uiso   1.00
C264   C     0.43003   0.50968   0.01521   0.00000  Uiso   1.00
Cu265  Cu    0.45311   0.49999   0.25000   0.00000  Uiso   1.00
Cu266  Cu    0.54689   0.50001   0.25000   0.00000  Uiso   1.00
H267   H     0.61327   0.46881   0.08627   0.00000  Uiso   1.00
H268   H     0.57595   0.37006   0.20847   0.00000  Uiso   1.00
H269   H     0.60513   0.54200   0.31338   0.00000  Uiso   1.00
H270   H     0.35855   0.54138   0.31390   0.00000  Uiso   1.00
H271   H     0.64092   0.45763   0.18719   0.00000  Uiso   1.00
H272   H     0.59949   0.43498   0.42066   0.00000  Uiso   1.00
H273   H     0.62961   0.44785   0.49500   0.00000  Uiso   1.00
H274   H     0.47397   0.51850   0.08841   0.00000  Uiso   1.00
H275   H     0.38542   0.52086   0.41313   0.00000  Uiso   1.00
H276   H     0.41672   0.51549   0.05659   0.00000  Uiso   1.00
H277   H     0.36058   0.52930   0.00777   0.00000  Uiso   1.00
H278   H     0.57505   0.62852   0.20898   0.00000  Uiso   1.00
N279   N     0.38265   0.49999   0.24998   0.00000  Uiso   1.00
N280   N     0.61735   0.50002   0.24999   0.00000  Uiso   1.00
O281   O     0.46042   0.56011   0.25000   0.00000  Uiso   1.00
O282   O     0.53961   0.56012   0.25000   0.00000  Uiso   1.00
O283   O     0.44108   0.49998   0.32549   0.00000  Uiso   1.00
O284   O     0.52027   0.49999   0.32549   0.00000  Uiso   1.00
O285   O     0.46039   0.43988   0.24999   0.00000  Uiso   1.00
O286   O     0.53958   0.43989   0.24999   0.00000  Uiso   1.00
O287   O     0.47973   0.50001   0.17451   0.00000  Uiso   1.00
O288   O     0.55892   0.50002   0.17451   0.00000  Uiso   1.00
F289   F     0.41495   0.37768   0.30489   0.00000  Uiso   1.00
C290   C     0.40848   0.62461   0.31190   0.00000  Uiso   1.00
H291   H     0.41696   0.60086   0.33768   0.00000  Uiso   1.00
H292   H     0.38137   0.64612   0.33743   0.00000  Uiso   1.00
H293   H     0.39077   0.61018   0.28474   0.00000  Uiso   1.00
F294   F     0.40096   0.45223   0.18029   0.00000  Uiso   1.00
F295   F     0.53827   0.43741   0.36840   0.00000  Uiso   1.00
C296   C     0.83268   0.57929   0.25172   0.00000  Uiso   1.00
C297   C     0.81100   0.49396   0.48973   0.00000  Uiso   1.00
C298   C     0.82265   0.48284   0.43619   0.00000  Uiso   1.00
C299   C     0.84716   0.48831   0.01581   0.00000  Uiso   1.00
C300   C     0.89226   0.46843   0.48967   0.00000  Uiso   1.00
C301   C     0.90000   0.45271   0.43956   0.00000  Uiso   1.00
C302   C     0.86521   0.45865   0.41357   0.00000  Uiso   1.00
C303   C     0.83996   0.50194   0.06716   0.00000  Uiso   1.00
C304   C     0.91944   0.47533   0.06655   0.00000  Uiso   1.00
C305   C     0.79079   0.49579   0.40747   0.00000  Uiso   1.00
C306   C     0.87501   0.64507   0.22920   0.00000  Uiso   1.00
C307   C     0.80707   0.49768   0.35005   0.00000  Uiso   1.00
C308   C     0.87559   0.35430   0.22881   0.00000  Uiso   1.00
C309   C     0.83264   0.37628   0.25305   0.00000  Uiso   1.00
C310   C     0.78928   0.35574   0.27965   0.00000  Uiso   1.00
C311   C     0.78834   0.64607   0.28100   0.00000  Uiso   1.00
C312   C     0.83159   0.62403   0.25417   0.00000  Uiso   1.00
C313   C     0.96516   0.52329   0.28519   0.00000  Uiso   1.00
C314   C     0.68138   0.52311   0.28534   0.00000  Uiso   1.00
C315   C     0.70133   0.47640   0.21506   0.00000  Uiso   1.00
C316   C     0.98508   0.47650   0.21507   0.00000  Uiso   1.00
C317   C     0.83318   0.42077   0.25078   0.00000  Uiso   1.00
C318   C     0.85959   0.49941   0.14993   0.00000  Uiso   1.00
C319   C     0.92841   0.46296   0.01481   0.00000  Uiso   1.00
C320   C     0.87449   0.49375   0.09326   0.00000  Uiso   1.00
C321   C     0.74415   0.51167   0.43403   0.00000  Uiso   1.00
C322   C     0.73016   0.51736   0.48765   0.00000  Uiso   1.00
C323   C     0.76337   0.50968   0.01521   0.00000  Uiso   1.00
Cu324  Cu    0.78645   0.49999   0.25000   0.00000  Uiso   1.00
Cu325  Cu    0.88022   0.50001   0.25000   0.00000  Uiso   1.00
H326   H     0.94661   0.46881   0.08627   0.00000  Uiso   1.00
H327   H     0.90928   0.37006   0.20847   0.00000  Uiso   1.00
H328   H     0.93846   0.54200   0.31338   0.00000  Uiso   1.00
H329   H     0.69189   0.54138   0.31390   0.00000  Uiso   1.00
H330   H     0.97426   0.45763   0.18719   0.00000  Uiso   1.00
H331   H     0.93282   0.43498   0.42066   0.00000  Uiso   1.00
H332   H     0.96294   0.44785   0.49500   0.00000  Uiso   1.00
H333   H     0.80730   0.51850   0.08841   0.00000  Uiso   1.00
H334   H     0.71875   0.52086   0.41313   0.00000  Uiso   1.00
H335   H     0.75006   0.51549   0.05659   0.00000  Uiso   1.00
H336   H     0.69391   0.52930   0.00777   0.00000  Uiso   1.00
H337   H     0.90838   0.62852   0.20898   0.00000  Uiso   1.00
N338   N     0.71598   0.49999   0.24998   0.00000  Uiso   1.00
N339   N     0.95069   0.50002   0.24999   0.00000  Uiso   1.00
O340   O     0.79375   0.56011   0.25000   0.00000  Uiso   1.00
O341   O     0.87294   0.56012   0.25000   0.00000  Uiso   1.00
O342   O     0.77441   0.49998   0.32549   0.00000  Uiso   1.00
O343   O     0.85360   0.49999   0.32549   0.00000  Uiso   1.00
O344   O     0.79373   0.43988   0.24999   0.00000  Uiso   1.00
O345   O     0.87292   0.43989   0.24999   0.00000  Uiso   1.00
O346   O     0.81306   0.50001   0.17451   0.00000  Uiso   1.00
O347   O     0.89225   0.50002   0.17451   0.00000  Uiso   1.00
F348   F     0.74828   0.37768   0.30489   0.00000  Uiso   1.00
C349   C     0.74181   0.62461   0.31190   0.00000  Uiso   1.00
H350   H     0.75030   0.60086   0.33768   0.00000  Uiso   1.00
H351   H     0.71470   0.64612   0.33743   0.00000  Uiso   1.00
H352   H     0.72410   0.61018   0.28474   0.00000  Uiso   1.00
F353   F     0.73430   0.45223   0.18029   0.00000  Uiso   1.00
F354   F     0.87160   0.43741   0.36840   0.00000  Uiso   1.00
C355   C     0.16601   0.91262   0.25172   0.00000  Uiso   1.00
C356   C     0.14434   0.82729   0.48973   0.00000  Uiso   1.00
C357   C     0.15598   0.81617   0.43619   0.00000  Uiso   1.00
C358   C     0.18049   0.82164   0.01581   0.00000  Uiso   1.00
C359   C     0.22559   0.80177   0.48967   0.00000  Uiso   1.00
C360   C     0.23333   0.78605   0.43956   0.00000  Uiso   1.00
C361   C     0.19855   0.79199   0.41357   0.00000  Uiso   1.00
C362   C     0.17330   0.83527   0.06716   0.00000  Uiso   1.00
C363   C     0.25277   0.80866   0.06655   0.00000  Uiso   1.00
C364   C     0.12413   0.82912   0.40747   0.00000  Uiso   1.00
C365   C     0.20834   0.97840   0.22920   0.00000  Uiso   1.00
C366   C     0.14041   0.83101   0.35005   0.00000  Uiso   1.00
C367   C     0.20892   0.68763   0.22881   0.00000  Uiso   1.00
C368   C     0.16597   0.70961   0.25305   0.00000  Uiso   1.00
C369   C     0.12262   0.68907   0.27965   0.00000  Uiso   1.00
C370   C     0.12168   0.97940   0.28100   0.00000  Uiso   1.00
C371   C     0.16492   0.95736   0.25417   0.00000  Uiso   1.00
C372   C     0.29849   0.85662   0.28519   0.00000  Uiso   1.00
C373   C     0.01471   0.85645   0.28534   0.00000  Uiso   1.00
C374   C     0.03466   0.80974   0.21506   0.00000  Uiso   1.00
C375   C     0.31842   0.80983   0.21507   0.00000  Uiso   1.00
C376   C     0.16651   0.75410   0.25078   0.00000  Uiso   1.00
C377   C     0.19293   0.83275   0.14993   0.00000  Uiso   1.00
C378   C     0.26174   0.79629   0.01481   0.00000  Uiso   1.00
C379   C     0.20782   0.82709   0.09326   0.00000  Uiso   1.00
C380   C     0.07748   0.84500   0.43403   0.00000  Uiso   1.00
C381   C     0.06350   0.85069   0.48765   0.00000  Uiso   1.00
C382   C     0.09670   0.84302   0.01521   0.00000  Uiso   1.00
Cu383  Cu    0.11978   0.83333   0.25000   0.00000  Uiso   1.00
Cu384  Cu    0.21355   0.83334   0.25000   0.00000  Uiso   1.00
H385   H     0.27994   0.80214   0.08627   0.00000  Uiso   1.00
H386   H     0.24261   0.70339   0.20847   0.00000  Uiso   1.00
H387   H     0.27179   0.87533   0.31338   0.00000  Uiso   1.00
H388   H     0.02522   0.87471   0.31390   0.00000  Uiso   1.00
H389   H     0.30759   0.79096   0.18719   0.00000  Uiso   1.00
H390   H     0.26616   0.76832   0.42066   0.00000  Uiso   1.00
H391   H     0.29627   0.78119   0.49500   0.00000  Uiso   1.00
H392   H     0.14063   0.85183   0.08841   0.00000  Uiso   1.00
H393   H     0.05209   0.85419   0.41313   0.00000  Uiso   1.00
H394   H     0.08339   0.84883   0.05659   0.00000  Uiso   1.00
H395   H     0.02724   0.86263   0.00777   0.00000  Uiso   1.00
H396   H     0.24171   0.96185   0.20898   0.00000  Uiso   1.00
N397   N     0.04931   0.83332   0.24998   0.00000  Uiso   1.00
N398   N     0.28402   0.83335   0.24999   0.00000  Uiso   1.00
O399   O     0.12708   0.89345   0.25000   0.00000  Uiso   1.00
O400   O     0.20627   0.89346   0.25000   0.00000  Uiso   1.00
O401   O     0.10775   0.83332   0.32549   0.00000  Uiso   1.00
O402   O     0.18694   0.83333   0.32549   0.00000  Uiso   1.00
O403   O     0.12706   0.77321   0.24999   0.00000  Uiso   1.00
O404   O     0.20625   0.77322   0.24999   0.00000  Uiso   1.00
O405   O     0.14640   0.83334   0.17451   0.00000  Uiso   1.00
O406   O     0.22559   0.83335   0.17451   0.00000  Uiso   1.00
F407   F     0.08162   0.71101   0.30489   0.00000  Uiso   1.00
C408   C     0.07515   0.95794   0.31190   0.00000  Uiso   1.00
H409   H     0.08363   0.93419   0.33768   0.00000  Uiso   1.00
H410   H     0.04804   0.97945   0.33743   0.00000  Uiso   1.00
H411   H     0.05744   0.94351   0.28474   0.00000  Uiso   1.00
F412   F     0.06763   0.78556   0.18029   0.00000  Uiso   1.00
F413   F     0.20494   0.77074   0.36840   0.00000  Uiso   1.00
C414   C     0.49935   0.91262   0.25172   0.00000  Uiso   1.00
C415   C     0.47767   0.82729   0.48973   0.00000  Uiso   1.00
C416   C     0.48932   0.81617   0.43619   0.00000  Uiso   1.00
C417   C     0.51383   0.82164   0.01581   0.00000  Uiso   1.00
C418   C     0.55892   0.80177   0.48967   0.00000  Uiso   1.00
C419   C     0.56666   0.78605   0.43956   0.00000  Uiso   1.00
C420   C     0.53188   0.79199   0.41357   0.00000  Uiso   1.00
C421   C     0.50663   0.83527   0.06716   0.00000  Uiso   1.00
C422   C     0.58611   0.80866   0.06655   0.00000  Uiso   1.00
C423   C     0.45746   0.82912   0.40747   0.00000  Uiso   1.00
C424   C     0.54167   0.97840   0.22920   0.00000  Uiso   1.00
C425   C     0.47374   0.83101   0.35005   0.00000  Uiso   1.00
C426   C     0.54225   0.68763   0.22881   0.00000  Uiso   1.00
C427   C     0.49930   0.70961   0.25305   0.00000  Uiso   1.00
C428   C     0.45595   0.68907   0.27965   0.00000  Uiso   1.00
C429   C     0.45501   0.97940   0.28100   0.00000  Uiso   1.00
C430   C     0.49825   0.95736   0.25417   0.00000  Uiso   1.00
C431   C     0.63183   0.85662   0.28519   0.00000  Uiso   1.00
C432   C     0.34805   0.85645   0.28534   0.00000  Uiso   1.00
C433   C     0.36800   0.80974   0.21506   0.00000  Uiso   1.00
C434   C     0.65175   0.80983   0.21507   0.00000  Uiso   1.00
C435   C     0.49985   0.75410   0.25078   0.00000  Uiso   1.00
C436   C     0.52626   0.83275   0.14993   0.00000  Uiso   1.00
C437   C     0.59507   0.79629   0.01481   0.00000  Uiso   1.00
C438   C     0.54115   0.82709   0.09326   0.00000  Uiso   1.00
C439   C     0.41081   0.84500   0.43403   0.00000  Uiso   1.00
C440   C     0.39683   0.85069   0.48765   0.00000  Uiso   1.00
C441   C     0.43003   0.84302   0.01521   0.00000  Uiso   1.00
Cu442  Cu    0.45311   0.83333   0.25000   0.00000  Uiso   1.00
Cu443  Cu    0.54689   0.83334   0.25000   0.00000  Uiso   1.00
H444   H     0.61327   0.80214   0.08627   0.00000  Uiso   1.00
H445   H     0.57595   0.70339   0.20847   0.00000  Uiso   1.00
H446   H     0.60513   0.87533   0.31338   0.00000  Uiso   1.00
H447   H     0.35855   0.87471   0.31390   0.00000  Uiso   1.00
H448   H     0.64092   0.79096   0.18719   0.00000  Uiso   1.00
H449   H     0.59949   0.76832   0.42066   0.00000  Uiso   1.00
H450   H     0.62961   0.78119   0.49500   0.00000  Uiso   1.00
H451   H     0.47397   0.85183   0.08841   0.00000  Uiso   1.00
H452   H     0.38542   0.85419   0.41313   0.00000  Uiso   1.00
H453   H     0.41672   0.84883   0.05659   0.00000  Uiso   1.00
H454   H     0.36058   0.86263   0.00777   0.00000  Uiso   1.00
H455   H     0.57505   0.96185   0.20898   0.00000  Uiso   1.00
N456   N     0.38265   0.83332   0.24998   0.00000  Uiso   1.00
N457   N     0.61735   0.83335   0.24999   0.00000  Uiso   1.00
O458   O     0.46042   0.89345   0.25000   0.00000  Uiso   1.00
O459   O     0.53961   0.89346   0.25000   0.00000  Uiso   1.00
O460   O     0.44108   0.83332   0.32549   0.00000  Uiso   1.00
O461   O     0.52027   0.83333   0.32549   0.00000  Uiso   1.00
O462   O     0.46039   0.77321   0.24999   0.00000  Uiso   1.00
O463   O     0.53958   0.77322   0.24999   0.00000  Uiso   1.00
O464   O     0.47973   0.83334   0.17451   0.00000  Uiso   1.00
O465   O     0.55892   0.83335   0.17451   0.00000  Uiso   1.00
F466   F     0.41495   0.71101   0.30489   0.00000  Uiso   1.00
C467   C     0.40848   0.95794   0.31190   0.00000  Uiso   1.00
H468   H     0.41696   0.93419   0.33768   0.00000  Uiso   1.00
H469   H     0.38137   0.97945   0.33743   0.00000  Uiso   1.00
H470   H     0.39077   0.94351   0.28474   0.00000  Uiso   1.00
F471   F     0.40096   0.78556   0.18029   0.00000  Uiso   1.00
F472   F     0.53827   0.77074   0.36840   0.00000  Uiso   1.00
C473   C     0.83268   0.91262   0.25172   0.00000  Uiso   1.00
C474   C     0.81100   0.82729   0.48973   0.00000  Uiso   1.00
C475   C     0.82265   0.81617   0.43619   0.00000  Uiso   1.00
C476   C     0.84716   0.82164   0.01581   0.00000  Uiso   1.00
C477   C     0.89226   0.80177   0.48967   0.00000  Uiso   1.00
C478   C     0.90000   0.78605   0.43956   0.00000  Uiso   1.00
C479   C     0.86521   0.79199   0.41357   0.00000  Uiso   1.00
C480   C     0.83996   0.83527   0.06716   0.00000  Uiso   1.00
C481   C     0.91944   0.80866   0.06655   0.00000  Uiso   1.00
C482   C     0.79079   0.82912   0.40747   0.00000  Uiso   1.00
C483   C     0.87501   0.97840   0.22920   0.00000  Uiso   1.00
C484   C     0.80707   0.83101   0.35005   0.00000  Uiso   1.00
C485   C     0.87559   0.68763   0.22881   0.00000  Uiso   1.00
C486   C     0.83264   0.70961   0.25305   0.00000  Uiso   1.00
C487   C     0.78928   0.68907   0.27965   0.00000  Uiso   1.00
C488   C     0.78834   0.97940   0.28100   0.00000  Uiso   1.00
C489   C     0.83159   0.95736   0.25417   0.00000  Uiso   1.00
C490   C     0.96516   0.85662   0.28519   0.00000  Uiso   1.00
C491   C     0.68138   0.85645   0.28534   0.00000  Uiso   1.00
C492   C     0.70133   0.80974   0.21506   0.00000  Uiso   1.00
C493   C     0.98508   0.80983   0.21507   0.00000  Uiso   1.00
C494   C     0.83318   0.75410   0.25078   0.00000  Uiso   1.00
C495   C     0.85959   0.83275   0.14993   0.00000  Uiso   1.00
C496   C     0.92841   0.79629   0.01481   0.00000  Uiso   1.00
C497   C     0.87449   0.82709   0.09326   0.00000  Uiso   1.00
C498   C     0.74415   0.84500   0.43403   0.00000  Uiso   1.00
C499   C     0.73016   0.85069   0.48765   0.00000  Uiso   1.00
C500   C     0.76337   0.84302   0.01521   0.00000  Uiso   1.00
Cu501  Cu    0.78645   0.83333   0.25000   0.00000  Uiso   1.00
Cu502  Cu    0.88022   0.83334   0.25000   0.00000  Uiso   1.00
H503   H     0.94661   0.80214   0.08627   0.00000  Uiso   1.00
H504   H     0.90928   0.70339   0.20847   0.00000  Uiso   1.00
H505   H     0.93846   0.87533   0.31338   0.00000  Uiso   1.00
H506   H     0.69189   0.87471   0.31390   0.00000  Uiso   1.00
H507   H     0.97426   0.79096   0.18719   0.00000  Uiso   1.00
H508   H     0.93282   0.76832   0.42066   0.00000  Uiso   1.00
H509   H     0.96294   0.78119   0.49500   0.00000  Uiso   1.00
H510   H     0.80730   0.85183   0.08841   0.00000  Uiso   1.00
H511   H     0.71875   0.85419   0.41313   0.00000  Uiso   1.00
H512   H     0.75006   0.84883   0.05659   0.00000  Uiso   1.00
H513   H     0.69391   0.86263   0.00777   0.00000  Uiso   1.00
H514   H     0.90838   0.96185   0.20898   0.00000  Uiso   1.00
N515   N     0.71598   0.83332   0.24998   0.00000  Uiso   1.00
N516   N     0.95069   0.83335   0.24999   0.00000  Uiso   1.00
O517   O     0.79375   0.89345   0.25000   0.00000  Uiso   1.00
O518   O     0.87294   0.89346   0.25000   0.00000  Uiso   1.00
O519   O     0.77441   0.83332   0.32549   0.00000  Uiso   1.00
O520   O     0.85360   0.83333   0.32549   0.00000  Uiso   1.00
O521   O     0.79373   0.77321   0.24999   0.00000  Uiso   1.00
O522   O     0.87292   0.77322   0.24999   0.00000  Uiso   1.00
O523   O     0.81306   0.83334   0.17451   0.00000  Uiso   1.00
O524   O     0.89225   0.83335   0.17451   0.00000  Uiso   1.00
F525   F     0.74828   0.71101   0.30489   0.00000  Uiso   1.00
C526   C     0.74181   0.95794   0.31190   0.00000  Uiso   1.00
H527   H     0.75030   0.93419   0.33768   0.00000  Uiso   1.00
H528   H     0.71470   0.97945   0.33743   0.00000  Uiso   1.00
H529   H     0.72410   0.94351   0.28474   0.00000  Uiso   1.00
F530   F     0.73430   0.78556   0.18029   0.00000  Uiso   1.00
F531   F     0.87160   0.77074   0.36840   0.00000  Uiso   1.00
C532   C     0.16601   0.24596   0.75172   0.00000  Uiso   1.00
C533   C     0.14434   0.16062   0.98973   0.00000  Uiso   1.00
C534   C     0.15598   0.14951   0.93619   0.00000  Uiso   1.00
C535   C     0.18049   0.15498   0.51581   0.00000  Uiso   1.00
C536   C     0.22559   0.13510   0.98967   0.00000  Uiso   1.00
C537   C     0.23333   0.11938   0.93956   0.00000  Uiso   1.00
C538   C     0.19855   0.12532   0.91357   0.00000  Uiso   1.00
C539   C     0.17330   0.16860   0.56716   0.00000  Uiso   1.00
C540   C     0.25277   0.14200   0.56655   0.00000  Uiso   1.00
C541   C     0.12413   0.16246   0.90747   0.00000  Uiso   1.00
C542   C     0.20834   0.31173   0.72920   0.00000  Uiso   1.00
C543   C     0.14041   0.16435   0.85005   0.00000  Uiso   1.00
C544   C     0.20892   0.02097   0.72881   0.00000  Uiso   1.00
C545   C     0.16597   0.04295   0.75305   0.00000  Uiso   1.00
C546   C     0.12262   0.02240   0.77965   0.00000  Uiso   1.00
C547   C     0.12168   0.31273   0.78100   0.00000  Uiso   1.00
C548   C     0.16492   0.29069   0.75417   0.00000  Uiso   1.00
C549   C     0.29849   0.18995   0.78519   0.00000  Uiso   1.00
C550   C     0.01471   0.18978   0.78534   0.00000  Uiso   1.00
C551   C     0.03466   0.14307   0.71506   0.00000  Uiso   1.00
C552   C     0.31842   0.14317   0.71507   0.00000  Uiso   1.00
C553   C     0.16651   0.08744   0.75078   0.00000  Uiso   1.00
C554   C     0.19293   0.16608   0.64993   0.00000  Uiso   1.00
C555   C     0.26174   0.12962   0.51481   0.00000  Uiso   1.00
C556   C     0.20782   0.16042   0.59326   0.00000  Uiso   1.00
C557   C     0.07748   0.17834   0.93403   0.00000  Uiso   1.00
C558   C     0.06350   0.18403   0.98765   0.00000  Uiso   1.00
C559   C     0.09670   0.17635   0.51521   0.00000  Uiso   1.00
Cu560  Cu    0.11978   0.16666   0.75000   0.00000  Uiso   1.00
Cu561  Cu    0.21355   0.16667   0.75000   0.00000  Uiso   1.00
H562   H     0.27994   0.13547   0.58627   0.00000  Uiso   1.00
H563   H     0.24261   0.03673   0.70847   0.00000  Uiso   1.00
H564   H     0.27179   0.20866   0.81338   0.00000  Uiso   1.00
H565   H     0.02522   0.20804   0.81390   0.00000  Uiso   1.00
H566   H     0.30759   0.12429   0.68719   0.00000  Uiso   1.00
H567   H     0.26616   0.10165   0.92066   0.00000  Uiso   1.00
H568   H     0.29627   0.11452   0.99500   0.00000  Uiso   1.00
H569   H     0.14063   0.18517   0.58841   0.00000  Uiso   1.00
H570   H     0.05209   0.18753   0.91313   0.00000  Uiso   1.00
H571   H     0.08339   0.18216   0.55659   0.00000  Uiso   1.00
H572   H     0.02724   0.19596   0.50777   0.00000  Uiso   1.00
H573   H     0.24171   0.29519   0.70898   0.00000  Uiso   1.00
N574   N     0.04931   0.16666   0.74998   0.00000  Uiso   1.00
N575   N     0.28402   0.16669   0.74999   0.00000  Uiso   1.00
O576   O     0.12708   0.22678   0.75000   0.00000  Uiso   1.00
O577   O     0.20627   0.22679   0.75000   0.00000  Uiso   1.00
O578   O     0.10775   0.16665   0.82549   0.00000  Uiso   1.00
O579   O     0.18694   0.16666   0.82549   0.00000  Uiso   1.00
O580   O     0.12706   0.10654   0.74999   0.00000  Uiso   1.00
O581   O     0.20625   0.10655   0.74999   0.00000  Uiso   1.00
O582   O     0.14640   0.16667   0.67451   0.00000  Uiso   1.00
O583   O     0.22559   0.16668   0.67451   0.00000  Uiso   1.00
F584   F     0.08162   0.04434   0.80489   0.00000  Uiso   1.00
C585   C     0.07515   0.29127   0.81190   0.00000  Uiso   1.00
H586   H     0.08363   0.26752   0.83768   0.00000  Uiso   1.00
H587   H     0.04804   0.31279   0.83743   0.00000  Uiso   1.00
H588   H     0.05744   0.27684   0.78474   0.00000  Uiso   1.00
F589   F     0.06763   0.11889   0.68029   0.00000  Uiso   1.00
F590   F     0.20494   0.10408   0.86840   0.00000  Uiso   1.00
C591   C     0.49935   0.24596   0.75172   0.00000  Uiso   1.00
C592   C     0.47767   0.16062   0.98973   0.00000  Uiso   1.00
C593   C     0.48932   0.14951   0.93619   0.00000  Uiso   1.00
C594   C     0.51383   0.15498   0.51581   0.00000  Uiso   1.00
C595   C     0.55892   0.13510   0.98967   0.00000  Uiso   1.00
C596   C     0.56666   0.11938   0.93956   0.00000  Uiso   1.00
C597   C     0.53188   0.12532   0.91357   0.00000  Uiso   1.00
C598   C     0.50663   0.16860   0.56716   0.00000  Uiso   1.00
C599   C     0.58611   0.14200   0.56655   0.00000  Uiso   1.00
C600   C     0.45746   0.16246   0.90747   0.00000  Uiso   1.00
C601   C     0.54167   0.31173   0.72920   0.00000  Uiso   1.00
C602   C     0.47374   0.16435   0.85005   0.00000  Uiso   1.00
C603   C     0.54225   0.02097   0.72881   0.00000  Uiso   1.00
C604   C     0.49930   0.04295   0.75305   0.00000  Uiso   1.00
C605   C     0.45595   0.02240   0.77965   0.00000  Uiso   1.00
C606   C     0.45501   0.31273   0.78100   0.00000  Uiso   1.00
C607   C     0.49825   0.29069   0.75417   0.00000  Uiso   1.00
C608   C     0.63183   0.18995   0.78519   0.00000  Uiso   1.00
C609   C     0.34805   0.18978   0.78534   0.00000  Uiso   1.00
C610   C     0.36800   0.14307   0.71506   0.00000  Uiso   1.00
C611   C     0.65175   0.14317   0.71507   0.00000  Uiso   1.00
C612   C     0.49985   0.08744   0.75078   0.00000  Uiso   1.00
C613   C     0.52626   0.16608   0.64993   0.00000  Uiso   1.00
C614   C     0.59507   0.12962   0.51481   0.00000  Uiso   1.00
C615   C     0.54115   0.16042   0.59326   0.00000  Uiso   1.00
C616   C     0.41081   0.17834   0.93403   0.00000  Uiso   1.00
C617   C     0.39683   0.18403   0.98765   0.00000  Uiso   1.00
C618   C     0.43003   0.17635   0.51521   0.00000  Uiso   1.00
Cu619  Cu    0.45311   0.16666   0.75000   0.00000  Uiso   1.00
Cu620  Cu    0.54689   0.16667   0.75000   0.00000  Uiso   1.00
H621   H     0.61327   0.13547   0.58627   0.00000  Uiso   1.00
H622   H     0.57595   0.03673   0.70847   0.00000  Uiso   1.00
H623   H     0.60513   0.20866   0.81338   0.00000  Uiso   1.00
H624   H     0.35855   0.20804   0.81390   0.00000  Uiso   1.00
H625   H     0.64092   0.12429   0.68719   0.00000  Uiso   1.00
H626   H     0.59949   0.10165   0.92066   0.00000  Uiso   1.00
H627   H     0.62961   0.11452   0.99500   0.00000  Uiso   1.00
H628   H     0.47397   0.18517   0.58841   0.00000  Uiso   1.00
H629   H     0.38542   0.18753   0.91313   0.00000  Uiso   1.00
H630   H     0.41672   0.18216   0.55659   0.00000  Uiso   1.00
H631   H     0.36058   0.19596   0.50777   0.00000  Uiso   1.00
H632   H     0.57505   0.29519   0.70898   0.00000  Uiso   1.00
N633   N     0.38265   0.16666   0.74998   0.00000  Uiso   1.00
N634   N     0.61735   0.16669   0.74999   0.00000  Uiso   1.00
O635   O     0.46042   0.22678   0.75000   0.00000  Uiso   1.00
O636   O     0.53961   0.22679   0.75000   0.00000  Uiso   1.00
O637   O     0.44108   0.16665   0.82549   0.00000  Uiso   1.00
O638   O     0.52027   0.16666   0.82549   0.00000  Uiso   1.00
O639   O     0.46039   0.10654   0.74999   0.00000  Uiso   1.00
O640   O     0.53958   0.10655   0.74999   0.00000  Uiso   1.00
O641   O     0.47973   0.16667   0.67451   0.00000  Uiso   1.00
O642   O     0.55892   0.16668   0.67451   0.00000  Uiso   1.00
F643   F     0.41495   0.04434   0.80489   0.00000  Uiso   1.00
C644   C     0.40848   0.29127   0.81190   0.00000  Uiso   1.00
H645   H     0.41696   0.26752   0.83768   0.00000  Uiso   1.00
H646   H     0.38137   0.31279   0.83743   0.00000  Uiso   1.00
H647   H     0.39077   0.27684   0.78474   0.00000  Uiso   1.00
F648   F     0.40096   0.11889   0.68029   0.00000  Uiso   1.00
F649   F     0.53827   0.10408   0.86840   0.00000  Uiso   1.00
C650   C     0.83268   0.24596   0.75172   0.00000  Uiso   1.00
C651   C     0.81100   0.16062   0.98973   0.00000  Uiso   1.00
C652   C     0.82265   0.14951   0.93619   0.00000  Uiso   1.00
C653   C     0.84716   0.15498   0.51581   0.00000  Uiso   1.00
C654   C     0.89226   0.13510   0.98967   0.00000  Uiso   1.00
C655   C     0.90000   0.11938   0.93956   0.00000  Uiso   1.00
C656   C     0.86521   0.12532   0.91357   0.00000  Uiso   1.00
C657   C     0.83996   0.16860   0.56716   0.00000  Uiso   1.00
C658   C     0.91944   0.14200   0.56655   0.00000  Uiso   1.00
C659   C     0.79079   0.16246   0.90747   0.00000  Uiso   1.00
C660   C     0.87501   0.31173   0.72920   0.00000  Uiso   1.00
C661   C     0.80707   0.16435   0.85005   0.00000  Uiso   1.00
C662   C     0.87559   0.02097   0.72881   0.00000  Uiso   1.00
C663   C     0.83264   0.04295   0.75305   0.00000  Uiso   1.00
C664   C     0.78928   0.02240   0.77965   0.00000  Uiso   1.00
C665   C     0.78834   0.31273   0.78100   0.00000  Uiso   1.00
C666   C     0.83159   0.29069   0.75417   0.00000  Uiso   1.00
C667   C     0.96516   0.18995   0.78519   0.00000  Uiso   1.00
C668   C     0.68138   0.18978   0.78534   0.00000  Uiso   1.00
C669   C     0.70133   0.14307   0.71506   0.00000  Uiso   1.00
C670   C     0.98508   0.14317   0.71507   0.00000  Uiso   1.00
C671   C     0.83318   0.08744   0.75078   0.00000  Uiso   1.00
C672   C     0.85959   0.16608   0.64993   0.00000  Uiso   1.00
C673   C     0.92841   0.12962   0.51481   0.00000  Uiso   1.00
C674   C     0.87449   0.16042   0.59326   0.00000  Uiso   1.00
C675   C     0.74415   0.17834   0.93403   0.00000  Uiso   1.00
C676   C     0.73016   0.18403   0.98765   0.00000  Uiso   1.00
C677   C     0.76337   0.17635   0.51521   0.00000  Uiso   1.00
Cu678  Cu    0.78645   0.16666   0.75000   0.00000  Uiso   1.00
Cu679  Cu    0.88022   0.16667   0.75000   0.00000  Uiso   1.00
H680   H     0.94661   0.13547   0.58627   0.00000  Uiso   1.00
H681   H     0.90928   0.03673   0.70847   0.00000  Uiso   1.00
H682   H     0.93846   0.20866   0.81338   0.00000  Uiso   1.00
H683   H     0.69189   0.20804   0.81390   0.00000  Uiso   1.00
H684   H     0.97426   0.12429   0.68719   0.00000  Uiso   1.00
H685   H     0.93282   0.10165   0.92066   0.00000  Uiso   1.00
H686   H     0.96294   0.11452   0.99500   0.00000  Uiso   1.00
H687   H     0.80730   0.18517   0.58841   0.00000  Uiso   1.00
H688   H     0.71875   0.18753   0.91313   0.00000  Uiso   1.00
H689   H     0.75006   0.18216   0.55659   0.00000  Uiso   1.00
H690   H     0.69391   0.19596   0.50777   0.00000  Uiso   1.00
H691   H     0.90838   0.29519   0.70898   0.00000  Uiso   1.00
N692   N     0.71598   0.16666   0.74998   0.00000  Uiso   1.00
N693   N     0.95069   0.16669   0.74999   0.00000  Uiso   1.00
O694   O     0.79375   0.22678   0.75000   0.00000  Uiso   1.00
O695   O     0.87294   0.22679   0.75000   0.00000  Uiso   1.00
O696   O     0.77441   0.16665   0.82549   0.00000  Uiso   1.00
O697   O     0.85360   0.16666   0.82549   0.00000  Uiso   1.00
O698   O     0.79373   0.10654   0.74999   0.00000  Uiso   1.00
O699   O     0.87292   0.10655   0.74999   0.00000  Uiso   1.00
O700   O     0.81306   0.16667   0.67451   0.00000  Uiso   1.00
O701   O     0.89225   0.16668   0.67451   0.00000  Uiso   1.00
F702   F     0.74828   0.04434   0.80489   0.00000  Uiso   1.00
C703   C     0.74181   0.29127   0.81190   0.00000  Uiso   1.00
H704   H     0.75030   0.26752   0.83768   0.00000  Uiso   1.00
H705   H     0.71470   0.31279   0.83743   0.00000  Uiso   1.00
H706   H     0.72410   0.27684   0.78474   0.00000  Uiso   1.00
F707   F     0.73430   0.11889   0.68029   0.00000  Uiso   1.00
F708   F     0.87160   0.10408   0.86840   0.00000  Uiso   1.00
C709   C     0.16601   0.57929   0.75172   0.00000  Uiso   1.00
C710   C     0.14434   0.49396   0.98973   0.00000  Uiso   1.00
C711   C     0.15598   0.48284   0.93619   0.00000  Uiso   1.00
C712   C     0.18049   0.48831   0.51581   0.00000  Uiso   1.00
C713   C     0.22559   0.46843   0.98967   0.00000  Uiso   1.00
C714   C     0.23333   0.45271   0.93956   0.00000  Uiso   1.00
C715   C     0.19855   0.45865   0.91357   0.00000  Uiso   1.00
C716   C     0.17330   0.50194   0.56716   0.00000  Uiso   1.00
C717   C     0.25277   0.47533   0.56655   0.00000  Uiso   1.00
C718   C     0.12413   0.49579   0.90747   0.00000  Uiso   1.00
C719   C     0.20834   0.64507   0.72920   0.00000  Uiso   1.00
C720   C     0.14041   0.49768   0.85005   0.00000  Uiso   1.00
C721   C     0.20892   0.35430   0.72881   0.00000  Uiso   1.00
C722   C     0.16597   0.37628   0.75305   0.00000  Uiso   1.00
C723   C     0.12262   0.35574   0.77965   0.00000  Uiso   1.00
C724   C     0.12168   0.64607   0.78100   0.00000  Uiso   1.00
C725   C     0.16492   0.62403   0.75417   0.00000  Uiso   1.00
C726   C     0.29849   0.52329   0.78519   0.00000  Uiso   1.00
C727   C     0.01471   0.52311   0.78534   0.00000  Uiso   1.00
C728   C     0.03466   0.47640   0.71506   0.00000  Uiso   1.00
C729   C     0.31842   0.47650   0.71507   0.00000  Uiso   1.00
C730   C     0.16651   0.42077   0.75078   0.00000  Uiso   1.00
C731   C     0.19293   0.49941   0.64993   0.00000  Uiso   1.00
C732   C     0.26174   0.46296   0.51481   0.00000  Uiso   1.00
C733   C     0.20782   0.49375   0.59326   0.00000  Uiso   1.00
C734   C     0.07748   0.51167   0.93403   0.00000  Uiso   1.00
C735   C     0.06350   0.51736   0.98765   0.00000  Uiso   1.00
C736   C     0.09670   0.50968   0.51521   0.00000  Uiso   1.00
Cu737  Cu    0.11978   0.49999   0.75000   0.00000  Uiso   1.00
Cu738  Cu    0.21355   0.50001   0.75000   0.00000  Uiso   1.00
H739   H     0.27994   0.46881   0.58627   0.00000  Uiso   1.00
H740   H     0.24261   0.37006   0.70847   0.00000  Uiso   1.00
H741   H     0.27179   0.54200   0.81338   0.00000  Uiso   1.00
H742   H     0.02522   0.54138   0.81390   0.00000  Uiso   1.00
H743   H     0.30759   0.45763   0.68719   0.00000  Uiso   1.00
H744   H     0.26616   0.43498   0.92066   0.00000  Uiso   1.00
H745   H     0.29627   0.44785   0.99500   0.00000  Uiso   1.00
H746   H     0.14063   0.51850   0.58841   0.00000  Uiso   1.00
H747   H     0.05209   0.52086   0.91313   0.00000  Uiso   1.00
H748   H     0.08339   0.51549   0.55659   0.00000  Uiso   1.00
H749   H     0.02724   0.52930   0.50777   0.00000  Uiso   1.00
H750   H     0.24171   0.62852   0.70898   0.00000  Uiso   1.00
N751   N     0.04931   0.49999   0.74998   0.00000  Uiso   1.00
N752   N     0.28402   0.50002   0.74999   0.00000  Uiso   1.00
O753   O     0.12708   0.56011   0.75000   0.00000  Uiso   1.00
O754   O     0.20627   0.56012   0.75000   0.00000  Uiso   1.00
O755   O     0.10775   0.49998   0.82549   0.00000  Uiso   1.00
O756   O     0.18694   0.49999   0.82549   0.00000  Uiso   1.00
O757   O     0.12706   0.43988   0.74999   0.00000  Uiso   1.00
O758   O     0.20625   0.43989   0.74999   0.00000  Uiso   1.00
O759   O     0.14640   0.50001   0.67451   0.00000  Uiso   1.00
O760   O     0.22559   0.50002   0.67451   0.00000  Uiso   1.00
F761   F     0.08162   0.37768   0.80489   0.00000  Uiso   1.00
C762   C     0.07515   0.62461   0.81190   0.00000  Uiso   1.00
H763   H     0.08363   0.60086   0.83768   0.00000  Uiso   1.00
H764   H     0.04804   0.64612   0.83743   0.00000  Uiso   1.00
H765   H     0.05744   0.61018   0.78474   0.00000  Uiso   1.00
F766   F     0.06763   0.45223   0.68029   0.00000  Uiso   1.00
F767   F     0.20494   0.43741   0.86840   0.00000  Uiso   1.00
C768   C     0.49935   0.57929   0.75172   0.00000  Uiso   1.00
C769   C     0.47767   0.49396   0.98973   0.00000  Uiso   1.00
C770   C     0.48932   0.48284   0.93619   0.00000  Uiso   1.00
C771   C     0.51383   0.48831   0.51581   0.00000  Uiso   1.00
C772   C     0.55892   0.46843   0.98967   0.00000  Uiso   1.00
C773   C     0.56666   0.45271   0.93956   0.00000  Uiso   1.00
C774   C     0.53188   0.45865   0.91357   0.00000  Uiso   1.00
C775   C     0.50663   0.50194   0.56716   0.00000  Uiso   1.00
C776   C     0.58611   0.47533   0.56655   0.00000  Uiso   1.00
C777   C     0.45746   0.49579   0.90747   0.00000  Uiso   1.00
C778   C     0.54167   0.64507   0.72920   0.00000  Uiso   1.00
C779   C     0.47374   0.49768   0.85005   0.00000  Uiso   1.00
C780   C     0.54225   0.35430   0.72881   0.00000  Uiso   1.00
C781   C     0.49930   0.37628   0.75305   0.00000  Uiso   1.00
C782   C     0.45595   0.35574   0.77965   0.00000  Uiso   1.00
C783   C     0.45501   0.64607   0.78100   0.00000  Uiso   1.00
C784   C     0.49825   0.62403   0.75417   0.00000  Uiso   1.00
C785   C     0.63183   0.52329   0.78519   0.00000  Uiso   1.00
C786   C     0.34805   0.52311   0.78534   0.00000  Uiso   1.00
C787   C     0.36800   0.47640   0.71506   0.00000  Uiso   1.00
C788   C     0.65175   0.47650   0.71507   0.00000  Uiso   1.00
C789   C     0.49985   0.42077   0.75078   0.00000  Uiso   1.00
C790   C     0.52626   0.49941   0.64993   0.00000  Uiso   1.00
C791   C     0.59507   0.46296   0.51481   0.00000  Uiso   1.00
C792   C     0.54115   0.49375   0.59326   0.00000  Uiso   1.00
C793   C     0.41081   0.51167   0.93403   0.00000  Uiso   1.00
C794   C     0.39683   0.51736   0.98765   0.00000  Uiso   1.00
C795   C     0.43003   0.50968   0.51521   0.00000  Uiso   1.00
Cu796  Cu    0.45311   0.49999   0.75000   0.00000  Uiso   1.00
Cu797  Cu    0.54689   0.50001   0.75000   0.00000  Uiso   1.00
H798   H     0.61327   0.46881   0.58627   0.00000  Uiso   1.00
H799   H     0.57595   0.37006   0.70847   0.00000  Uiso   1.00
H800   H     0.60513   0.54200   0.81338   0.00000  Uiso   1.00
H801   H     0.35855   0.54138   0.81390   0.00000  Uiso   1.00
H802   H     0.64092   0.45763   0.68719   0.00000  Uiso   1.00
H803   H     0.59949   0.43498   0.92066   0.00000  Uiso   1.00
H804   H     0.62961   0.44785   0.99500   0.00000  Uiso   1.00
H805   H     0.47397   0.51850   0.58841   0.00000  Uiso   1.00
H806   H     0.38542   0.52086   0.91313   0.00000  Uiso   1.00
H807   H     0.41672   0.51549   0.55659   0.00000  Uiso   1.00
H808   H     0.36058   0.52930   0.50777   0.00000  Uiso   1.00
H809   H     0.57505   0.62852   0.70898   0.00000  Uiso   1.00
N810   N     0.38265   0.49999   0.74998   0.00000  Uiso   1.00
N811   N     0.61735   0.50002   0.74999   0.00000  Uiso   1.00
O812   O     0.46042   0.56011   0.75000   0.00000  Uiso   1.00
O813   O     0.53961   0.56012   0.75000   0.00000  Uiso   1.00
O814   O     0.44108   0.49998   0.82549   0.00000  Uiso   1.00
O815   O     0.52027   0.49999   0.82549   0.00000  Uiso   1.00
O816   O     0.46039   0.43988   0.74999   0.00000  Uiso   1.00
O817   O     0.53958   0.43989   0.74999   0.00000  Uiso   1.00
O818   O     0.47973   0.50001   0.67451   0.00000  Uiso   1.00
O819   O     0.55892   0.50002   0.67451   0.00000  Uiso   1.00
F820   F     0.41495   0.37768   0.80489   0.00000  Uiso   1.00
C821   C     0.40848   0.62461   0.81190   0.00000  Uiso   1.00
H822   H     0.41696   0.60086   0.83768   0.00000  Uiso   1.00
H823   H     0.38137   0.64612   0.83743   0.00000  Uiso   1.00
H824   H     0.39077   0.61018   0.78474   0.00000  Uiso   1.00
F825   F     0.40096   0.45223   0.68029   0.00000  Uiso   1.00
F826   F     0.53827   0.43741   0.86840   0.00000  Uiso   1.00
C827   C     0.83268   0.57929   0.75172   0.00000  Uiso   1.00
C828   C     0.81100   0.49396   0.98973   0.00000  Uiso   1.00
C829   C     0.82265   0.48284   0.93619   0.00000  Uiso   1.00
C830   C     0.84716   0.48831   0.51581   0.00000  Uiso   1.00
C831   C     0.89226   0.46843   0.98967   0.00000  Uiso   1.00
C832   C     0.90000   0.45271   0.93956   0.00000  Uiso   1.00
C833   C     0.86521   0.45865   0.91357   0.00000  Uiso   1.00
C834   C     0.83996   0.50194   0.56716   0.00000  Uiso   1.00
C835   C     0.91944   0.47533   0.56655   0.00000  Uiso   1.00
C836   C     0.79079   0.49579   0.90747   0.00000  Uiso   1.00
C837   C     0.87501   0.64507   0.72920   0.00000  Uiso   1.00
C838   C     0.80707   0.49768   0.85005   0.00000  Uiso   1.00
C839   C     0.87559   0.35430   0.72881   0.00000  Uiso   1.00
C840   C     0.83264   0.37628   0.75305   0.00000  Uiso   1.00
C841   C     0.78928   0.35574   0.77965   0.00000  Uiso   1.00
C842   C     0.78834   0.64607   0.78100   0.00000  Uiso   1.00
C843   C     0.83159   0.62403   0.75417   0.00000  Uiso   1.00
C844   C     0.96516   0.52329   0.78519   0.00000  Uiso   1.00
C845   C     0.68138   0.52311   0.78534   0.00000  Uiso   1.00
C846   C     0.70133   0.47640   0.71506   0.00000  Uiso   1.00
C847   C     0.98508   0.47650   0.71507   0.00000  Uiso   1.00
C848   C     0.83318   0.42077   0.75078   0.00000  Uiso   1.00
C849   C     0.85959   0.49941   0.64993   0.00000  Uiso   1.00
C850   C     0.92841   0.46296   0.51481   0.00000  Uiso   1.00
C851   C     0.87449   0.49375   0.59326   0.00000  Uiso   1.00
C852   C     0.74415   0.51167   0.93403   0.00000  Uiso   1.00
C853   C     0.73016   0.51736   0.98765   0.00000  Uiso   1.00
C854   C     0.76337   0.50968   0.51521   0.00000  Uiso   1.00
Cu855  Cu    0.78645   0.49999   0.75000   0.00000  Uiso   1.00
Cu856  Cu    0.88022   0.50001   0.75000   0.00000  Uiso   1.00
H857   H     0.94661   0.46881   0.58627   0.00000  Uiso   1.00
H858   H     0.90928   0.37006   0.70847   0.00000  Uiso   1.00
H859   H     0.93846   0.54200   0.81338   0.00000  Uiso   1.00
H860   H     0.69189   0.54138   0.81390   0.00000  Uiso   1.00
H861   H     0.97426   0.45763   0.68719   0.00000  Uiso   1.00
H862   H     0.93282   0.43498   0.92066   0.00000  Uiso   1.00
H863   H     0.96294   0.44785   0.99500   0.00000  Uiso   1.00
H864   H     0.80730   0.51850   0.58841   0.00000  Uiso   1.00
H865   H     0.71875   0.52086   0.91313   0.00000  Uiso   1.00
H866   H     0.75006   0.51549   0.55659   0.00000  Uiso   1.00
H867   H     0.69391   0.52930   0.50777   0.00000  Uiso   1.00
H868   H     0.90838   0.62852   0.70898   0.00000  Uiso   1.00
N869   N     0.71598   0.49999   0.74998   0.00000  Uiso   1.00
N870   N     0.95069   0.50002   0.74999   0.00000  Uiso   1.00
O871   O     0.79375   0.56011   0.75000   0.00000  Uiso   1.00
O872   O     0.87294   0.56012   0.75000   0.00000  Uiso   1.00
O873   O     0.77441   0.49998   0.82549   0.00000  Uiso   1.00
O874   O     0.85360   0.49999   0.82549   0.00000  Uiso   1.00
O875   O     0.79373   0.43988   0.74999   0.00000  Uiso   1.00
O876   O     0.87292   0.43989   0.74999   0.00000  Uiso   1.00
O877   O     0.81306   0.50001   0.67451   0.00000  Uiso   1.00
O878   O     0.89225   0.50002   0.67451   0.00000  Uiso   1.00
F879   F     0.74828   0.37768   0.80489   0.00000  Uiso   1.00
C880   C     0.74181   0.62461   0.81190   0.00000  Uiso   1.00
H881   H     0.75030   0.60086   0.83768   0.00000  Uiso   1.00
H882   H     0.71470   0.64612   0.83743   0.00000  Uiso   1.00
H883   H     0.72410   0.61018   0.78474   0.00000  Uiso   1.00
F884   F     0.73430   0.45223   0.68029   0.00000  Uiso   1.00
F885   F     0.87160   0.43741   0.86840   0.00000  Uiso   1.00
C886   C     0.16601   0.91262   0.75172   0.00000  Uiso   1.00
C887   C     0.14434   0.82729   0.98973   0.00000  Uiso   1.00
C888   C     0.15598   0.81617   0.93619   0.00000  Uiso   1.00
C889   C     0.18049   0.82164   0.51581   0.00000  Uiso   1.00
C890   C     0.22559   0.80177   0.98967   0.00000  Uiso   1.00
C891   C     0.23333   0.78605   0.93956   0.00000  Uiso   1.00
C892   C     0.19855   0.79199   0.91357   0.00000  Uiso   1.00
C893   C     0.17330   0.83527   0.56716   0.00000  Uiso   1.00
C894   C     0.25277   0.80866   0.56655   0.00000  Uiso   1.00
C895   C     0.12413   0.82912   0.90747   0.00000  Uiso   1.00
C896   C     0.20834   0.97840   0.72920   0.00000  Uiso   1.00
C897   C     0.14041   0.83101   0.85005   0.00000  Uiso   1.00
C898   C     0.20892   0.68763   0.72881   0.00000  Uiso   1.00
C899   C     0.16597   0.70961   0.75305   0.00000  Uiso   1.00
C900   C     0.12262   0.68907   0.77965   0.00000  Uiso   1.00
C901   C     0.12168   0.97940   0.78100   0.00000  Uiso   1.00
C902   C     0.16492   0.95736   0.75417   0.00000  Uiso   1.00
C903   C     0.29849   0.85662   0.78519   0.00000  Uiso   1.00
C904   C     0.01471   0.85645   0.78534   0.00000  Uiso   1.00
C905   C     0.03466   0.80974   0.71506   0.00000  Uiso   1.00
C906   C     0.31842   0.80983   0.71507   0.00000  Uiso   1.00
C907   C     0.16651   0.75410   0.75078   0.00000  Uiso   1.00
C908   C     0.19293   0.83275   0.64993   0.00000  Uiso   1.00
C909   C     0.26174   0.79629   0.51481   0.00000  Uiso   1.00
C910   C     0.20782   0.82709   0.59326   0.00000  Uiso   1.00
C911   C     0.07748   0.84500   0.93403   0.00000  Uiso   1.00
C912   C     0.06350   0.85069   0.98765   0.00000  Uiso   1.00
C913   C     0.09670   0.84302   0.51521   0.00000  Uiso   1.00
Cu914  Cu    0.11978   0.83333   0.75000   0.00000  Uiso   1.00
Cu915  Cu    0.21355   0.83334   0.75000   0.00000  Uiso   1.00
H916   H     0.27994   0.80214   0.58627   0.00000  Uiso   1.00
H917   H     0.24261   0.70339   0.70847   0.00000  Uiso   1.00
H918   H     0.27179   0.87533   0.81338   0.00000  Uiso   1.00
H919   H     0.02522   0.87471   0.81390   0.00000  Uiso   1.00
H920   H     0.30759   0.79096   0.68719   0.00000  Uiso   1.00
H921   H     0.26616   0.76832   0.92066   0.00000  Uiso   1.00
H922   H     0.29627   0.78119   0.99500   0.00000  Uiso   1.00
H923   H     0.14063   0.85183   0.58841   0.00000  Uiso   1.00
H924   H     0.05209   0.85419   0.91313   0.00000  Uiso   1.00
H925   H     0.08339   0.84883   0.55659   0.00000  Uiso   1.00
H926   H     0.02724   0.86263   0.50777   0.00000  Uiso   1.00
H927   H     0.24171   0.96185   0.70898   0.00000  Uiso   1.00
N928   N     0.04931   0.83332   0.74998   0.00000  Uiso   1.00
N929   N     0.28402   0.83335   0.74999   0.00000  Uiso   1.00
O930   O     0.12708   0.89345   0.75000   0.00000  Uiso   1.00
O931   O     0.20627   0.89346   0.75000   0.00000  Uiso   1.00
O932   O     0.10775   0.83332   0.82549   0.00000  Uiso   1.00
O933   O     0.18694   0.83333   0.82549   0.00000  Uiso   1.00
O934   O     0.12706   0.77321   0.74999   0.00000  Uiso   1.00
O935   O     0.20625   0.77322   0.74999   0.00000  Uiso   1.00
O936   O     0.14640   0.83334   0.67451   0.00000  Uiso   1.00
O937   O     0.22559   0.83335   0.67451   0.00000  Uiso   1.00
F938   F     0.08162   0.71101   0.80489   0.00000  Uiso   1.00
C939   C     0.07515   0.95794   0.81190   0.00000  Uiso   1.00
H940   H     0.08363   0.93419   0.83768   0.00000  Uiso   1.00
H941   H     0.04804   0.97945   0.83743   0.00000  Uiso   1.00
H942   H     0.05744   0.94351   0.78474   0.00000  Uiso   1.00
F943   F     0.06763   0.78556   0.68029   0.00000  Uiso   1.00
F944   F     0.20494   0.77074   0.86840   0.00000  Uiso   1.00
C945   C     0.49935   0.91262   0.75172   0.00000  Uiso   1.00
C946   C     0.47767   0.82729   0.98973   0.00000  Uiso   1.00
C947   C     0.48932   0.81617   0.93619   0.00000  Uiso   1.00
C948   C     0.51383   0.82164   0.51581   0.00000  Uiso   1.00
C949   C     0.55892   0.80177   0.98967   0.00000  Uiso   1.00
C950   C     0.56666   0.78605   0.93956   0.00000  Uiso   1.00
C951   C     0.53188   0.79199   0.91357   0.00000  Uiso   1.00
C952   C     0.50663   0.83527   0.56716   0.00000  Uiso   1.00
C953   C     0.58611   0.80866   0.56655   0.00000  Uiso   1.00
C954   C     0.45746   0.82912   0.90747   0.00000  Uiso   1.00
C955   C     0.54167   0.97840   0.72920   0.00000  Uiso   1.00
C956   C     0.47374   0.83101   0.85005   0.00000  Uiso   1.00
C957   C     0.54225   0.68763   0.72881   0.00000  Uiso   1.00
C958   C     0.49930   0.70961   0.75305   0.00000  Uiso   1.00
C959   C     0.45595   0.68907   0.77965   0.00000  Uiso   1.00
C960   C     0.45501   0.97940   0.78100   0.00000  Uiso   1.00
C961   C     0.49825   0.95736   0.75417   0.00000  Uiso   1.00
C962   C     0.63183   0.85662   0.78519   0.00000  Uiso   1.00
C963   C     0.34805   0.85645   0.78534   0.00000  Uiso   1.00
C964   C     0.36800   0.80974   0.71506   0.00000  Uiso   1.00
C965   C     0.65175   0.80983   0.71507   0.00000  Uiso   1.00
C966   C     0.49985   0.75410   0.75078   0.00000  Uiso   1.00
C967   C     0.52626   0.83275   0.64993   0.00000  Uiso   1.00
C968   C     0.59507   0.79629   0.51481   0.00000  Uiso   1.00
C969   C     0.54115   0.82709   0.59326   0.00000  Uiso   1.00
C970   C     0.41081   0.84500   0.93403   0.00000  Uiso   1.00
C971   C     0.39683   0.85069   0.98765   0.00000  Uiso   1.00
C972   C     0.43003   0.84302   0.51521   0.00000  Uiso   1.00
Cu973  Cu    0.45311   0.83333   0.75000   0.00000  Uiso   1.00
Cu974  Cu    0.54689   0.83334   0.75000   0.00000  Uiso   1.00
H975   H     0.61327   0.80214   0.58627   0.00000  Uiso   1.00
H976   H     0.57595   0.70339   0.70847   0.00000  Uiso   1.00
H977   H     0.60513   0.87533   0.81338   0.00000  Uiso   1.00
H978   H     0.35855   0.87471   0.81390   0.00000  Uiso   1.00
H979   H     0.64092   0.79096   0.68719   0.00000  Uiso   1.00
H980   H     0.59949   0.76832   0.92066   0.00000  Uiso   1.00
H981   H     0.62961   0.78119   0.99500   0.00000  Uiso   1.00
H982   H     0.47397   0.85183   0.58841   0.00000  Uiso   1.00
H983   H     0.38542   0.85419   0.91313   0.00000  Uiso   1.00
H984   H     0.41672   0.84883   0.55659   0.00000  Uiso   1.00
H985   H     0.36058   0.86263   0.50777   0.00000  Uiso   1.00
H986   H     0.57505   0.96185   0.70898   0.00000  Uiso   1.00
N987   N     0.38265   0.83332   0.74998   0.00000  Uiso   1.00
N988   N     0.61735   0.83335   0.74999   0.00000  Uiso   1.00
O989   O     0.46042   0.89345   0.75000   0.00000  Uiso   1.00
O990   O     0.53961   0.89346   0.75000   0.00000  Uiso   1.00
O991   O     0.44108   0.83332   0.82549   0.00000  Uiso   1.00
O992   O     0.52027   0.83333   0.82549   0.00000  Uiso   1.00
O993   O     0.46039   0.77321   0.74999   0.00000  Uiso   1.00
O994   O     0.53958   0.77322   0.74999   0.00000  Uiso   1.00
O995   O     0.47973   0.83334   0.67451   0.00000  Uiso   1.00
O996   O     0.55892   0.83335   0.67451   0.00000  Uiso   1.00
F997   F     0.41495   0.71101   0.80489   0.00000  Uiso   1.00
C998   C     0.40848   0.95794   0.81190   0.00000  Uiso   1.00
H999   H     0.41696   0.93419   0.83768   0.00000  Uiso   1.00
H1000  H     0.38137   0.97945   0.83743   0.00000  Uiso   1.00
H1001  H     0.39077   0.94351   0.78474   0.00000  Uiso   1.00
F1002  F     0.40096   0.78556   0.68029   0.00000  Uiso   1.00
F1003  F     0.53827   0.77074   0.86840   0.00000  Uiso   1.00
C1004  C     0.83268   0.91262   0.75172   0.00000  Uiso   1.00
C1005  C     0.81100   0.82729   0.98973   0.00000  Uiso   1.00
C1006  C     0.82265   0.81617   0.93619   0.00000  Uiso   1.00
C1007  C     0.84716   0.82164   0.51581   0.00000  Uiso   1.00
C1008  C     0.89226   0.80177   0.98967   0.00000  Uiso   1.00
C1009  C     0.90000   0.78605   0.93956   0.00000  Uiso   1.00
C1010  C     0.86521   0.79199   0.91357   0.00000  Uiso   1.00
C1011  C     0.83996   0.83527   0.56716   0.00000  Uiso   1.00
C1012  C     0.91944   0.80866   0.56655   0.00000  Uiso   1.00
C1013  C     0.79079   0.82912   0.90747   0.00000  Uiso   1.00
C1014  C     0.87501   0.97840   0.72920   0.00000  Uiso   1.00
C1015  C     0.80707   0.83101   0.85005   0.00000  Uiso   1.00
C1016  C     0.87559   0.68763   0.72881   0.00000  Uiso   1.00
C1017  C     0.83264   0.70961   0.75305   0.00000  Uiso   1.00
C1018  C     0.78928   0.68907   0.77965   0.00000  Uiso   1.00
C1019  C     0.78834   0.97940   0.78100   0.00000  Uiso   1.00
C1020  C     0.83159   0.95736   0.75417   0.00000  Uiso   1.00
C1021  C     0.96516   0.85662   0.78519   0.00000  Uiso   1.00
C1022  C     0.68138   0.85645   0.78534   0.00000  Uiso   1.00
C1023  C     0.70133   0.80974   0.71506   0.00000  Uiso   1.00
C1024  C     0.98508   0.80983   0.71507   0.00000  Uiso   1.00
C1025  C     0.83318   0.75410   0.75078   0.00000  Uiso   1.00
C1026  C     0.85959   0.83275   0.64993   0.00000  Uiso   1.00
C1027  C     0.92841   0.79629   0.51481   0.00000  Uiso   1.00
C1028  C     0.87449   0.82709   0.59326   0.00000  Uiso   1.00
C1029  C     0.74415   0.84500   0.93403   0.00000  Uiso   1.00
C1030  C     0.73016   0.85069   0.98765   0.00000  Uiso   1.00
C1031  C     0.76337   0.84302   0.51521   0.00000  Uiso   1.00
Cu1032 Cu    0.78645   0.83333   0.75000   0.00000  Uiso   1.00
Cu1033 Cu    0.88022   0.83334   0.75000   0.00000  Uiso   1.00
H1034  H     0.94661   0.80214   0.58627   0.00000  Uiso   1.00
H1035  H     0.90928   0.70339   0.70847   0.00000  Uiso   1.00
H1036  H     0.93846   0.87533   0.81338   0.00000  Uiso   1.00
H1037  H     0.69189   0.87471   0.81390   0.00000  Uiso   1.00
H1038  H     0.97426   0.79096   0.68719   0.00000  Uiso   1.00
H1039  H     0.93282   0.76832   0.92066   0.00000  Uiso   1.00
H1040  H     0.96294   0.78119   0.99500   0.00000  Uiso   1.00
H1041  H     0.80730   0.85183   0.58841   0.00000  Uiso   1.00
H1042  H     0.71875   0.85419   0.91313   0.00000  Uiso   1.00
H1043  H     0.75006   0.84883   0.55659   0.00000  Uiso   1.00
H1044  H     0.69391   0.86263   0.50777   0.00000  Uiso   1.00
H1045  H     0.90838   0.96185   0.70898   0.00000  Uiso   1.00
N1046  N     0.71598   0.83332   0.74998   0.00000  Uiso   1.00
N1047  N     0.95069   0.83335   0.74999   0.00000  Uiso   1.00
O1048  O     0.79375   0.89345   0.75000   0.00000  Uiso   1.00
O1049  O     0.87294   0.89346   0.75000   0.00000  Uiso   1.00
O1050  O     0.77441   0.83332   0.82549   0.00000  Uiso   1.00
O1051  O     0.85360   0.83333   0.82549   0.00000  Uiso   1.00
O1052  O     0.79373   0.77321   0.74999   0.00000  Uiso   1.00
O1053  O     0.87292   0.77322   0.74999   0.00000  Uiso   1.00
O1054  O     0.81306   0.83334   0.67451   0.00000  Uiso   1.00
O1055  O     0.89225   0.83335   0.67451   0.00000  Uiso   1.00
F1056  F     0.74828   0.71101   0.80489   0.00000  Uiso   1.00
C1057  C     0.74181   0.95794   0.81190   0.00000  Uiso   1.00
H1058  H     0.75030   0.93419   0.83768   0.00000  Uiso   1.00
H1059  H     0.71470   0.97945   0.83743   0.00000  Uiso   1.00
H1060  H     0.72410   0.94351   0.78474   0.00000  Uiso   1.00
F1061  F     0.73430   0.78556   0.68029   0.00000  Uiso   1.00
F1062  F     0.87160   0.77074   0.86840   0.00000  Uiso   1.00
loop_
_geom_bond_atom_site_label_1
_geom_bond_atom_site_label_2
_geom_bond_distance
_geom_bond_site_symmetry_2
_ccdc_geom_bond_type
C1     C17     1.453   .     S
C1     O45     1.289   .     A
C1     O46     1.293   .     A
C2     C3      1.420   .     A
C2     C535    1.423   .     S
C2     C559    1.418   .     S
C3     C10     1.421   .     A
C3     C7      1.417   .     A
C4     C8      1.402   .     A
C4     C533    1.423   1_554 S
C4     C536    1.419   1_554 S
C5     C6      1.392   .     A
C5     C535    1.419   .     S
C5     C555    1.404   .     S
C6     H36     1.084   .     S
C6     C7      1.388   .     A
C7     F59     1.357   .     S
C8     C25     1.396   .     A
C8     H38     1.076   .     S
C9     C24     1.393   .     A
C9     C25     1.399   .     A
C9     H31     1.083   .     S
C10    C26     1.403   .     A
C10    C12     1.472   .     S
C11    H42     1.084   .     S
C11    C17     1.401   .     A
C11    C190    1.382   .     S
C12    O48     1.296   .     A
C12    O47     1.296   .     A
C13    H32     1.084   .     S
C13    C14     1.395   .     A
C13    C365    1.382   1_545 S
C14    C22     1.445   .     S
C14    C15     1.401   .     A
C15    F53     1.360   .     S
C15    C370    1.396   1_545 S
C16    C54     1.512   .     S
C16    C17     1.418   .     A
C16    C192    1.396   .     S
C18    N44     1.367   .     A
C18    H33     1.082   .     S
C18    C78     1.416   .     S
C19    N43     1.366   .     A
C19    H34     1.081   .     S
C19    C136    1.416   1_455 S
C20    F58     1.355   .     S
C20    N43     1.370   .     A
C20    C139    1.416   1_455 S
C21    H35     1.082   .     S
C21    N44     1.365   .     A
C21    C79     1.416   .     S
C22    O50     1.290   .     A
C22    O49     1.290   .     A
C23    O52     1.295   .     A
C23    C25     1.463   .     S
C23    O51     1.294   .     A
C24    C536    1.404   1_554 S
C24    H568    1.084   1_554 S
C26    C27     1.385   .     A
C26    H39     1.083   .     S
C27    C559    1.389   .     S
C27    H572    1.083   .     S
C28    H40     1.077   .     S
C28    C558    1.389   1_554 S
C28    C533    1.418   1_554 S
Cu29   O49     1.961   .     S
Cu29   N43     2.012   .     S
Cu29   Cu30    2.678   .     S
Cu29   O47     1.952   .     S
Cu29   O51     1.939   .     S
Cu29   O45     1.963   .     S
Cu30   N44     2.012   .     S
Cu30   O48     1.939   .     S
Cu30   O50     1.963   .     S
Cu30   O52     1.952   .     S
Cu30   O46     1.961   .     S
H37    C555    1.084   .     S
H41    C558    1.083   1_554 S
C54    H56     1.110   .     S
C54    H55     1.111   .     S
C54    H57     1.109   .     S
C60    C76     1.453   .     S
C60    O104    1.289   .     A
C60    O105    1.293   .     A
C61    C62     1.420   .     A
C61    C594    1.423   .     S
C61    C618    1.418   .     S
C62    C69     1.421   .     A
C62    C66     1.417   .     A
C63    C67     1.402   .     A
C63    C592    1.423   1_554 S
C63    C595    1.419   1_554 S
C64    C65     1.392   .     A
C64    C594    1.419   .     S
C64    C614    1.404   .     S
C65    H95     1.084   .     S
C65    C66     1.388   .     A
C66    F118    1.357   .     S
C67    C84     1.396   .     A
C67    H97     1.076   .     S
C68    C83     1.393   .     A
C68    C84     1.399   .     A
C68    H90     1.083   .     S
C69    C85     1.403   .     A
C69    C71     1.472   .     S
C70    H101    1.084   .     S
C70    C76     1.401   .     A
C70    C249    1.382   .     S
C71    O107    1.296   .     A
C71    O106    1.296   .     A
C72    H91     1.084   .     S
C72    C73     1.395   .     A
C72    C424    1.382   1_545 S
C73    C81     1.445   .     S
C73    C74     1.401   .     A
C74    F112    1.360   .     S
C74    C429    1.396   1_545 S
C75    C113    1.512   .     S
C75    C76     1.418   .     A
C75    C251    1.396   .     S
C77    N103    1.367   .     A
C77    H92     1.082   .     S
C77    C137    1.416   .     S
C78    N102    1.366   .     A
C78    H93     1.081   .     S
C79    F117    1.355   .     S
C79    N102    1.370   .     A
C80    H94     1.082   .     S
C80    N103    1.365   .     A
C80    C138    1.416   .     S
C81    O109    1.290   .     A
C81    O108    1.290   .     A
C82    O111    1.295   .     A
C82    C84     1.463   .     S
C82    O110    1.294   .     A
C83    C595    1.404   1_554 S
C83    H627    1.084   1_554 S
C85    C86     1.385   .     A
C85    H98     1.083   .     S
C86    C618    1.389   .     S
C86    H631    1.083   .     S
C87    H99     1.077   .     S
C87    C617    1.389   1_554 S
C87    C592    1.418   1_554 S
Cu88   O108    1.961   .     S
Cu88   N102    2.012   .     S
Cu88   Cu89    2.678   .     S
Cu88   O106    1.952   .     S
Cu88   O110    1.939   .     S
Cu88   O104    1.963   .     S
Cu89   N103    2.012   .     S
Cu89   O107    1.939   .     S
Cu89   O109    1.963   .     S
Cu89   O111    1.952   .     S
Cu89   O105    1.961   .     S
H96    C614    1.084   .     S
H100   C617    1.083   1_554 S
C113   H115    1.110   .     S
C113   H114    1.111   .     S
C113   H116    1.109   .     S
C119   C135    1.453   .     S
C119   O163    1.289   .     A
C119   O164    1.293   .     A
C120   C121    1.420   .     A
C120   C653    1.423   .     S
C120   C677    1.418   .     S
C121   C128    1.421   .     A
C121   C125    1.417   .     A
C122   C126    1.402   .     A
C122   C651    1.423   1_554 S
C122   C654    1.419   1_554 S
C123   C124    1.392   .     A
C123   C653    1.419   .     S
C123   C673    1.404   .     S
C124   H154    1.084   .     S
C124   C125    1.388   .     A
C125   F177    1.357   .     S
C126   C143    1.396   .     A
C126   H156    1.076   .     S
C127   C142    1.393   .     A
C127   C143    1.399   .     A
C127   H149    1.083   .     S
C128   C144    1.403   .     A
C128   C130    1.472   .     S
C129   H160    1.084   .     S
C129   C135    1.401   .     A
C129   C308    1.382   .     S
C130   O166    1.296   .     A
C130   O165    1.296   .     A
C131   H150    1.084   .     S
C131   C132    1.395   .     A
C131   C483    1.382   1_545 S
C132   C140    1.445   .     S
C132   C133    1.401   .     A
C133   F171    1.360   .     S
C133   C488    1.396   1_545 S
C134   C172    1.512   .     S
C134   C135    1.418   .     A
C134   C310    1.396   .     S
C136   N162    1.367   .     A
C136   H151    1.082   .     S
C136   C19     1.416   1_655 S
C137   N161    1.366   .     A
C137   H152    1.081   .     S
C138   F176    1.355   .     S
C138   N161    1.370   .     A
C139   H153    1.082   .     S
C139   N162    1.365   .     A
C139   C20     1.416   1_655 S
C140   O168    1.290   .     A
C140   O167    1.290   .     A
C141   O170    1.295   .     A
C141   C143    1.463   .     S
C141   O169    1.294   .     A
C142   C654    1.404   1_554 S
C142   H686    1.084   1_554 S
C144   C145    1.385   .     A
C144   H157    1.083   .     S
C145   C677    1.389   .     S
C145   H690    1.083   .     S
C146   H158    1.077   .     S
C146   C676    1.389   1_554 S
C146   C651    1.418   1_554 S
Cu147  O167    1.961   .     S
Cu147  N161    2.012   .     S
Cu147  Cu148   2.678   .     S
Cu147  O165    1.952   .     S
Cu147  O169    1.939   .     S
Cu147  O163    1.963   .     S
Cu148  N162    2.012   .     S
Cu148  O166    1.939   .     S
Cu148  O168    1.963   .     S
Cu148  O170    1.952   .     S
Cu148  O164    1.961   .     S
H155   C673    1.084   .     S
H159   C676    1.083   1_554 S
C172   H174    1.110   .     S
C172   H173    1.111   .     S
C172   H175    1.109   .     S
C178   C194    1.453   .     S
C178   O222    1.289   .     A
C178   O223    1.293   .     A
C179   C180    1.420   .     A
C179   C712    1.423   .     S
C179   C736    1.418   .     S
C180   C187    1.421   .     A
C180   C184    1.417   .     A
C181   C185    1.402   .     A
C181   C710    1.423   1_554 S
C181   C713    1.419   1_554 S
C182   C183    1.392   .     A
C182   C712    1.419   .     S
C182   C732    1.404   .     S
C183   H213    1.084   .     S
C183   C184    1.388   .     A
C184   F236    1.357   .     S
C185   C202    1.396   .     A
C185   H215    1.076   .     S
C186   C201    1.393   .     A
C186   C202    1.399   .     A
C186   H208    1.083   .     S
C187   C203    1.403   .     A
C187   C189    1.472   .     S
C188   H219    1.084   .     S
C188   C194    1.401   .     A
C188   C367    1.382   .     S
C189   O225    1.296   .     A
C189   O224    1.296   .     A
C190   H209    1.084   .     S
C190   C191    1.395   .     A
C191   C199    1.445   .     S
C191   C192    1.401   .     A
C192   F230    1.360   .     S
C193   C231    1.512   .     S
C193   C194    1.418   .     A
C193   C369    1.396   .     S
C195   N221    1.367   .     A
C195   H210    1.082   .     S
C195   C255    1.416   .     S
C196   N220    1.366   .     A
C196   H211    1.081   .     S
C196   C313    1.416   1_455 S
C197   F235    1.355   .     S
C197   N220    1.370   .     A
C197   C316    1.416   1_455 S
C198   H212    1.082   .     S
C198   N221    1.365   .     A
C198   C256    1.416   .     S
C199   O227    1.290   .     A
C199   O226    1.290   .     A
C200   O229    1.295   .     A
C200   C202    1.463   .     S
C200   O228    1.294   .     A
C201   C713    1.404   1_554 S
C201   H745    1.084   1_554 S
C203   C204    1.385   .     A
C203   H216    1.083   .     S
C204   C736    1.389   .     S
C204   H749    1.083   .     S
C205   H217    1.077   .     S
C205   C735    1.389   1_554 S
C205   C710    1.418   1_554 S
Cu206  O226    1.961   .     S
Cu206  N220    2.012   .     S
Cu206  Cu207   2.678   .     S
Cu206  O224    1.952   .     S
Cu206  O228    1.939   .     S
Cu206  O222    1.963   .     S
Cu207  N221    2.012   .     S
Cu207  O225    1.939   .     S
Cu207  O227    1.963   .     S
Cu207  O229    1.952   .     S
Cu207  O223    1.961   .     S
H214   C732    1.084   .     S
H218   C735    1.083   1_554 S
C231   H233    1.110   .     S
C231   H232    1.111   .     S
C231   H234    1.109   .     S
C237   C253    1.453   .     S
C237   O281    1.289   .     A
C237   O282    1.293   .     A
C238   C239    1.420   .     A
C238   C771    1.423   .     S
C238   C795    1.418   .     S
C239   C246    1.421   .     A
C239   C243    1.417   .     A
C240   C244    1.402   .     A
C240   C769    1.423   1_554 S
C240   C772    1.419   1_554 S
C241   C242    1.392   .     A
C241   C771    1.419   .     S
C241   C791    1.404   .     S
C242   H272    1.084   .     S
C242   C243    1.388   .     A
C243   F295    1.357   .     S
C244   C261    1.396   .     A
C244   H274    1.076   .     S
C245   C260    1.393   .     A
C245   C261    1.399   .     A
C245   H267    1.083   .     S
C246   C262    1.403   .     A
C246   C248    1.472   .     S
C247   H278    1.084   .     S
C247   C253    1.401   .     A
C247   C426    1.382   .     S
C248   O284    1.296   .     A
C248   O283    1.296   .     A
C249   H268    1.084   .     S
C249   C250    1.395   .     A
C250   C258    1.445   .     S
C250   C251    1.401   .     A
C251   F289    1.360   .     S
C252   C290    1.512   .     S
C252   C253    1.418   .     A
C252   C428    1.396   .     S
C254   N280    1.367   .     A
C254   H269    1.082   .     S
C254   C314    1.416   .     S
C255   N279    1.366   .     A
C255   H270    1.081   .     S
C256   F294    1.355   .     S
C256   N279    1.370   .     A
C257   H271    1.082   .     S
C257   N280    1.365   .     A
C257   C315    1.416   .     S
C258   O286    1.290   .     A
C258   O285    1.290   .     A
C259   O288    1.295   .     A
C259   C261    1.463   .     S
C259   O287    1.294   .     A
C260   C772    1.404   1_554 S
C260   H804    1.084   1_554 S
C262   C263    1.385   .     A
C262   H275    1.083   .     S
C263   C795    1.389   .     S
C263   H808    1.083   .     S
C264   H276    1.077   .     S
C264   C794    1.389   1_554 S
C264   C769    1.418   1_554 S
Cu265  O285    1.961   .     S
Cu265  N279    2.012   .     S
Cu265  Cu266   2.678   .     S
Cu265  O283    1.952   .     S
Cu265  O287    1.939   .     S
Cu265  O281    1.963   .     S
Cu266  N280    2.012   .     S
Cu266  O284    1.939   .     S
Cu266  O286    1.963   .     S
Cu266  O288    1.952   .     S
Cu266  O282    1.961   .     S
H273   C791    1.084   .     S
H277   C794    1.083   1_554 S
C290   H292    1.110   .     S
C290   H291    1.111   .     S
C290   H293    1.109   .     S
C296   C312    1.453   .     S
C296   O340    1.289   .     A
C296   O341    1.293   .     A
C297   C298    1.420   .     A
C297   C830    1.423   .     S
C297   C854    1.418   .     S
C298   C305    1.421   .     A
C298   C302    1.417   .     A
C299   C303    1.402   .     A
C299   C828    1.423   1_554 S
C299   C831    1.419   1_554 S
C300   C301    1.392   .     A
C300   C830    1.419   .     S
C300   C850    1.404   .     S
C301   H331    1.084   .     S
C301   C302    1.388   .     A
C302   F354    1.357   .     S
C303   C320    1.396   .     A
C303   H333    1.076   .     S
C304   C319    1.393   .     A
C304   C320    1.399   .     A
C304   H326    1.083   .     S
C305   C321    1.403   .     A
C305   C307    1.472   .     S
C306   H337    1.084   .     S
C306   C312    1.401   .     A
C306   C485    1.382   .     S
C307   O343    1.296   .     A
C307   O342    1.296   .     A
C308   H327    1.084   .     S
C308   C309    1.395   .     A
C309   C317    1.445   .     S
C309   C310    1.401   .     A
C310   F348    1.360   .     S
C311   C349    1.512   .     S
C311   C312    1.418   .     A
C311   C487    1.396   .     S
C313   N339    1.367   .     A
C313   H328    1.082   .     S
C313   C196    1.416   1_655 S
C314   N338    1.366   .     A
C314   H329    1.081   .     S
C315   F353    1.355   .     S
C315   N338    1.370   .     A
C316   H330    1.082   .     S
C316   N339    1.365   .     A
C316   C197    1.416   1_655 S
C317   O345    1.290   .     A
C317   O344    1.290   .     A
C318   O347    1.295   .     A
C318   C320    1.463   .     S
C318   O346    1.294   .     A
C319   C831    1.404   1_554 S
C319   H863    1.084   1_554 S
C321   C322    1.385   .     A
C321   H334    1.083   .     S
C322   C854    1.389   .     S
C322   H867    1.083   .     S
C323   H335    1.077   .     S
C323   C853    1.389   1_554 S
C323   C828    1.418   1_554 S
Cu324  O344    1.961   .     S
Cu324  N338    2.012   .     S
Cu324  Cu325   2.678   .     S
Cu324  O342    1.952   .     S
Cu324  O346    1.939   .     S
Cu324  O340    1.963   .     S
Cu325  N339    2.012   .     S
Cu325  O343    1.939   .     S
Cu325  O345    1.963   .     S
Cu325  O347    1.952   .     S
Cu325  O341    1.961   .     S
H332   C850    1.084   .     S
H336   C853    1.083   1_554 S
C349   H351    1.110   .     S
C349   H350    1.111   .     S
C349   H352    1.109   .     S
C355   C371    1.453   .     S
C355   O399    1.289   .     A
C355   O400    1.293   .     A
C356   C357    1.420   .     A
C356   C889    1.423   .     S
C356   C913    1.418   .     S
C357   C364    1.421   .     A
C357   C361    1.417   .     A
C358   C362    1.402   .     A
C358   C887    1.423   1_554 S
C358   C890    1.419   1_554 S
C359   C360    1.392   .     A
C359   C889    1.419   .     S
C359   C909    1.404   .     S
C360   H390    1.084   .     S
C360   C361    1.388   .     A
C361   F413    1.357   .     S
C362   C379    1.396   .     A
C362   H392    1.076   .     S
C363   C378    1.393   .     A
C363   C379    1.399   .     A
C363   H385    1.083   .     S
C364   C380    1.403   .     A
C364   C366    1.472   .     S
C365   H396    1.084   .     S
C365   C371    1.401   .     A
C365   C13     1.382   1_565 S
C366   O402    1.296   .     A
C366   O401    1.296   .     A
C367   H386    1.084   .     S
C367   C368    1.395   .     A
C368   C376    1.445   .     S
C368   C369    1.401   .     A
C369   F407    1.360   .     S
C370   C408    1.512   .     S
C370   C371    1.418   .     A
C370   C15     1.396   1_565 S
C372   N398    1.367   .     A
C372   H387    1.082   .     S
C372   C432    1.416   .     S
C373   N397    1.366   .     A
C373   H388    1.081   .     S
C373   C490    1.416   1_455 S
C374   F412    1.355   .     S
C374   N397    1.370   .     A
C374   C493    1.416   1_455 S
C375   H389    1.082   .     S
C375   N398    1.365   .     A
C375   C433    1.416   .     S
C376   O404    1.290   .     A
C376   O403    1.290   .     A
C377   O406    1.295   .     A
C377   C379    1.463   .     S
C377   O405    1.294   .     A
C378   C890    1.404   1_554 S
C378   H922    1.084   1_554 S
C380   C381    1.385   .     A
C380   H393    1.083   .     S
C381   C913    1.389   .     S
C381   H926    1.083   .     S
C382   H394    1.077   .     S
C382   C912    1.389   1_554 S
C382   C887    1.418   1_554 S
Cu383  O403    1.961   .     S
Cu383  N397    2.012   .     S
Cu383  Cu384   2.678   .     S
Cu383  O401    1.952   .     S
Cu383  O405    1.939   .     S
Cu383  O399    1.963   .     S
Cu384  N398    2.012   .     S
Cu384  O402    1.939   .     S
Cu384  O404    1.963   .     S
Cu384  O406    1.952   .     S
Cu384  O400    1.961   .     S
H391   C909    1.084   .     S
H395   C912    1.083   1_554 S
C408   H410    1.110   .     S
C408   H409    1.111   .     S
C408   H411    1.109   .     S
C414   C430    1.453   .     S
C414   O458    1.289   .     A
C414   O459    1.293   .     A
C415   C416    1.420   .     A
C415   C948    1.423   .     S
C415   C972    1.418   .     S
C416   C423    1.421   .     A
C416   C420    1.417   .     A
C417   C421    1.402   .     A
C417   C946    1.423   1_554 S
C417   C949    1.419   1_554 S
C418   C419    1.392   .     A
C418   C948    1.419   .     S
C418   C968    1.404   .     S
C419   H449    1.084   .     S
C419   C420    1.388   .     A
C420   F472    1.357   .     S
C421   C438    1.396   .     A
C421   H451    1.076   .     S
C422   C437    1.393   .     A
C422   C438    1.399   .     A
C422   H444    1.083   .     S
C423   C439    1.403   .     A
C423   C425    1.472   .     S
C424   H455    1.084   .     S
C424   C430    1.401   .     A
C424   C72     1.382   1_565 S
C425   O461    1.296   .     A
C425   O460    1.296   .     A
C426   H445    1.084   .     S
C426   C427    1.395   .     A
C427   C435    1.445   .     S
C427   C428    1.401   .     A
C428   F466    1.360   .     S
C429   C467    1.512   .     S
C429   C430    1.418   .     A
C429   C74     1.396   1_565 S
C431   N457    1.367   .     A
C431   H446    1.082   .     S
C431   C491    1.416   .     S
C432   N456    1.366   .     A
C432   H447    1.081   .     S
C433   F471    1.355   .     S
C433   N456    1.370   .     A
C434   H448    1.082   .     S
C434   N457    1.365   .     A
C434   C492    1.416   .     S
C435   O463    1.290   .     A
C435   O462    1.290   .     A
C436   O465    1.295   .     A
C436   C438    1.463   .     S
C436   O464    1.294   .     A
C437   C949    1.404   1_554 S
C437   H981    1.084   1_554 S
C439   C440    1.385   .     A
C439   H452    1.083   .     S
C440   C972    1.389   .     S
C440   H985    1.083   .     S
C441   H453    1.077   .     S
C441   C971    1.389   1_554 S
C441   C946    1.418   1_554 S
Cu442  O462    1.961   .     S
Cu442  N456    2.012   .     S
Cu442  Cu443   2.678   .     S
Cu442  O460    1.952   .     S
Cu442  O464    1.939   .     S
Cu442  O458    1.963   .     S
Cu443  N457    2.012   .     S
Cu443  O461    1.939   .     S
Cu443  O463    1.963   .     S
Cu443  O465    1.952   .     S
Cu443  O459    1.961   .     S
H450   C968    1.084   .     S
H454   C971    1.083   1_554 S
C467   H469    1.110   .     S
C467   H468    1.111   .     S
C467   H470    1.109   .     S
C473   C489    1.453   .     S
C473   O517    1.289   .     A
C473   O518    1.293   .     A
C474   C475    1.420   .     A
C474   C1007   1.423   .     S
C474   C1031   1.418   .     S
C475   C482    1.421   .     A
C475   C479    1.417   .     A
C476   C480    1.402   .     A
C476   C1005   1.423   1_554 S
C476   C1008   1.419   1_554 S
C477   C478    1.392   .     A
C477   C1007   1.419   .     S
C477   C1027   1.404   .     S
C478   H508    1.084   .     S
C478   C479    1.388   .     A
C479   F531    1.357   .     S
C480   C497    1.396   .     A
C480   H510    1.076   .     S
C481   C496    1.393   .     A
C481   C497    1.399   .     A
C481   H503    1.083   .     S
C482   C498    1.403   .     A
C482   C484    1.472   .     S
C483   H514    1.084   .     S
C483   C489    1.401   .     A
C483   C131    1.382   1_565 S
C484   O520    1.296   .     A
C484   O519    1.296   .     A
C485   H504    1.084   .     S
C485   C486    1.395   .     A
C486   C494    1.445   .     S
C486   C487    1.401   .     A
C487   F525    1.360   .     S
C488   C526    1.512   .     S
C488   C489    1.418   .     A
C488   C133    1.396   1_565 S
C490   N516    1.367   .     A
C490   H505    1.082   .     S
C490   C373    1.416   1_655 S
C491   N515    1.366   .     A
C491   H506    1.081   .     S
C492   F530    1.355   .     S
C492   N515    1.370   .     A
C493   H507    1.082   .     S
C493   N516    1.365   .     A
C493   C374    1.416   1_655 S
C494   O522    1.290   .     A
C494   O521    1.290   .     A
C495   O524    1.295   .     A
C495   C497    1.463   .     S
C495   O523    1.294   .     A
C496   C1008   1.404   1_554 S
C496   H1040   1.084   1_554 S
C498   C499    1.385   .     A
C498   H511    1.083   .     S
C499   C1031   1.389   .     S
C499   H1044   1.083   .     S
C500   H512    1.077   .     S
C500   C1030   1.389   1_554 S
C500   C1005   1.418   1_554 S
Cu501  O521    1.961   .     S
Cu501  N515    2.012   .     S
Cu501  Cu502   2.678   .     S
Cu501  O519    1.952   .     S
Cu501  O523    1.939   .     S
Cu501  O517    1.963   .     S
Cu502  N516    2.012   .     S
Cu502  O520    1.939   .     S
Cu502  O522    1.963   .     S
Cu502  O524    1.952   .     S
Cu502  O518    1.961   .     S
H509   C1027   1.084   .     S
H513   C1030   1.083   1_554 S
C526   H528    1.110   .     S
C526   H527    1.111   .     S
C526   H529    1.109   .     S
C532   C548    1.453   .     S
C532   O576    1.289   .     A
C532   O577    1.293   .     A
C533   C534    1.420   .     A
C533   C4      1.423   1_556 S
C533   C28     1.418   1_556 S
C534   C541    1.421   .     A
C534   C538    1.417   .     A
C535   C539    1.402   .     A
C536   C537    1.392   .     A
C536   C4      1.419   1_556 S
C536   C24     1.404   1_556 S
C537   H567    1.084   .     S
C537   C538    1.388   .     A
C538   F590    1.357   .     S
C539   C556    1.396   .     A
C539   H569    1.076   .     S
C540   C555    1.393   .     A
C540   C556    1.399   .     A
C540   H562    1.083   .     S
C541   C557    1.403   .     A
C541   C543    1.472   .     S
C542   H573    1.084   .     S
C542   C548    1.401   .     A
C542   C721    1.382   .     S
C543   O579    1.296   .     A
C543   O578    1.296   .     A
C544   H563    1.084   .     S
C544   C545    1.395   .     A
C544   C896    1.382   1_545 S
C545   C553    1.445   .     S
C545   C546    1.401   .     A
C546   F584    1.360   .     S
C546   C901    1.396   1_545 S
C547   C585    1.512   .     S
C547   C548    1.418   .     A
C547   C723    1.396   .     S
C549   N575    1.367   .     A
C549   H564    1.082   .     S
C549   C609    1.416   .     S
C550   N574    1.366   .     A
C550   H565    1.081   .     S
C550   C667    1.416   1_455 S
C551   F589    1.355   .     S
C551   N574    1.370   .     A
C551   C670    1.416   1_455 S
C552   H566    1.082   .     S
C552   N575    1.365   .     A
C552   C610    1.416   .     S
C553   O581    1.290   .     A
C553   O580    1.290   .     A
C554   O583    1.295   .     A
C554   C556    1.463   .     S
C554   O582    1.294   .     A
C557   C558    1.385   .     A
C557   H570    1.083   .     S
C558   C28     1.389   1_556 S
C558   H41     1.083   1_556 S
C559   H571    1.077   .     S
Cu560  O580    1.961   .     S
Cu560  N574    2.012   .     S
Cu560  Cu561   2.678   .     S
Cu560  O578    1.952   .     S
Cu560  O582    1.939   .     S
Cu560  O576    1.963   .     S
Cu561  N575    2.012   .     S
Cu561  O579    1.939   .     S
Cu561  O581    1.963   .     S
Cu561  O583    1.952   .     S
Cu561  O577    1.961   .     S
H568   C24     1.084   1_556 S
C585   H587    1.110   .     S
C585   H586    1.111   .     S
C585   H588    1.109   .     S
C591   C607    1.453   .     S
C591   O635    1.289   .     A
C591   O636    1.293   .     A
C592   C593    1.420   .     A
C592   C63     1.423   1_556 S
C592   C87     1.418   1_556 S
C593   C600    1.421   .     A
C593   C597    1.417   .     A
C594   C598    1.402   .     A
C595   C596    1.392   .     A
C595   C63     1.419   1_556 S
C595   C83     1.404   1_556 S
C596   H626    1.084   .     S
C596   C597    1.388   .     A
C597   F649    1.357   .     S
C598   C615    1.396   .     A
C598   H628    1.076   .     S
C599   C614    1.393   .     A
C599   C615    1.399   .     A
C599   H621    1.083   .     S
C600   C616    1.403   .     A
C600   C602    1.472   .     S
C601   H632    1.084   .     S
C601   C607    1.401   .     A
C601   C780    1.382   .     S
C602   O638    1.296   .     A
C602   O637    1.296   .     A
C603   H622    1.084   .     S
C603   C604    1.395   .     A
C603   C955    1.382   1_545 S
C604   C612    1.445   .     S
C604   C605    1.401   .     A
C605   F643    1.360   .     S
C605   C960    1.396   1_545 S
C606   C644    1.512   .     S
C606   C607    1.418   .     A
C606   C782    1.396   .     S
C608   N634    1.367   .     A
C608   H623    1.082   .     S
C608   C668    1.416   .     S
C609   N633    1.366   .     A
C609   H624    1.081   .     S
C610   F648    1.355   .     S
C610   N633    1.370   .     A
C611   H625    1.082   .     S
C611   N634    1.365   .     A
C611   C669    1.416   .     S
C612   O640    1.290   .     A
C612   O639    1.290   .     A
C613   O642    1.295   .     A
C613   C615    1.463   .     S
C613   O641    1.294   .     A
C616   C617    1.385   .     A
C616   H629    1.083   .     S
C617   C87     1.389   1_556 S
C617   H100    1.083   1_556 S
C618   H630    1.077   .     S
Cu619  O639    1.961   .     S
Cu619  N633    2.012   .     S
Cu619  Cu620   2.678   .     S
Cu619  O637    1.952   .     S
Cu619  O641    1.939   .     S
Cu619  O635    1.963   .     S
Cu620  N634    2.012   .     S
Cu620  O638    1.939   .     S
Cu620  O640    1.963   .     S
Cu620  O642    1.952   .     S
Cu620  O636    1.961   .     S
H627   C83     1.084   1_556 S
C644   H646    1.110   .     S
C644   H645    1.111   .     S
C644   H647    1.109   .     S
C650   C666    1.453   .     S
C650   O694    1.289   .     A
C650   O695    1.293   .     A
C651   C652    1.420   .     A
C651   C122    1.423   1_556 S
C651   C146    1.418   1_556 S
C652   C659    1.421   .     A
C652   C656    1.417   .     A
C653   C657    1.402   .     A
C654   C655    1.392   .     A
C654   C122    1.419   1_556 S
C654   C142    1.404   1_556 S
C655   H685    1.084   .     S
C655   C656    1.388   .     A
C656   F708    1.357   .     S
C657   C674    1.396   .     A
C657   H687    1.076   .     S
C658   C673    1.393   .     A
C658   C674    1.399   .     A
C658   H680    1.083   .     S
C659   C675    1.403   .     A
C659   C661    1.472   .     S
C660   H691    1.084   .     S
C660   C666    1.401   .     A
C660   C839    1.382   .     S
C661   O697    1.296   .     A
C661   O696    1.296   .     A
C662   H681    1.084   .     S
C662   C663    1.395   .     A
C662   C1014   1.382   1_545 S
C663   C671    1.445   .     S
C663   C664    1.401   .     A
C664   F702    1.360   .     S
C664   C1019   1.396   1_545 S
C665   C703    1.512   .     S
C665   C666    1.418   .     A
C665   C841    1.396   .     S
C667   N693    1.367   .     A
C667   H682    1.082   .     S
C667   C550    1.416   1_655 S
C668   N692    1.366   .     A
C668   H683    1.081   .     S
C669   F707    1.355   .     S
C669   N692    1.370   .     A
C670   H684    1.082   .     S
C670   N693    1.365   .     A
C670   C551    1.416   1_655 S
C671   O699    1.290   .     A
C671   O698    1.290   .     A
C672   O701    1.295   .     A
C672   C674    1.463   .     S
C672   O700    1.294   .     A
C675   C676    1.385   .     A
C675   H688    1.083   .     S
C676   C146    1.389   1_556 S
C676   H159    1.083   1_556 S
C677   H689    1.077   .     S
Cu678  O698    1.961   .     S
Cu678  N692    2.012   .     S
Cu678  Cu679   2.678   .     S
Cu678  O696    1.952   .     S
Cu678  O700    1.939   .     S
Cu678  O694    1.963   .     S
Cu679  N693    2.012   .     S
Cu679  O697    1.939   .     S
Cu679  O699    1.963   .     S
Cu679  O701    1.952   .     S
Cu679  O695    1.961   .     S
H686   C142    1.084   1_556 S
C703   H705    1.110   .     S
C703   H704    1.111   .     S
C703   H706    1.109   .     S
C709   C725    1.453   .     S
C709   O753    1.289   .     A
C709   O754    1.293   .     A
C710   C711    1.420   .     A
C710   C181    1.423   1_556 S
C710   C205    1.418   1_556 S
C711   C718    1.421   .     A
C711   C715    1.417   .     A
C712   C716    1.402   .     A
C713   C714    1.392   .     A
C713   C181    1.419   1_556 S
C713   C201    1.404   1_556 S
C714   H744    1.084   .     S
C714   C715    1.388   .     A
C715   F767    1.357   .     S
C716   C733    1.396   .     A
C716   H746    1.076   .     S
C717   C732    1.393   .     A
C717   C733    1.399   .     A
C717   H739    1.083   .     S
C718   C734    1.403   .     A
C718   C720    1.472   .     S
C719   H750    1.084   .     S
C719   C725    1.401   .     A
C719   C898    1.382   .     S
C720   O756    1.296   .     A
C720   O755    1.296   .     A
C721   H740    1.084   .     S
C721   C722    1.395   .     A
C722   C730    1.445   .     S
C722   C723    1.401   .     A
C723   F761    1.360   .     S
C724   C762    1.512   .     S
C724   C725    1.418   .     A
C724   C900    1.396   .     S
C726   N752    1.367   .     A
C726   H741    1.082   .     S
C726   C786    1.416   .     S
C727   N751    1.366   .     A
C727   H742    1.081   .     S
C727   C844    1.416   1_455 S
C728   F766    1.355   .     S
C728   N751    1.370   .     A
C728   C847    1.416   1_455 S
C729   H743    1.082   .     S
C729   N752    1.365   .     A
C729   C787    1.416   .     S
C730   O758    1.290   .     A
C730   O757    1.290   .     A
C731   O760    1.295   .     A
C731   C733    1.463   .     S
C731   O759    1.294   .     A
C734   C735    1.385   .     A
C734   H747    1.083   .     S
C735   C205    1.389   1_556 S
C735   H218    1.083   1_556 S
C736   H748    1.077   .     S
Cu737  O757    1.961   .     S
Cu737  N751    2.012   .     S
Cu737  Cu738   2.678   .     S
Cu737  O755    1.952   .     S
Cu737  O759    1.939   .     S
Cu737  O753    1.963   .     S
Cu738  N752    2.012   .     S
Cu738  O756    1.939   .     S
Cu738  O758    1.963   .     S
Cu738  O760    1.952   .     S
Cu738  O754    1.961   .     S
H745   C201    1.084   1_556 S
C762   H764    1.110   .     S
C762   H763    1.111   .     S
C762   H765    1.109   .     S
C768   C784    1.453   .     S
C768   O812    1.289   .     A
C768   O813    1.293   .     A
C769   C770    1.420   .     A
C769   C240    1.423   1_556 S
C769   C264    1.418   1_556 S
C770   C777    1.421   .     A
C770   C774    1.417   .     A
C771   C775    1.402   .     A
C772   C773    1.392   .     A
C772   C240    1.419   1_556 S
C772   C260    1.404   1_556 S
C773   H803    1.084   .     S
C773   C774    1.388   .     A
C774   F826    1.357   .     S
C775   C792    1.396   .     A
C775   H805    1.076   .     S
C776   C791    1.393   .     A
C776   C792    1.399   .     A
C776   H798    1.083   .     S
C777   C793    1.403   .     A
C777   C779    1.472   .     S
C778   H809    1.084   .     S
C778   C784    1.401   .     A
C778   C957    1.382   .     S
C779   O815    1.296   .     A
C779   O814    1.296   .     A
C780   H799    1.084   .     S
C780   C781    1.395   .     A
C781   C789    1.445   .     S
C781   C782    1.401   .     A
C782   F820    1.360   .     S
C783   C821    1.512   .     S
C783   C784    1.418   .     A
C783   C959    1.396   .     S
C785   N811    1.367   .     A
C785   H800    1.082   .     S
C785   C845    1.416   .     S
C786   N810    1.366   .     A
C786   H801    1.081   .     S
C787   F825    1.355   .     S
C787   N810    1.370   .     A
C788   H802    1.082   .     S
C788   N811    1.365   .     A
C788   C846    1.416   .     S
C789   O817    1.290   .     A
C789   O816    1.290   .     A
C790   O819    1.295   .     A
C790   C792    1.463   .     S
C790   O818    1.294   .     A
C793   C794    1.385   .     A
C793   H806    1.083   .     S
C794   C264    1.389   1_556 S
C794   H277    1.083   1_556 S
C795   H807    1.077   .     S
Cu796  O816    1.961   .     S
Cu796  N810    2.012   .     S
Cu796  Cu797   2.678   .     S
Cu796  O814    1.952   .     S
Cu796  O818    1.939   .     S
Cu796  O812    1.963   .     S
Cu797  N811    2.012   .     S
Cu797  O815    1.939   .     S
Cu797  O817    1.963   .     S
Cu797  O819    1.952   .     S
Cu797  O813    1.961   .     S
H804   C260    1.084   1_556 S
C821   H823    1.110   .     S
C821   H822    1.111   .     S
C821   H824    1.109   .     S
C827   C843    1.453   .     S
C827   O871    1.289   .     A
C827   O872    1.293   .     A
C828   C829    1.420   .     A
C828   C299    1.423   1_556 S
C828   C323    1.418   1_556 S
C829   C836    1.421   .     A
C829   C833    1.417   .     A
C830   C834    1.402   .     A
C831   C832    1.392   .     A
C831   C299    1.419   1_556 S
C831   C319    1.404   1_556 S
C832   H862    1.084   .     S
C832   C833    1.388   .     A
C833   F885    1.357   .     S
C834   C851    1.396   .     A
C834   H864    1.076   .     S
C835   C850    1.393   .     A
C835   C851    1.399   .     A
C835   H857    1.083   .     S
C836   C852    1.403   .     A
C836   C838    1.472   .     S
C837   H868    1.084   .     S
C837   C843    1.401   .     A
C837   C1016   1.382   .     S
C838   O874    1.296   .     A
C838   O873    1.296   .     A
C839   H858    1.084   .     S
C839   C840    1.395   .     A
C840   C848    1.445   .     S
C840   C841    1.401   .     A
C841   F879    1.360   .     S
C842   C880    1.512   .     S
C842   C843    1.418   .     A
C842   C1018   1.396   .     S
C844   N870    1.367   .     A
C844   H859    1.082   .     S
C844   C727    1.416   1_655 S
C845   N869    1.366   .     A
C845   H860    1.081   .     S
C846   F884    1.355   .     S
C846   N869    1.370   .     A
C847   H861    1.082   .     S
C847   N870    1.365   .     A
C847   C728    1.416   1_655 S
C848   O876    1.290   .     A
C848   O875    1.290   .     A
C849   O878    1.295   .     A
C849   C851    1.463   .     S
C849   O877    1.294   .     A
C852   C853    1.385   .     A
C852   H865    1.083   .     S
C853   C323    1.389   1_556 S
C853   H336    1.083   1_556 S
C854   H866    1.077   .     S
Cu855  O875    1.961   .     S
Cu855  N869    2.012   .     S
Cu855  Cu856   2.678   .     S
Cu855  O873    1.952   .     S
Cu855  O877    1.939   .     S
Cu855  O871    1.963   .     S
Cu856  N870    2.012   .     S
Cu856  O874    1.939   .     S
Cu856  O876    1.963   .     S
Cu856  O878    1.952   .     S
Cu856  O872    1.961   .     S
H863   C319    1.084   1_556 S
C880   H882    1.110   .     S
C880   H881    1.111   .     S
C880   H883    1.109   .     S
C886   C902    1.453   .     S
C886   O930    1.289   .     A
C886   O931    1.293   .     A
C887   C888    1.420   .     A
C887   C358    1.423   1_556 S
C887   C382    1.418   1_556 S
C888   C895    1.421   .     A
C888   C892    1.417   .     A
C889   C893    1.402   .     A
C890   C891    1.392   .     A
C890   C358    1.419   1_556 S
C890   C378    1.404   1_556 S
C891   H921    1.084   .     S
C891   C892    1.388   .     A
C892   F944    1.357   .     S
C893   C910    1.396   .     A
C893   H923    1.076   .     S
C894   C909    1.393   .     A
C894   C910    1.399   .     A
C894   H916    1.083   .     S
C895   C911    1.403   .     A
C895   C897    1.472   .     S
C896   H927    1.084   .     S
C896   C902    1.401   .     A
C896   C544    1.382   1_565 S
C897   O933    1.296   .     A
C897   O932    1.296   .     A
C898   H917    1.084   .     S
C898   C899    1.395   .     A
C899   C907    1.445   .     S
C899   C900    1.401   .     A
C900   F938    1.360   .     S
C901   C939    1.512   .     S
C901   C902    1.418   .     A
C901   C546    1.396   1_565 S
C903   N929    1.367   .     A
C903   H918    1.082   .     S
C903   C963    1.416   .     S
C904   N928    1.366   .     A
C904   H919    1.081   .     S
C904   C1021   1.416   1_455 S
C905   F943    1.355   .     S
C905   N928    1.370   .     A
C905   C1024   1.416   1_455 S
C906   H920    1.082   .     S
C906   N929    1.365   .     A
C906   C964    1.416   .     S
C907   O935    1.290   .     A
C907   O934    1.290   .     A
C908   O937    1.295   .     A
C908   C910    1.463   .     S
C908   O936    1.294   .     A
C911   C912    1.385   .     A
C911   H924    1.083   .     S
C912   C382    1.389   1_556 S
C912   H395    1.083   1_556 S
C913   H925    1.077   .     S
Cu914  O934    1.961   .     S
Cu914  N928    2.012   .     S
Cu914  Cu915   2.678   .     S
Cu914  O932    1.952   .     S
Cu914  O936    1.939   .     S
Cu914  O930    1.963   .     S
Cu915  N929    2.012   .     S
Cu915  O933    1.939   .     S
Cu915  O935    1.963   .     S
Cu915  O937    1.952   .     S
Cu915  O931    1.961   .     S
H922   C378    1.084   1_556 S
C939   H941    1.110   .     S
C939   H940    1.111   .     S
C939   H942    1.109   .     S
C945   C961    1.453   .     S
C945   O989    1.289   .     A
C945   O990    1.293   .     A
C946   C947    1.420   .     A
C946   C417    1.423   1_556 S
C946   C441    1.418   1_556 S
C947   C954    1.421   .     A
C947   C951    1.417   .     A
C948   C952    1.402   .     A
C949   C950    1.392   .     A
C949   C417    1.419   1_556 S
C949   C437    1.404   1_556 S
C950   H980    1.084   .     S
C950   C951    1.388   .     A
C951   F1003   1.357   .     S
C952   C969    1.396   .     A
C952   H982    1.076   .     S
C953   C968    1.393   .     A
C953   C969    1.399   .     A
C953   H975    1.083   .     S
C954   C970    1.403   .     A
C954   C956    1.472   .     S
C955   H986    1.084   .     S
C955   C961    1.401   .     A
C955   C603    1.382   1_565 S
C956   O992    1.296   .     A
C956   O991    1.296   .     A
C957   H976    1.084   .     S
C957   C958    1.395   .     A
C958   C966    1.445   .     S
C958   C959    1.401   .     A
C959   F997    1.360   .     S
C960   C998    1.512   .     S
C960   C961    1.418   .     A
C960   C605    1.396   1_565 S
C962   N988    1.367   .     A
C962   H977    1.082   .     S
C962   C1022   1.416   .     S
C963   N987    1.366   .     A
C963   H978    1.081   .     S
C964   F1002   1.355   .     S
C964   N987    1.370   .     A
C965   H979    1.082   .     S
C965   N988    1.365   .     A
C965   C1023   1.416   .     S
C966   O994    1.290   .     A
C966   O993    1.290   .     A
C967   O996    1.295   .     A
C967   C969    1.463   .     S
C967   O995    1.294   .     A
C970   C971    1.385   .     A
C970   H983    1.083   .     S
C971   C441    1.389   1_556 S
C971   H454    1.083   1_556 S
C972   H984    1.077   .     S
Cu973  O993    1.961   .     S
Cu973  N987    2.012   .     S
Cu973  Cu974   2.678   .     S
Cu973  O991    1.952   .     S
Cu973  O995    1.939   .     S
Cu973  O989    1.963   .     S
Cu974  N988    2.012   .     S
Cu974  O992    1.939   .     S
Cu974  O994    1.963   .     S
Cu974  O996    1.952   .     S
Cu974  O990    1.961   .     S
H981   C437    1.084   1_556 S
C998   H1000   1.110   .     S
C998   H999    1.111   .     S
C998   H1001   1.109   .     S
C1004  C1020   1.453   .     S
C1004  O1048   1.289   .     A
C1004  O1049   1.293   .     A
C1005  C1006   1.420   .     A
C1005  C476    1.423   1_556 S
C1005  C500    1.418   1_556 S
C1006  C1013   1.421   .     A
C1006  C1010   1.417   .     A
C1007  C1011   1.402   .     A
C1008  C1009   1.392   .     A
C1008  C476    1.419   1_556 S
C1008  C496    1.404   1_556 S
C1009  H1039   1.084   .     S
C1009  C1010   1.388   .     A
C1010  F1062   1.357   .     S
C1011  C1028   1.396   .     A
C1011  H1041   1.076   .     S
C1012  C1027   1.393   .     A
C1012  C1028   1.399   .     A
C1012  H1034   1.083   .     S
C1013  C1029   1.403   .     A
C1013  C1015   1.472   .     S
C1014  H1045   1.084   .     S
C1014  C1020   1.401   .     A
C1014  C662    1.382   1_565 S
C1015  O1051   1.296   .     A
C1015  O1050   1.296   .     A
C1016  H1035   1.084   .     S
C1016  C1017   1.395   .     A
C1017  C1025   1.445   .     S
C1017  C1018   1.401   .     A
C1018  F1056   1.360   .     S
C1019  C1057   1.512   .     S
C1019  C1020   1.418   .     A
C1019  C664    1.396   1_565 S
C1021  N1047   1.367   .     A
C1021  H1036   1.082   .     S
C1021  C904    1.416   1_655 S
C1022  N1046   1.366   .     A
C1022  H1037   1.081   .     S
C1023  F1061   1.355   .     S
C1023  N1046   1.370   .     A
C1024  H1038   1.082   .     S
C1024  N1047   1.365   .     A
C1024  C905    1.416   1_655 S
C1025  O1053   1.290   .     A
C1025  O1052   1.290   .     A
C1026  O1055   1.295   .     A
C1026  C1028   1.463   .     S
C1026  O1054   1.294   .     A
C1029  C1030   1.385   .     A
C1029  H1042   1.083   .     S
C1030  C500    1.389   1_556 S
C1030  H513    1.083   1_556 S
C1031  H1043   1.077   .     S
Cu1032 O1052   1.961   .     S
Cu1032 N1046   2.012   .     S
Cu1032 Cu1033  2.678   .     S
Cu1032 O1050   1.952   .     S
Cu1032 O1054   1.939   .     S
Cu1032 O1048   1.963   .     S
Cu1033 N1047   2.012   .     S
Cu1033 O1051   1.939   .     S
Cu1033 O1053   1.963   .     S
Cu1033 O1055   1.952   .     S
Cu1033 O1049   1.961   .     S
H1040  C496    1.084   1_556 S
C1057  H1059   1.110   .     S
C1057  H1058   1.111   .     S
C1057  H1060   1.109   .     S
