data_str_m1_o10_o18_pcu_sym.86
_audit_creation_date              2020-01-03
_audit_creation_method            'Materials Studio'
_symmetry_space_group_name_H-M    'P1'
_symmetry_Int_Tables_number       1
_symmetry_cell_setting            triclinic
loop_
_symmetry_equiv_pos_as_xyz
  x,y,z
_cell_length_a                    32.6931
_cell_length_b                    32.6031
_cell_length_c                    35.5626
_cell_angle_alpha                 98.7750
_cell_angle_beta                  72.7194
_cell_angle_gamma                 98.6401
loop_
_atom_site_label
_atom_site_type_symbol
_atom_site_fract_x
_atom_site_fract_y
_atom_site_fract_z
_atom_site_U_iso_or_equiv
_atom_site_adp_type
_atom_site_occupancy
C1     C     0.05283   0.16038   0.25842   0.00000  Uiso   1.00
C2     C     0.10418   0.22280   0.42269   0.00000  Uiso   1.00
C3     C     0.15965   0.17976   0.41906   0.00000  Uiso   1.00
C4     C     0.15061   0.18429   0.46057   0.00000  Uiso   1.00
C5     C     0.12115   0.21302   0.48334   0.00000  Uiso   1.00
C6     C     0.17080   0.16113   0.47964   0.00000  Uiso   1.00
C7     C     0.16581   0.17062   0.02065   0.00000  Uiso   1.00
C8     C     0.13535   0.19769   0.04275   0.00000  Uiso   1.00
C9     C     0.11244   0.21807   0.02525   0.00000  Uiso   1.00
C10    C     0.19345   0.12694   0.45938   0.00000  Uiso   1.00
C11    C     0.21128   0.10280   0.47851   0.00000  Uiso   1.00
C12    C     0.28099   0.17289   0.24098   0.00000  Uiso   1.00
C13    C     0.20915   0.11430   0.01908   0.00000  Uiso   1.00
C14    C     0.18842   0.15000   0.03947   0.00000  Uiso   1.00
C15    C     0.22657   0.09140   0.04056   0.00000  Uiso   1.00
C16    C     0.21330   0.09753   0.08241   0.00000  Uiso   1.00
C17    C     0.19137   0.16413   0.07850   0.00000  Uiso   1.00
C18    C     0.32709   0.17190   0.23592   0.00000  Uiso   1.00
C19    C     0.00742   0.15788   0.26370   0.00000  Uiso   1.00
C20    C     0.18278   0.32307   0.24314   0.00000  Uiso   1.00
C21    C     0.14904   0.01210   0.26049   0.00000  Uiso   1.00
C22    C     0.15563   0.05628   0.25868   0.00000  Uiso   1.00
C23    C     0.17693   0.27778   0.24197   0.00000  Uiso   1.00
C24    C     0.18821   0.14517   0.14391   0.00000  Uiso   1.00
C25    C     0.14520   0.18790   0.35642   0.00000  Uiso   1.00
C26    C     0.13589   0.19715   0.40006   0.00000  Uiso   1.00
C27    C     0.19766   0.13536   0.10097   0.00000  Uiso   1.00
C28    C     0.10087   0.23489   0.46337   0.00000  Uiso   1.00
H29    H     0.18582   0.16299   0.40060   0.00000  Uiso   1.00
H30    H     0.12659   0.20110   0.07464   0.00000  Uiso   1.00
H31    H     0.19470   0.11603   0.42895   0.00000  Uiso   1.00
O32    O     0.16667   0.16667   0.25000   0.00000  Uiso   1.00
O33    O     0.17849   0.08101   0.27821   0.00000  Uiso   1.00
O34    O     0.14581   0.26136   0.26767   0.00000  Uiso   1.00
O35    O     0.07452   0.13251   0.23607   0.00000  Uiso   1.00
O36    O     0.26785   0.19179   0.21806   0.00000  Uiso   1.00
O37    O     0.06990   0.18960   0.27820   0.00000  Uiso   1.00
O38    O     0.25440   0.15277   0.26768   0.00000  Uiso   1.00
O39    O     0.13800   0.06903   0.23607   0.00000  Uiso   1.00
O40    O     0.20437   0.25527   0.21806   0.00000  Uiso   1.00
O41    O     0.15693   0.12393   0.16625   0.00000  Uiso   1.00
O42    O     0.12687   0.20646   0.33749   0.00000  Uiso   1.00
O43    O     0.21088   0.17493   0.15877   0.00000  Uiso   1.00
O44    O     0.17198   0.16135   0.33749   0.00000  Uiso   1.00
Zn45   Zn    0.19244   0.14090   0.28278   0.00000  Uiso   1.00
Zn46   Zn    0.13459   0.12378   0.22258   0.00000  Uiso   1.00
Zn47   Zn    0.21166   0.19664   0.21188   0.00000  Uiso   1.00
Zn48   Zn    0.12798   0.20535   0.28277   0.00000  Uiso   1.00
C49    C     0.07722   0.24245   0.05287   0.00000  Uiso   1.00
H50    H     0.07161   0.23803   0.08445   0.00000  Uiso   1.00
H51    H     0.08601   0.27631   0.05072   0.00000  Uiso   1.00
H52    H     0.04635   0.23166   0.04564   0.00000  Uiso   1.00
O53    O     0.25652   0.06367   0.02124   0.00000  Uiso   1.00
C54    C     0.29773   0.08063   0.02563   0.00000  Uiso   1.00
H55    H     0.31805   0.05460   0.01927   0.00000  Uiso   1.00
H56    H     0.29646   0.09452   0.05654   0.00000  Uiso   1.00
C57    C     0.31994   0.11266   0.49621   0.00000  Uiso   1.00
H58    H     0.33106   0.09616   0.46588   0.00000  Uiso   1.00
H59    H     0.29706   0.13443   0.49597   0.00000  Uiso   1.00
C60    C     0.02496   0.13874   0.00726   0.00000  Uiso   1.00
H61    H     0.01369   0.15827   0.03597   0.00000  Uiso   1.00
H62    H     0.04154   0.15958   0.48409   0.00000  Uiso   1.00
H63    H     0.04815   0.11846   0.00971   0.00000  Uiso   1.00
O64    O     0.02425   0.18728   0.20321   0.00000  Uiso   1.00
C65    C     0.01906   0.16429   0.16741   0.00000  Uiso   1.00
H66    H     0.00732   0.18484   0.15154   0.00000  Uiso   1.00
H67    H     0.32906   0.13540   0.17153   0.00000  Uiso   1.00
C68    C     0.06271   0.15133   0.14174   0.00000  Uiso   1.00
H69    H     0.08728   0.17906   0.13907   0.00000  Uiso   1.00
H70    H     0.07283   0.12823   0.15620   0.00000  Uiso   1.00
C71    C     0.06059   0.13194   0.10040   0.00000  Uiso   1.00
H72    H     0.03554   0.10480   0.10215   0.00000  Uiso   1.00
H73    H     0.09219   0.12122   0.08313   0.00000  Uiso   1.00
H74    H     0.05284   0.15531   0.08469   0.00000  Uiso   1.00
C75    C     0.31257   0.14183   0.30193   0.00000  Uiso   1.00
H76    H     0.33238   0.13414   0.31989   0.00000  Uiso   1.00
H77    H     0.29218   0.16597   0.32034   0.00000  Uiso   1.00
H78    H     0.29250   0.11248   0.29547   0.00000  Uiso   1.00
O79    O     0.22449   0.00960   0.23297   0.00000  Uiso   1.00
C80    C     0.23759   0.01497   0.19234   0.00000  Uiso   1.00
H81    H     0.22092   0.04001   0.18711   0.00000  Uiso   1.00
H82    H     0.23068   0.31892   0.17358   0.00000  Uiso   1.00
C83    C     0.28619   0.02797   0.18037   0.00000  Uiso   1.00
H84    H     0.29392   0.05624   0.19996   0.00000  Uiso   1.00
H85    H     0.30294   0.00230   0.18421   0.00000  Uiso   1.00
C86    C     0.30287   0.03742   0.13746   0.00000  Uiso   1.00
H87    H     0.29273   0.01093   0.11752   0.00000  Uiso   1.00
H88    H     0.00527   0.04222   0.12889   0.00000  Uiso   1.00
H89    H     0.29049   0.06610   0.13396   0.00000  Uiso   1.00
C90    C     0.10230   0.32664   0.27348   0.00000  Uiso   1.00
H91    H     0.07981   0.01754   0.28000   0.00000  Uiso   1.00
H92    H     0.09447   0.30327   0.24970   0.00000  Uiso   1.00
H93    H     0.09590   0.31221   0.30128   0.00000  Uiso   1.00
O94    O     0.18691   0.20504   0.09580   0.00000  Uiso   1.00
C95    C     0.21978   0.23306   0.07404   0.00000  Uiso   1.00
H96    H     0.20675   0.26343   0.07781   0.00000  Uiso   1.00
H97    H     0.22982   0.22338   0.04149   0.00000  Uiso   1.00
C98    C     0.25920   0.23995   0.08999   0.00000  Uiso   1.00
H99    H     0.25011   0.25504   0.12108   0.00000  Uiso   1.00
H100   H     0.27067   0.20946   0.08968   0.00000  Uiso   1.00
C101   C     0.29583   0.26755   0.06480   0.00000  Uiso   1.00
H102   H     0.30879   0.25065   0.03494   0.00000  Uiso   1.00
H103   H     0.32215   0.27590   0.07932   0.00000  Uiso   1.00
H104   H     0.28431   0.29675   0.06136   0.00000  Uiso   1.00
O105   O     0.22322   0.07117   0.10487   0.00000  Uiso   1.00
C106   C     0.20169   0.03045   0.09999   0.00000  Uiso   1.00
H107   H     0.22024   0.00849   0.10739   0.00000  Uiso   1.00
H108   H     0.20051   0.01973   0.06903   0.00000  Uiso   1.00
C109   C     0.15602   0.02729   0.12834   0.00000  Uiso   1.00
H110   H     0.15742   0.03889   0.15899   0.00000  Uiso   1.00
H111   H     0.13609   0.04697   0.11971   0.00000  Uiso   1.00
C112   C     0.13474   0.31563   0.12763   0.00000  Uiso   1.00
H113   H     0.13406   0.30276   0.09703   0.00000  Uiso   1.00
H114   H     0.10113   0.31465   0.14713   0.00000  Uiso   1.00
H115   H     0.15266   0.29593   0.13864   0.00000  Uiso   1.00
C116   C     0.22949   0.06360   0.45514   0.00000  Uiso   1.00
H117   H     0.26486   0.06672   0.45000   0.00000  Uiso   1.00
H118   H     0.21393   0.03612   0.47117   0.00000  Uiso   1.00
H119   H     0.22356   0.05722   0.42551   0.00000  Uiso   1.00
O120   O     0.07687   0.26717   0.48378   0.00000  Uiso   1.00
C121   C     0.09473   0.30518   0.46757   0.00000  Uiso   1.00
H122   H     0.07708   0.31010   0.44659   0.00000  Uiso   1.00
H123   H     0.12985   0.30591   0.45158   0.00000  Uiso   1.00
C124   C     0.08925   0.00798   0.00093   0.00000  Uiso   1.00
H125   H     0.05507   0.00656   0.01927   0.00000  Uiso   1.00
H126   H     0.10981   0.00534   0.02016   0.00000  Uiso   1.00
C127   C     0.10242   0.05001   0.48444   0.00000  Uiso   1.00
H128   H     0.13526   0.05079   0.46353   0.00000  Uiso   1.00
H129   H     0.10246   0.07538   0.00912   0.00000  Uiso   1.00
H130   H     0.07946   0.05541   0.46859   0.00000  Uiso   1.00
O131   O     0.07948   0.23921   0.40416   0.00000  Uiso   1.00
C132   C     0.03532   0.22406   0.41833   0.00000  Uiso   1.00
H133   H     0.01637   0.24552   0.41073   0.00000  Uiso   1.00
H134   H     0.02392   0.22447   0.45115   0.00000  Uiso   1.00
C135   C     0.02549   0.18003   0.39840   0.00000  Uiso   1.00
H136   H     0.03823   0.17952   0.36571   0.00000  Uiso   1.00
H137   H     0.04156   0.15751   0.40810   0.00000  Uiso   1.00
C138   C     0.31037   0.16640   0.40911   0.00000  Uiso   1.00
H139   H     0.29635   0.16886   0.44176   0.00000  Uiso   1.00
H140   H     0.30428   0.13344   0.39666   0.00000  Uiso   1.00
H141   H     0.29405   0.18632   0.39668   0.00000  Uiso   1.00
C142   C     0.38616   0.16038   0.25842   0.00000  Uiso   1.00
C143   C     0.43751   0.22280   0.42269   0.00000  Uiso   1.00
C144   C     0.49298   0.17976   0.41906   0.00000  Uiso   1.00
C145   C     0.48394   0.18429   0.46057   0.00000  Uiso   1.00
C146   C     0.45448   0.21302   0.48334   0.00000  Uiso   1.00
C147   C     0.50414   0.16113   0.47964   0.00000  Uiso   1.00
C148   C     0.49915   0.17062   0.02065   0.00000  Uiso   1.00
C149   C     0.46868   0.19769   0.04275   0.00000  Uiso   1.00
C150   C     0.44577   0.21807   0.02525   0.00000  Uiso   1.00
C151   C     0.52678   0.12694   0.45938   0.00000  Uiso   1.00
C152   C     0.54461   0.10280   0.47851   0.00000  Uiso   1.00
C153   C     0.61433   0.17289   0.24098   0.00000  Uiso   1.00
C154   C     0.54248   0.11430   0.01908   0.00000  Uiso   1.00
C155   C     0.52175   0.15000   0.03947   0.00000  Uiso   1.00
C156   C     0.55990   0.09140   0.04056   0.00000  Uiso   1.00
C157   C     0.54663   0.09753   0.08241   0.00000  Uiso   1.00
C158   C     0.52470   0.16413   0.07850   0.00000  Uiso   1.00
C159   C     0.66043   0.17190   0.23592   0.00000  Uiso   1.00
C160   C     0.34075   0.15788   0.26370   0.00000  Uiso   1.00
C161   C     0.51611   0.32307   0.24314   0.00000  Uiso   1.00
C162   C     0.48237   0.01210   0.26049   0.00000  Uiso   1.00
C163   C     0.48896   0.05628   0.25868   0.00000  Uiso   1.00
C164   C     0.51027   0.27778   0.24197   0.00000  Uiso   1.00
C165   C     0.52154   0.14517   0.14391   0.00000  Uiso   1.00
C166   C     0.47853   0.18790   0.35642   0.00000  Uiso   1.00
C167   C     0.46922   0.19715   0.40006   0.00000  Uiso   1.00
C168   C     0.53099   0.13536   0.10097   0.00000  Uiso   1.00
C169   C     0.43420   0.23489   0.46337   0.00000  Uiso   1.00
H170   H     0.51915   0.16299   0.40060   0.00000  Uiso   1.00
H171   H     0.45993   0.20110   0.07464   0.00000  Uiso   1.00
H172   H     0.52804   0.11603   0.42895   0.00000  Uiso   1.00
O173   O     0.50000   0.16667   0.25000   0.00000  Uiso   1.00
O174   O     0.51182   0.08101   0.27821   0.00000  Uiso   1.00
O175   O     0.47914   0.26136   0.26767   0.00000  Uiso   1.00
O176   O     0.40785   0.13251   0.23607   0.00000  Uiso   1.00
O177   O     0.60119   0.19179   0.21806   0.00000  Uiso   1.00
O178   O     0.40323   0.18960   0.27820   0.00000  Uiso   1.00
O179   O     0.58773   0.15277   0.26768   0.00000  Uiso   1.00
O180   O     0.47133   0.06903   0.23607   0.00000  Uiso   1.00
O181   O     0.53771   0.25527   0.21806   0.00000  Uiso   1.00
O182   O     0.49027   0.12393   0.16625   0.00000  Uiso   1.00
O183   O     0.46020   0.20646   0.33749   0.00000  Uiso   1.00
O184   O     0.54421   0.17493   0.15877   0.00000  Uiso   1.00
O185   O     0.50532   0.16135   0.33749   0.00000  Uiso   1.00
Zn186  Zn    0.52577   0.14090   0.28278   0.00000  Uiso   1.00
Zn187  Zn    0.46792   0.12378   0.22258   0.00000  Uiso   1.00
Zn188  Zn    0.54500   0.19664   0.21188   0.00000  Uiso   1.00
Zn189  Zn    0.46131   0.20535   0.28277   0.00000  Uiso   1.00
C190   C     0.41056   0.24245   0.05287   0.00000  Uiso   1.00
H191   H     0.40495   0.23803   0.08445   0.00000  Uiso   1.00
H192   H     0.41935   0.27631   0.05072   0.00000  Uiso   1.00
H193   H     0.37968   0.23166   0.04564   0.00000  Uiso   1.00
O194   O     0.58986   0.06367   0.02124   0.00000  Uiso   1.00
C195   C     0.63106   0.08063   0.02563   0.00000  Uiso   1.00
H196   H     0.65138   0.05460   0.01927   0.00000  Uiso   1.00
H197   H     0.62980   0.09452   0.05654   0.00000  Uiso   1.00
C198   C     0.65327   0.11266   0.49621   0.00000  Uiso   1.00
H199   H     0.66440   0.09616   0.46588   0.00000  Uiso   1.00
H200   H     0.63040   0.13443   0.49597   0.00000  Uiso   1.00
C201   C     0.35830   0.13874   0.00726   0.00000  Uiso   1.00
H202   H     0.34703   0.15827   0.03597   0.00000  Uiso   1.00
H203   H     0.37487   0.15958   0.48409   0.00000  Uiso   1.00
H204   H     0.38148   0.11846   0.00971   0.00000  Uiso   1.00
O205   O     0.35758   0.18728   0.20321   0.00000  Uiso   1.00
C206   C     0.35239   0.16429   0.16741   0.00000  Uiso   1.00
H207   H     0.34065   0.18484   0.15154   0.00000  Uiso   1.00
H208   H     0.66240   0.13540   0.17153   0.00000  Uiso   1.00
C209   C     0.39604   0.15133   0.14174   0.00000  Uiso   1.00
H210   H     0.42062   0.17906   0.13907   0.00000  Uiso   1.00
H211   H     0.40616   0.12823   0.15620   0.00000  Uiso   1.00
C212   C     0.39393   0.13194   0.10040   0.00000  Uiso   1.00
H213   H     0.36888   0.10480   0.10215   0.00000  Uiso   1.00
H214   H     0.42553   0.12122   0.08313   0.00000  Uiso   1.00
H215   H     0.38617   0.15531   0.08469   0.00000  Uiso   1.00
C216   C     0.64590   0.14183   0.30193   0.00000  Uiso   1.00
H217   H     0.66572   0.13414   0.31989   0.00000  Uiso   1.00
H218   H     0.62551   0.16597   0.32034   0.00000  Uiso   1.00
H219   H     0.62583   0.11248   0.29547   0.00000  Uiso   1.00
O220   O     0.55783   0.00960   0.23297   0.00000  Uiso   1.00
C221   C     0.57093   0.01497   0.19234   0.00000  Uiso   1.00
H222   H     0.55426   0.04001   0.18711   0.00000  Uiso   1.00
H223   H     0.56401   0.31892   0.17358   0.00000  Uiso   1.00
C224   C     0.61952   0.02797   0.18037   0.00000  Uiso   1.00
H225   H     0.62725   0.05624   0.19996   0.00000  Uiso   1.00
H226   H     0.63628   0.00230   0.18421   0.00000  Uiso   1.00
C227   C     0.63620   0.03742   0.13746   0.00000  Uiso   1.00
H228   H     0.62607   0.01093   0.11752   0.00000  Uiso   1.00
H229   H     0.33860   0.04222   0.12889   0.00000  Uiso   1.00
H230   H     0.62382   0.06610   0.13396   0.00000  Uiso   1.00
C231   C     0.43563   0.32664   0.27348   0.00000  Uiso   1.00
H232   H     0.41315   0.01754   0.28000   0.00000  Uiso   1.00
H233   H     0.42780   0.30327   0.24970   0.00000  Uiso   1.00
H234   H     0.42923   0.31221   0.30128   0.00000  Uiso   1.00
O235   O     0.52024   0.20504   0.09580   0.00000  Uiso   1.00
C236   C     0.55311   0.23306   0.07404   0.00000  Uiso   1.00
H237   H     0.54009   0.26343   0.07781   0.00000  Uiso   1.00
H238   H     0.56316   0.22338   0.04149   0.00000  Uiso   1.00
C239   C     0.59254   0.23995   0.08999   0.00000  Uiso   1.00
H240   H     0.58344   0.25504   0.12108   0.00000  Uiso   1.00
H241   H     0.60401   0.20946   0.08968   0.00000  Uiso   1.00
C242   C     0.62917   0.26755   0.06480   0.00000  Uiso   1.00
H243   H     0.64213   0.25065   0.03494   0.00000  Uiso   1.00
H244   H     0.65548   0.27590   0.07932   0.00000  Uiso   1.00
H245   H     0.61764   0.29675   0.06136   0.00000  Uiso   1.00
O246   O     0.55655   0.07117   0.10487   0.00000  Uiso   1.00
C247   C     0.53502   0.03045   0.09999   0.00000  Uiso   1.00
H248   H     0.55357   0.00849   0.10739   0.00000  Uiso   1.00
H249   H     0.53385   0.01973   0.06903   0.00000  Uiso   1.00
C250   C     0.48935   0.02729   0.12834   0.00000  Uiso   1.00
H251   H     0.49075   0.03889   0.15899   0.00000  Uiso   1.00
H252   H     0.46942   0.04697   0.11971   0.00000  Uiso   1.00
C253   C     0.46808   0.31563   0.12763   0.00000  Uiso   1.00
H254   H     0.46739   0.30276   0.09703   0.00000  Uiso   1.00
H255   H     0.43446   0.31465   0.14713   0.00000  Uiso   1.00
H256   H     0.48599   0.29593   0.13864   0.00000  Uiso   1.00
C257   C     0.56282   0.06360   0.45514   0.00000  Uiso   1.00
H258   H     0.59820   0.06672   0.45000   0.00000  Uiso   1.00
H259   H     0.54726   0.03612   0.47117   0.00000  Uiso   1.00
H260   H     0.55689   0.05722   0.42551   0.00000  Uiso   1.00
O261   O     0.41021   0.26717   0.48378   0.00000  Uiso   1.00
C262   C     0.42806   0.30518   0.46757   0.00000  Uiso   1.00
H263   H     0.41042   0.31010   0.44659   0.00000  Uiso   1.00
H264   H     0.46318   0.30591   0.45158   0.00000  Uiso   1.00
C265   C     0.42259   0.00798   0.00093   0.00000  Uiso   1.00
H266   H     0.38841   0.00656   0.01927   0.00000  Uiso   1.00
H267   H     0.44314   0.00534   0.02016   0.00000  Uiso   1.00
C268   C     0.43575   0.05001   0.48444   0.00000  Uiso   1.00
H269   H     0.46859   0.05079   0.46353   0.00000  Uiso   1.00
H270   H     0.43579   0.07538   0.00912   0.00000  Uiso   1.00
H271   H     0.41280   0.05541   0.46859   0.00000  Uiso   1.00
O272   O     0.41282   0.23921   0.40416   0.00000  Uiso   1.00
C273   C     0.36865   0.22406   0.41833   0.00000  Uiso   1.00
H274   H     0.34970   0.24552   0.41073   0.00000  Uiso   1.00
H275   H     0.35726   0.22447   0.45115   0.00000  Uiso   1.00
C276   C     0.35883   0.18003   0.39840   0.00000  Uiso   1.00
H277   H     0.37156   0.17952   0.36571   0.00000  Uiso   1.00
H278   H     0.37490   0.15751   0.40810   0.00000  Uiso   1.00
C279   C     0.64370   0.16640   0.40911   0.00000  Uiso   1.00
H280   H     0.62969   0.16886   0.44176   0.00000  Uiso   1.00
H281   H     0.63762   0.13344   0.39666   0.00000  Uiso   1.00
H282   H     0.62738   0.18632   0.39668   0.00000  Uiso   1.00
C283   C     0.71949   0.16038   0.25842   0.00000  Uiso   1.00
C284   C     0.77084   0.22280   0.42269   0.00000  Uiso   1.00
C285   C     0.82631   0.17976   0.41906   0.00000  Uiso   1.00
C286   C     0.81728   0.18429   0.46057   0.00000  Uiso   1.00
C287   C     0.78782   0.21302   0.48334   0.00000  Uiso   1.00
C288   C     0.83747   0.16113   0.47964   0.00000  Uiso   1.00
C289   C     0.83248   0.17062   0.02065   0.00000  Uiso   1.00
C290   C     0.80202   0.19769   0.04275   0.00000  Uiso   1.00
C291   C     0.77910   0.21807   0.02525   0.00000  Uiso   1.00
C292   C     0.86011   0.12694   0.45938   0.00000  Uiso   1.00
C293   C     0.87795   0.10280   0.47851   0.00000  Uiso   1.00
C294   C     0.94766   0.17289   0.24098   0.00000  Uiso   1.00
C295   C     0.87582   0.11430   0.01908   0.00000  Uiso   1.00
C296   C     0.85508   0.15000   0.03947   0.00000  Uiso   1.00
C297   C     0.89324   0.09140   0.04056   0.00000  Uiso   1.00
C298   C     0.87997   0.09753   0.08241   0.00000  Uiso   1.00
C299   C     0.85803   0.16413   0.07850   0.00000  Uiso   1.00
C300   C     0.99376   0.17190   0.23592   0.00000  Uiso   1.00
C301   C     0.67409   0.15788   0.26370   0.00000  Uiso   1.00
C302   C     0.84944   0.32307   0.24314   0.00000  Uiso   1.00
C303   C     0.81571   0.01210   0.26049   0.00000  Uiso   1.00
C304   C     0.82229   0.05628   0.25868   0.00000  Uiso   1.00
C305   C     0.84360   0.27778   0.24197   0.00000  Uiso   1.00
C306   C     0.85487   0.14517   0.14391   0.00000  Uiso   1.00
C307   C     0.81187   0.18790   0.35642   0.00000  Uiso   1.00
C308   C     0.80256   0.19715   0.40006   0.00000  Uiso   1.00
C309   C     0.86432   0.13536   0.10097   0.00000  Uiso   1.00
C310   C     0.76753   0.23489   0.46337   0.00000  Uiso   1.00
H311   H     0.85249   0.16299   0.40060   0.00000  Uiso   1.00
H312   H     0.79326   0.20110   0.07464   0.00000  Uiso   1.00
H313   H     0.86137   0.11603   0.42895   0.00000  Uiso   1.00
O314   O     0.83333   0.16667   0.25000   0.00000  Uiso   1.00
O315   O     0.84515   0.08101   0.27821   0.00000  Uiso   1.00
O316   O     0.81247   0.26136   0.26767   0.00000  Uiso   1.00
O317   O     0.74119   0.13251   0.23607   0.00000  Uiso   1.00
O318   O     0.93452   0.19179   0.21806   0.00000  Uiso   1.00
O319   O     0.73656   0.18960   0.27820   0.00000  Uiso   1.00
O320   O     0.92106   0.15277   0.26768   0.00000  Uiso   1.00
O321   O     0.80467   0.06903   0.23607   0.00000  Uiso   1.00
O322   O     0.87104   0.25527   0.21806   0.00000  Uiso   1.00
O323   O     0.82360   0.12393   0.16625   0.00000  Uiso   1.00
O324   O     0.79354   0.20646   0.33749   0.00000  Uiso   1.00
O325   O     0.87755   0.17493   0.15877   0.00000  Uiso   1.00
O326   O     0.83865   0.16135   0.33749   0.00000  Uiso   1.00
Zn327  Zn    0.85910   0.14090   0.28278   0.00000  Uiso   1.00
Zn328  Zn    0.80125   0.12378   0.22258   0.00000  Uiso   1.00
Zn329  Zn    0.87833   0.19664   0.21188   0.00000  Uiso   1.00
Zn330  Zn    0.79465   0.20535   0.28277   0.00000  Uiso   1.00
C331   C     0.74389   0.24245   0.05287   0.00000  Uiso   1.00
H332   H     0.73828   0.23803   0.08445   0.00000  Uiso   1.00
H333   H     0.75268   0.27631   0.05072   0.00000  Uiso   1.00
H334   H     0.71302   0.23166   0.04564   0.00000  Uiso   1.00
O335   O     0.92319   0.06367   0.02124   0.00000  Uiso   1.00
C336   C     0.96439   0.08063   0.02563   0.00000  Uiso   1.00
H337   H     0.98472   0.05460   0.01927   0.00000  Uiso   1.00
H338   H     0.96313   0.09452   0.05654   0.00000  Uiso   1.00
C339   C     0.98661   0.11266   0.49621   0.00000  Uiso   1.00
H340   H     0.99773   0.09616   0.46588   0.00000  Uiso   1.00
H341   H     0.96373   0.13443   0.49597   0.00000  Uiso   1.00
C342   C     0.69163   0.13874   0.00726   0.00000  Uiso   1.00
H343   H     0.68036   0.15827   0.03597   0.00000  Uiso   1.00
H344   H     0.70820   0.15958   0.48409   0.00000  Uiso   1.00
H345   H     0.71482   0.11846   0.00971   0.00000  Uiso   1.00
O346   O     0.69092   0.18728   0.20321   0.00000  Uiso   1.00
C347   C     0.68572   0.16429   0.16741   0.00000  Uiso   1.00
H348   H     0.67398   0.18484   0.15154   0.00000  Uiso   1.00
H349   H     0.99573   0.13540   0.17153   0.00000  Uiso   1.00
C350   C     0.72938   0.15133   0.14174   0.00000  Uiso   1.00
H351   H     0.75395   0.17906   0.13907   0.00000  Uiso   1.00
H352   H     0.73950   0.12823   0.15620   0.00000  Uiso   1.00
C353   C     0.72726   0.13194   0.10040   0.00000  Uiso   1.00
H354   H     0.70221   0.10480   0.10215   0.00000  Uiso   1.00
H355   H     0.75886   0.12122   0.08313   0.00000  Uiso   1.00
H356   H     0.71951   0.15531   0.08469   0.00000  Uiso   1.00
C357   C     0.97924   0.14183   0.30193   0.00000  Uiso   1.00
H358   H     0.99905   0.13414   0.31989   0.00000  Uiso   1.00
H359   H     0.95884   0.16597   0.32034   0.00000  Uiso   1.00
H360   H     0.95916   0.11248   0.29547   0.00000  Uiso   1.00
O361   O     0.89116   0.00960   0.23297   0.00000  Uiso   1.00
C362   C     0.90426   0.01497   0.19234   0.00000  Uiso   1.00
H363   H     0.88759   0.04001   0.18711   0.00000  Uiso   1.00
H364   H     0.89734   0.31892   0.17358   0.00000  Uiso   1.00
C365   C     0.95285   0.02797   0.18037   0.00000  Uiso   1.00
H366   H     0.96059   0.05624   0.19996   0.00000  Uiso   1.00
H367   H     0.96961   0.00230   0.18421   0.00000  Uiso   1.00
C368   C     0.96953   0.03742   0.13746   0.00000  Uiso   1.00
H369   H     0.95940   0.01093   0.11752   0.00000  Uiso   1.00
H370   H     0.67194   0.04222   0.12889   0.00000  Uiso   1.00
H371   H     0.95716   0.06610   0.13396   0.00000  Uiso   1.00
C372   C     0.76896   0.32664   0.27348   0.00000  Uiso   1.00
H373   H     0.74648   0.01754   0.28000   0.00000  Uiso   1.00
H374   H     0.76114   0.30327   0.24970   0.00000  Uiso   1.00
H375   H     0.76257   0.31221   0.30128   0.00000  Uiso   1.00
O376   O     0.85358   0.20504   0.09580   0.00000  Uiso   1.00
C377   C     0.88644   0.23306   0.07404   0.00000  Uiso   1.00
H378   H     0.87342   0.26343   0.07781   0.00000  Uiso   1.00
H379   H     0.89649   0.22338   0.04149   0.00000  Uiso   1.00
C380   C     0.92587   0.23995   0.08999   0.00000  Uiso   1.00
H381   H     0.91677   0.25504   0.12108   0.00000  Uiso   1.00
H382   H     0.93734   0.20946   0.08968   0.00000  Uiso   1.00
C383   C     0.96250   0.26755   0.06480   0.00000  Uiso   1.00
H384   H     0.97546   0.25065   0.03494   0.00000  Uiso   1.00
H385   H     0.98881   0.27590   0.07932   0.00000  Uiso   1.00
H386   H     0.95097   0.29675   0.06136   0.00000  Uiso   1.00
O387   O     0.88988   0.07117   0.10487   0.00000  Uiso   1.00
C388   C     0.86836   0.03045   0.09999   0.00000  Uiso   1.00
H389   H     0.88691   0.00849   0.10739   0.00000  Uiso   1.00
H390   H     0.86718   0.01973   0.06903   0.00000  Uiso   1.00
C391   C     0.82269   0.02729   0.12834   0.00000  Uiso   1.00
H392   H     0.82409   0.03889   0.15899   0.00000  Uiso   1.00
H393   H     0.80275   0.04697   0.11971   0.00000  Uiso   1.00
C394   C     0.80141   0.31563   0.12763   0.00000  Uiso   1.00
H395   H     0.80072   0.30276   0.09703   0.00000  Uiso   1.00
H396   H     0.76780   0.31465   0.14713   0.00000  Uiso   1.00
H397   H     0.81932   0.29593   0.13864   0.00000  Uiso   1.00
C398   C     0.89615   0.06360   0.45514   0.00000  Uiso   1.00
H399   H     0.93153   0.06672   0.45000   0.00000  Uiso   1.00
H400   H     0.88060   0.03612   0.47117   0.00000  Uiso   1.00
H401   H     0.89023   0.05722   0.42551   0.00000  Uiso   1.00
O402   O     0.74354   0.26717   0.48378   0.00000  Uiso   1.00
C403   C     0.76139   0.30518   0.46757   0.00000  Uiso   1.00
H404   H     0.74375   0.31010   0.44659   0.00000  Uiso   1.00
H405   H     0.79651   0.30591   0.45158   0.00000  Uiso   1.00
C406   C     0.75592   0.00798   0.00093   0.00000  Uiso   1.00
H407   H     0.72174   0.00656   0.01927   0.00000  Uiso   1.00
H408   H     0.77648   0.00534   0.02016   0.00000  Uiso   1.00
C409   C     0.76909   0.05001   0.48444   0.00000  Uiso   1.00
H410   H     0.80192   0.05079   0.46353   0.00000  Uiso   1.00
H411   H     0.76913   0.07538   0.00912   0.00000  Uiso   1.00
H412   H     0.74613   0.05541   0.46859   0.00000  Uiso   1.00
O413   O     0.74615   0.23921   0.40416   0.00000  Uiso   1.00
C414   C     0.70199   0.22406   0.41833   0.00000  Uiso   1.00
H415   H     0.68303   0.24552   0.41073   0.00000  Uiso   1.00
H416   H     0.69059   0.22447   0.45115   0.00000  Uiso   1.00
C417   C     0.69216   0.18003   0.39840   0.00000  Uiso   1.00
H418   H     0.70489   0.17952   0.36571   0.00000  Uiso   1.00
H419   H     0.70823   0.15751   0.40810   0.00000  Uiso   1.00
C420   C     0.97703   0.16640   0.40911   0.00000  Uiso   1.00
H421   H     0.96302   0.16886   0.44176   0.00000  Uiso   1.00
H422   H     0.97095   0.13344   0.39666   0.00000  Uiso   1.00
H423   H     0.96071   0.18632   0.39668   0.00000  Uiso   1.00
C424   C     0.05283   0.49371   0.25842   0.00000  Uiso   1.00
C425   C     0.10418   0.55613   0.42269   0.00000  Uiso   1.00
C426   C     0.15965   0.51310   0.41906   0.00000  Uiso   1.00
C427   C     0.15061   0.51762   0.46057   0.00000  Uiso   1.00
C428   C     0.12115   0.54635   0.48334   0.00000  Uiso   1.00
C429   C     0.17080   0.49447   0.47964   0.00000  Uiso   1.00
C430   C     0.16581   0.50395   0.02065   0.00000  Uiso   1.00
C431   C     0.13535   0.53102   0.04275   0.00000  Uiso   1.00
C432   C     0.11244   0.55140   0.02525   0.00000  Uiso   1.00
C433   C     0.19345   0.46028   0.45938   0.00000  Uiso   1.00
C434   C     0.21128   0.43614   0.47851   0.00000  Uiso   1.00
C435   C     0.28099   0.50622   0.24098   0.00000  Uiso   1.00
C436   C     0.20915   0.44763   0.01908   0.00000  Uiso   1.00
C437   C     0.18842   0.48334   0.03947   0.00000  Uiso   1.00
C438   C     0.22657   0.42473   0.04056   0.00000  Uiso   1.00
C439   C     0.21330   0.43086   0.08241   0.00000  Uiso   1.00
C440   C     0.19137   0.49747   0.07850   0.00000  Uiso   1.00
C441   C     0.32709   0.50523   0.23592   0.00000  Uiso   1.00
C442   C     0.00742   0.49122   0.26370   0.00000  Uiso   1.00
C443   C     0.18278   0.65640   0.24314   0.00000  Uiso   1.00
C444   C     0.14904   0.34543   0.26049   0.00000  Uiso   1.00
C445   C     0.15563   0.38961   0.25868   0.00000  Uiso   1.00
C446   C     0.17693   0.61111   0.24197   0.00000  Uiso   1.00
C447   C     0.18821   0.47850   0.14391   0.00000  Uiso   1.00
C448   C     0.14520   0.52123   0.35642   0.00000  Uiso   1.00
C449   C     0.13589   0.53048   0.40006   0.00000  Uiso   1.00
C450   C     0.19766   0.46869   0.10097   0.00000  Uiso   1.00
C451   C     0.10087   0.56822   0.46337   0.00000  Uiso   1.00
H452   H     0.18582   0.49633   0.40060   0.00000  Uiso   1.00
H453   H     0.12659   0.53444   0.07464   0.00000  Uiso   1.00
H454   H     0.19470   0.44936   0.42895   0.00000  Uiso   1.00
O455   O     0.16667   0.50000   0.25000   0.00000  Uiso   1.00
O456   O     0.17849   0.41434   0.27821   0.00000  Uiso   1.00
O457   O     0.14581   0.59469   0.26767   0.00000  Uiso   1.00
O458   O     0.07452   0.46584   0.23607   0.00000  Uiso   1.00
O459   O     0.26785   0.52512   0.21806   0.00000  Uiso   1.00
O460   O     0.06990   0.52293   0.27820   0.00000  Uiso   1.00
O461   O     0.25440   0.48610   0.26768   0.00000  Uiso   1.00
O462   O     0.13800   0.40236   0.23607   0.00000  Uiso   1.00
O463   O     0.20437   0.58860   0.21806   0.00000  Uiso   1.00
O464   O     0.15693   0.45726   0.16625   0.00000  Uiso   1.00
O465   O     0.12687   0.53979   0.33749   0.00000  Uiso   1.00
O466   O     0.21088   0.50826   0.15877   0.00000  Uiso   1.00
O467   O     0.17198   0.49468   0.33749   0.00000  Uiso   1.00
Zn468  Zn    0.19244   0.47423   0.28278   0.00000  Uiso   1.00
Zn469  Zn    0.13459   0.45711   0.22258   0.00000  Uiso   1.00
Zn470  Zn    0.21166   0.52997   0.21188   0.00000  Uiso   1.00
Zn471  Zn    0.12798   0.53868   0.28277   0.00000  Uiso   1.00
C472   C     0.07722   0.57579   0.05287   0.00000  Uiso   1.00
H473   H     0.07161   0.57136   0.08445   0.00000  Uiso   1.00
H474   H     0.08601   0.60964   0.05072   0.00000  Uiso   1.00
H475   H     0.04635   0.56499   0.04564   0.00000  Uiso   1.00
O476   O     0.25652   0.39700   0.02124   0.00000  Uiso   1.00
C477   C     0.29773   0.41397   0.02563   0.00000  Uiso   1.00
H478   H     0.31805   0.38794   0.01927   0.00000  Uiso   1.00
H479   H     0.29646   0.42785   0.05654   0.00000  Uiso   1.00
C480   C     0.31994   0.44599   0.49621   0.00000  Uiso   1.00
H481   H     0.33106   0.42949   0.46588   0.00000  Uiso   1.00
H482   H     0.29706   0.46776   0.49597   0.00000  Uiso   1.00
C483   C     0.02496   0.47207   0.00726   0.00000  Uiso   1.00
H484   H     0.01369   0.49160   0.03597   0.00000  Uiso   1.00
H485   H     0.04154   0.49291   0.48409   0.00000  Uiso   1.00
H486   H     0.04815   0.45179   0.00971   0.00000  Uiso   1.00
O487   O     0.02425   0.52062   0.20321   0.00000  Uiso   1.00
C488   C     0.01906   0.49763   0.16741   0.00000  Uiso   1.00
H489   H     0.00732   0.51817   0.15154   0.00000  Uiso   1.00
H490   H     0.32906   0.46873   0.17153   0.00000  Uiso   1.00
C491   C     0.06271   0.48466   0.14174   0.00000  Uiso   1.00
H492   H     0.08728   0.51239   0.13907   0.00000  Uiso   1.00
H493   H     0.07283   0.46157   0.15620   0.00000  Uiso   1.00
C494   C     0.06059   0.46527   0.10040   0.00000  Uiso   1.00
H495   H     0.03554   0.43813   0.10215   0.00000  Uiso   1.00
H496   H     0.09219   0.45455   0.08313   0.00000  Uiso   1.00
H497   H     0.05284   0.48865   0.08469   0.00000  Uiso   1.00
C498   C     0.31257   0.47516   0.30193   0.00000  Uiso   1.00
H499   H     0.33238   0.46747   0.31989   0.00000  Uiso   1.00
H500   H     0.29218   0.49930   0.32034   0.00000  Uiso   1.00
H501   H     0.29250   0.44581   0.29547   0.00000  Uiso   1.00
O502   O     0.22449   0.34294   0.23297   0.00000  Uiso   1.00
C503   C     0.23759   0.34831   0.19234   0.00000  Uiso   1.00
H504   H     0.22092   0.37334   0.18711   0.00000  Uiso   1.00
H505   H     0.23068   0.65225   0.17358   0.00000  Uiso   1.00
C506   C     0.28619   0.36130   0.18037   0.00000  Uiso   1.00
H507   H     0.29392   0.38957   0.19996   0.00000  Uiso   1.00
H508   H     0.30294   0.33563   0.18421   0.00000  Uiso   1.00
C509   C     0.30287   0.37075   0.13746   0.00000  Uiso   1.00
H510   H     0.29273   0.34427   0.11752   0.00000  Uiso   1.00
H511   H     0.00527   0.37555   0.12889   0.00000  Uiso   1.00
H512   H     0.29049   0.39944   0.13396   0.00000  Uiso   1.00
C513   C     0.10230   0.65997   0.27348   0.00000  Uiso   1.00
H514   H     0.07981   0.35087   0.28000   0.00000  Uiso   1.00
H515   H     0.09447   0.63661   0.24970   0.00000  Uiso   1.00
H516   H     0.09590   0.64555   0.30128   0.00000  Uiso   1.00
O517   O     0.18691   0.53837   0.09580   0.00000  Uiso   1.00
C518   C     0.21978   0.56639   0.07404   0.00000  Uiso   1.00
H519   H     0.20675   0.59676   0.07781   0.00000  Uiso   1.00
H520   H     0.22982   0.55672   0.04149   0.00000  Uiso   1.00
C521   C     0.25920   0.57329   0.08999   0.00000  Uiso   1.00
H522   H     0.25011   0.58837   0.12108   0.00000  Uiso   1.00
H523   H     0.27067   0.54279   0.08968   0.00000  Uiso   1.00
C524   C     0.29583   0.60089   0.06480   0.00000  Uiso   1.00
H525   H     0.30879   0.58398   0.03494   0.00000  Uiso   1.00
H526   H     0.32215   0.60923   0.07932   0.00000  Uiso   1.00
H527   H     0.28431   0.63008   0.06136   0.00000  Uiso   1.00
O528   O     0.22322   0.40451   0.10487   0.00000  Uiso   1.00
C529   C     0.20169   0.36378   0.09999   0.00000  Uiso   1.00
H530   H     0.22024   0.34183   0.10739   0.00000  Uiso   1.00
H531   H     0.20051   0.35307   0.06903   0.00000  Uiso   1.00
C532   C     0.15602   0.36062   0.12834   0.00000  Uiso   1.00
H533   H     0.15742   0.37222   0.15899   0.00000  Uiso   1.00
H534   H     0.13609   0.38031   0.11971   0.00000  Uiso   1.00
C535   C     0.13474   0.64896   0.12763   0.00000  Uiso   1.00
H536   H     0.13406   0.63610   0.09703   0.00000  Uiso   1.00
H537   H     0.10113   0.64798   0.14713   0.00000  Uiso   1.00
H538   H     0.15266   0.62927   0.13864   0.00000  Uiso   1.00
C539   C     0.22949   0.39694   0.45514   0.00000  Uiso   1.00
H540   H     0.26486   0.40005   0.45000   0.00000  Uiso   1.00
H541   H     0.21393   0.36945   0.47117   0.00000  Uiso   1.00
H542   H     0.22356   0.39056   0.42551   0.00000  Uiso   1.00
O543   O     0.07687   0.60050   0.48378   0.00000  Uiso   1.00
C544   C     0.09473   0.63851   0.46757   0.00000  Uiso   1.00
H545   H     0.07708   0.64343   0.44659   0.00000  Uiso   1.00
H546   H     0.12985   0.63924   0.45158   0.00000  Uiso   1.00
C547   C     0.08925   0.34131   0.00093   0.00000  Uiso   1.00
H548   H     0.05507   0.33989   0.01927   0.00000  Uiso   1.00
H549   H     0.10981   0.33867   0.02016   0.00000  Uiso   1.00
C550   C     0.10242   0.38334   0.48444   0.00000  Uiso   1.00
H551   H     0.13526   0.38412   0.46353   0.00000  Uiso   1.00
H552   H     0.10246   0.40871   0.00912   0.00000  Uiso   1.00
H553   H     0.07946   0.38875   0.46859   0.00000  Uiso   1.00
O554   O     0.07948   0.57254   0.40416   0.00000  Uiso   1.00
C555   C     0.03532   0.55740   0.41833   0.00000  Uiso   1.00
H556   H     0.01637   0.57885   0.41073   0.00000  Uiso   1.00
H557   H     0.02392   0.55781   0.45115   0.00000  Uiso   1.00
C558   C     0.02549   0.51336   0.39840   0.00000  Uiso   1.00
H559   H     0.03823   0.51285   0.36571   0.00000  Uiso   1.00
H560   H     0.04156   0.49084   0.40810   0.00000  Uiso   1.00
C561   C     0.31037   0.49973   0.40911   0.00000  Uiso   1.00
H562   H     0.29635   0.50220   0.44176   0.00000  Uiso   1.00
H563   H     0.30428   0.46678   0.39666   0.00000  Uiso   1.00
H564   H     0.29405   0.51966   0.39668   0.00000  Uiso   1.00
C565   C     0.38616   0.49371   0.25842   0.00000  Uiso   1.00
C566   C     0.43751   0.55613   0.42269   0.00000  Uiso   1.00
C567   C     0.49298   0.51310   0.41906   0.00000  Uiso   1.00
C568   C     0.48394   0.51762   0.46057   0.00000  Uiso   1.00
C569   C     0.45448   0.54635   0.48334   0.00000  Uiso   1.00
C570   C     0.50414   0.49447   0.47964   0.00000  Uiso   1.00
C571   C     0.49915   0.50395   0.02065   0.00000  Uiso   1.00
C572   C     0.46868   0.53102   0.04275   0.00000  Uiso   1.00
C573   C     0.44577   0.55140   0.02525   0.00000  Uiso   1.00
C574   C     0.52678   0.46028   0.45938   0.00000  Uiso   1.00
C575   C     0.54461   0.43614   0.47851   0.00000  Uiso   1.00
C576   C     0.61433   0.50622   0.24098   0.00000  Uiso   1.00
C577   C     0.54248   0.44763   0.01908   0.00000  Uiso   1.00
C578   C     0.52175   0.48334   0.03947   0.00000  Uiso   1.00
C579   C     0.55990   0.42473   0.04056   0.00000  Uiso   1.00
C580   C     0.54663   0.43086   0.08241   0.00000  Uiso   1.00
C581   C     0.52470   0.49747   0.07850   0.00000  Uiso   1.00
C582   C     0.66043   0.50523   0.23592   0.00000  Uiso   1.00
C583   C     0.34075   0.49122   0.26370   0.00000  Uiso   1.00
C584   C     0.51611   0.65640   0.24314   0.00000  Uiso   1.00
C585   C     0.48237   0.34543   0.26049   0.00000  Uiso   1.00
C586   C     0.48896   0.38961   0.25868   0.00000  Uiso   1.00
C587   C     0.51027   0.61111   0.24197   0.00000  Uiso   1.00
C588   C     0.52154   0.47850   0.14391   0.00000  Uiso   1.00
C589   C     0.47853   0.52123   0.35642   0.00000  Uiso   1.00
C590   C     0.46922   0.53048   0.40006   0.00000  Uiso   1.00
C591   C     0.53099   0.46869   0.10097   0.00000  Uiso   1.00
C592   C     0.43420   0.56822   0.46337   0.00000  Uiso   1.00
H593   H     0.51915   0.49633   0.40060   0.00000  Uiso   1.00
H594   H     0.45993   0.53444   0.07464   0.00000  Uiso   1.00
H595   H     0.52804   0.44936   0.42895   0.00000  Uiso   1.00
O596   O     0.50000   0.50000   0.25000   0.00000  Uiso   1.00
O597   O     0.51182   0.41434   0.27821   0.00000  Uiso   1.00
O598   O     0.47914   0.59469   0.26767   0.00000  Uiso   1.00
O599   O     0.40785   0.46584   0.23607   0.00000  Uiso   1.00
O600   O     0.60119   0.52512   0.21806   0.00000  Uiso   1.00
O601   O     0.40323   0.52293   0.27820   0.00000  Uiso   1.00
O602   O     0.58773   0.48610   0.26768   0.00000  Uiso   1.00
O603   O     0.47133   0.40236   0.23607   0.00000  Uiso   1.00
O604   O     0.53771   0.58860   0.21806   0.00000  Uiso   1.00
O605   O     0.49027   0.45726   0.16625   0.00000  Uiso   1.00
O606   O     0.46020   0.53979   0.33749   0.00000  Uiso   1.00
O607   O     0.54421   0.50826   0.15877   0.00000  Uiso   1.00
O608   O     0.50532   0.49468   0.33749   0.00000  Uiso   1.00
Zn609  Zn    0.52577   0.47423   0.28278   0.00000  Uiso   1.00
Zn610  Zn    0.46792   0.45711   0.22258   0.00000  Uiso   1.00
Zn611  Zn    0.54500   0.52997   0.21188   0.00000  Uiso   1.00
Zn612  Zn    0.46131   0.53868   0.28277   0.00000  Uiso   1.00
C613   C     0.41056   0.57579   0.05287   0.00000  Uiso   1.00
H614   H     0.40495   0.57136   0.08445   0.00000  Uiso   1.00
H615   H     0.41935   0.60964   0.05072   0.00000  Uiso   1.00
H616   H     0.37968   0.56499   0.04564   0.00000  Uiso   1.00
O617   O     0.58986   0.39700   0.02124   0.00000  Uiso   1.00
C618   C     0.63106   0.41397   0.02563   0.00000  Uiso   1.00
H619   H     0.65138   0.38794   0.01927   0.00000  Uiso   1.00
H620   H     0.62980   0.42785   0.05654   0.00000  Uiso   1.00
C621   C     0.65327   0.44599   0.49621   0.00000  Uiso   1.00
H622   H     0.66440   0.42949   0.46588   0.00000  Uiso   1.00
H623   H     0.63040   0.46776   0.49597   0.00000  Uiso   1.00
C624   C     0.35830   0.47207   0.00726   0.00000  Uiso   1.00
H625   H     0.34703   0.49160   0.03597   0.00000  Uiso   1.00
H626   H     0.37487   0.49291   0.48409   0.00000  Uiso   1.00
H627   H     0.38148   0.45179   0.00971   0.00000  Uiso   1.00
O628   O     0.35758   0.52062   0.20321   0.00000  Uiso   1.00
C629   C     0.35239   0.49763   0.16741   0.00000  Uiso   1.00
H630   H     0.34065   0.51817   0.15154   0.00000  Uiso   1.00
H631   H     0.66240   0.46873   0.17153   0.00000  Uiso   1.00
C632   C     0.39604   0.48466   0.14174   0.00000  Uiso   1.00
H633   H     0.42062   0.51239   0.13907   0.00000  Uiso   1.00
H634   H     0.40616   0.46157   0.15620   0.00000  Uiso   1.00
C635   C     0.39393   0.46527   0.10040   0.00000  Uiso   1.00
H636   H     0.36888   0.43813   0.10215   0.00000  Uiso   1.00
H637   H     0.42553   0.45455   0.08313   0.00000  Uiso   1.00
H638   H     0.38617   0.48865   0.08469   0.00000  Uiso   1.00
C639   C     0.64590   0.47516   0.30193   0.00000  Uiso   1.00
H640   H     0.66572   0.46747   0.31989   0.00000  Uiso   1.00
H641   H     0.62551   0.49930   0.32034   0.00000  Uiso   1.00
H642   H     0.62583   0.44581   0.29547   0.00000  Uiso   1.00
O643   O     0.55783   0.34294   0.23297   0.00000  Uiso   1.00
C644   C     0.57093   0.34831   0.19234   0.00000  Uiso   1.00
H645   H     0.55426   0.37334   0.18711   0.00000  Uiso   1.00
H646   H     0.56401   0.65225   0.17358   0.00000  Uiso   1.00
C647   C     0.61952   0.36130   0.18037   0.00000  Uiso   1.00
H648   H     0.62725   0.38957   0.19996   0.00000  Uiso   1.00
H649   H     0.63628   0.33563   0.18421   0.00000  Uiso   1.00
C650   C     0.63620   0.37075   0.13746   0.00000  Uiso   1.00
H651   H     0.62607   0.34427   0.11752   0.00000  Uiso   1.00
H652   H     0.33860   0.37555   0.12889   0.00000  Uiso   1.00
H653   H     0.62382   0.39944   0.13396   0.00000  Uiso   1.00
C654   C     0.43563   0.65997   0.27348   0.00000  Uiso   1.00
H655   H     0.41315   0.35087   0.28000   0.00000  Uiso   1.00
H656   H     0.42780   0.63661   0.24970   0.00000  Uiso   1.00
H657   H     0.42923   0.64555   0.30128   0.00000  Uiso   1.00
O658   O     0.52024   0.53837   0.09580   0.00000  Uiso   1.00
C659   C     0.55311   0.56639   0.07404   0.00000  Uiso   1.00
H660   H     0.54009   0.59676   0.07781   0.00000  Uiso   1.00
H661   H     0.56316   0.55672   0.04149   0.00000  Uiso   1.00
C662   C     0.59254   0.57329   0.08999   0.00000  Uiso   1.00
H663   H     0.58344   0.58837   0.12108   0.00000  Uiso   1.00
H664   H     0.60401   0.54279   0.08968   0.00000  Uiso   1.00
C665   C     0.62917   0.60089   0.06480   0.00000  Uiso   1.00
H666   H     0.64213   0.58398   0.03494   0.00000  Uiso   1.00
H667   H     0.65548   0.60923   0.07932   0.00000  Uiso   1.00
H668   H     0.61764   0.63008   0.06136   0.00000  Uiso   1.00
O669   O     0.55655   0.40451   0.10487   0.00000  Uiso   1.00
C670   C     0.53502   0.36378   0.09999   0.00000  Uiso   1.00
H671   H     0.55357   0.34183   0.10739   0.00000  Uiso   1.00
H672   H     0.53385   0.35307   0.06903   0.00000  Uiso   1.00
C673   C     0.48935   0.36062   0.12834   0.00000  Uiso   1.00
H674   H     0.49075   0.37222   0.15899   0.00000  Uiso   1.00
H675   H     0.46942   0.38031   0.11971   0.00000  Uiso   1.00
C676   C     0.46808   0.64896   0.12763   0.00000  Uiso   1.00
H677   H     0.46739   0.63610   0.09703   0.00000  Uiso   1.00
H678   H     0.43446   0.64798   0.14713   0.00000  Uiso   1.00
H679   H     0.48599   0.62927   0.13864   0.00000  Uiso   1.00
C680   C     0.56282   0.39694   0.45514   0.00000  Uiso   1.00
H681   H     0.59820   0.40005   0.45000   0.00000  Uiso   1.00
H682   H     0.54726   0.36945   0.47117   0.00000  Uiso   1.00
H683   H     0.55689   0.39056   0.42551   0.00000  Uiso   1.00
O684   O     0.41021   0.60050   0.48378   0.00000  Uiso   1.00
C685   C     0.42806   0.63851   0.46757   0.00000  Uiso   1.00
H686   H     0.41042   0.64343   0.44659   0.00000  Uiso   1.00
H687   H     0.46318   0.63924   0.45158   0.00000  Uiso   1.00
C688   C     0.42259   0.34131   0.00093   0.00000  Uiso   1.00
H689   H     0.38841   0.33989   0.01927   0.00000  Uiso   1.00
H690   H     0.44314   0.33867   0.02016   0.00000  Uiso   1.00
C691   C     0.43575   0.38334   0.48444   0.00000  Uiso   1.00
H692   H     0.46859   0.38412   0.46353   0.00000  Uiso   1.00
H693   H     0.43579   0.40871   0.00912   0.00000  Uiso   1.00
H694   H     0.41280   0.38875   0.46859   0.00000  Uiso   1.00
O695   O     0.41282   0.57254   0.40416   0.00000  Uiso   1.00
C696   C     0.36865   0.55740   0.41833   0.00000  Uiso   1.00
H697   H     0.34970   0.57885   0.41073   0.00000  Uiso   1.00
H698   H     0.35726   0.55781   0.45115   0.00000  Uiso   1.00
C699   C     0.35883   0.51336   0.39840   0.00000  Uiso   1.00
H700   H     0.37156   0.51285   0.36571   0.00000  Uiso   1.00
H701   H     0.37490   0.49084   0.40810   0.00000  Uiso   1.00
C702   C     0.64370   0.49973   0.40911   0.00000  Uiso   1.00
H703   H     0.62969   0.50220   0.44176   0.00000  Uiso   1.00
H704   H     0.63762   0.46678   0.39666   0.00000  Uiso   1.00
H705   H     0.62738   0.51966   0.39668   0.00000  Uiso   1.00
C706   C     0.71949   0.49371   0.25842   0.00000  Uiso   1.00
C707   C     0.77084   0.55613   0.42269   0.00000  Uiso   1.00
C708   C     0.82631   0.51310   0.41906   0.00000  Uiso   1.00
C709   C     0.81728   0.51762   0.46057   0.00000  Uiso   1.00
C710   C     0.78782   0.54635   0.48334   0.00000  Uiso   1.00
C711   C     0.83747   0.49447   0.47964   0.00000  Uiso   1.00
C712   C     0.83248   0.50395   0.02065   0.00000  Uiso   1.00
C713   C     0.80202   0.53102   0.04275   0.00000  Uiso   1.00
C714   C     0.77910   0.55140   0.02525   0.00000  Uiso   1.00
C715   C     0.86011   0.46028   0.45938   0.00000  Uiso   1.00
C716   C     0.87795   0.43614   0.47851   0.00000  Uiso   1.00
C717   C     0.94766   0.50622   0.24098   0.00000  Uiso   1.00
C718   C     0.87582   0.44763   0.01908   0.00000  Uiso   1.00
C719   C     0.85508   0.48334   0.03947   0.00000  Uiso   1.00
C720   C     0.89324   0.42473   0.04056   0.00000  Uiso   1.00
C721   C     0.87997   0.43086   0.08241   0.00000  Uiso   1.00
C722   C     0.85803   0.49747   0.07850   0.00000  Uiso   1.00
C723   C     0.99376   0.50523   0.23592   0.00000  Uiso   1.00
C724   C     0.67409   0.49122   0.26370   0.00000  Uiso   1.00
C725   C     0.84944   0.65640   0.24314   0.00000  Uiso   1.00
C726   C     0.81571   0.34543   0.26049   0.00000  Uiso   1.00
C727   C     0.82229   0.38961   0.25868   0.00000  Uiso   1.00
C728   C     0.84360   0.61111   0.24197   0.00000  Uiso   1.00
C729   C     0.85487   0.47850   0.14391   0.00000  Uiso   1.00
C730   C     0.81187   0.52123   0.35642   0.00000  Uiso   1.00
C731   C     0.80256   0.53048   0.40006   0.00000  Uiso   1.00
C732   C     0.86432   0.46869   0.10097   0.00000  Uiso   1.00
C733   C     0.76753   0.56822   0.46337   0.00000  Uiso   1.00
H734   H     0.85249   0.49633   0.40060   0.00000  Uiso   1.00
H735   H     0.79326   0.53444   0.07464   0.00000  Uiso   1.00
H736   H     0.86137   0.44936   0.42895   0.00000  Uiso   1.00
O737   O     0.83333   0.50000   0.25000   0.00000  Uiso   1.00
O738   O     0.84515   0.41434   0.27821   0.00000  Uiso   1.00
O739   O     0.81247   0.59469   0.26767   0.00000  Uiso   1.00
O740   O     0.74119   0.46584   0.23607   0.00000  Uiso   1.00
O741   O     0.93452   0.52512   0.21806   0.00000  Uiso   1.00
O742   O     0.73656   0.52293   0.27820   0.00000  Uiso   1.00
O743   O     0.92106   0.48610   0.26768   0.00000  Uiso   1.00
O744   O     0.80467   0.40236   0.23607   0.00000  Uiso   1.00
O745   O     0.87104   0.58860   0.21806   0.00000  Uiso   1.00
O746   O     0.82360   0.45726   0.16625   0.00000  Uiso   1.00
O747   O     0.79354   0.53979   0.33749   0.00000  Uiso   1.00
O748   O     0.87755   0.50826   0.15877   0.00000  Uiso   1.00
O749   O     0.83865   0.49468   0.33749   0.00000  Uiso   1.00
Zn750  Zn    0.85910   0.47423   0.28278   0.00000  Uiso   1.00
Zn751  Zn    0.80125   0.45711   0.22258   0.00000  Uiso   1.00
Zn752  Zn    0.87833   0.52997   0.21188   0.00000  Uiso   1.00
Zn753  Zn    0.79465   0.53868   0.28277   0.00000  Uiso   1.00
C754   C     0.74389   0.57579   0.05287   0.00000  Uiso   1.00
H755   H     0.73828   0.57136   0.08445   0.00000  Uiso   1.00
H756   H     0.75268   0.60964   0.05072   0.00000  Uiso   1.00
H757   H     0.71302   0.56499   0.04564   0.00000  Uiso   1.00
O758   O     0.92319   0.39700   0.02124   0.00000  Uiso   1.00
C759   C     0.96439   0.41397   0.02563   0.00000  Uiso   1.00
H760   H     0.98472   0.38794   0.01927   0.00000  Uiso   1.00
H761   H     0.96313   0.42785   0.05654   0.00000  Uiso   1.00
C762   C     0.98661   0.44599   0.49621   0.00000  Uiso   1.00
H763   H     0.99773   0.42949   0.46588   0.00000  Uiso   1.00
H764   H     0.96373   0.46776   0.49597   0.00000  Uiso   1.00
C765   C     0.69163   0.47207   0.00726   0.00000  Uiso   1.00
H766   H     0.68036   0.49160   0.03597   0.00000  Uiso   1.00
H767   H     0.70820   0.49291   0.48409   0.00000  Uiso   1.00
H768   H     0.71482   0.45179   0.00971   0.00000  Uiso   1.00
O769   O     0.69092   0.52062   0.20321   0.00000  Uiso   1.00
C770   C     0.68572   0.49763   0.16741   0.00000  Uiso   1.00
H771   H     0.67398   0.51817   0.15154   0.00000  Uiso   1.00
H772   H     0.99573   0.46873   0.17153   0.00000  Uiso   1.00
C773   C     0.72938   0.48466   0.14174   0.00000  Uiso   1.00
H774   H     0.75395   0.51239   0.13907   0.00000  Uiso   1.00
H775   H     0.73950   0.46157   0.15620   0.00000  Uiso   1.00
C776   C     0.72726   0.46527   0.10040   0.00000  Uiso   1.00
H777   H     0.70221   0.43813   0.10215   0.00000  Uiso   1.00
H778   H     0.75886   0.45455   0.08313   0.00000  Uiso   1.00
H779   H     0.71951   0.48865   0.08469   0.00000  Uiso   1.00
C780   C     0.97924   0.47516   0.30193   0.00000  Uiso   1.00
H781   H     0.99905   0.46747   0.31989   0.00000  Uiso   1.00
H782   H     0.95884   0.49930   0.32034   0.00000  Uiso   1.00
H783   H     0.95916   0.44581   0.29547   0.00000  Uiso   1.00
O784   O     0.89116   0.34294   0.23297   0.00000  Uiso   1.00
C785   C     0.90426   0.34831   0.19234   0.00000  Uiso   1.00
H786   H     0.88759   0.37334   0.18711   0.00000  Uiso   1.00
H787   H     0.89734   0.65225   0.17358   0.00000  Uiso   1.00
C788   C     0.95285   0.36130   0.18037   0.00000  Uiso   1.00
H789   H     0.96059   0.38957   0.19996   0.00000  Uiso   1.00
H790   H     0.96961   0.33563   0.18421   0.00000  Uiso   1.00
C791   C     0.96953   0.37075   0.13746   0.00000  Uiso   1.00
H792   H     0.95940   0.34427   0.11752   0.00000  Uiso   1.00
H793   H     0.67194   0.37555   0.12889   0.00000  Uiso   1.00
H794   H     0.95716   0.39944   0.13396   0.00000  Uiso   1.00
C795   C     0.76896   0.65997   0.27348   0.00000  Uiso   1.00
H796   H     0.74648   0.35087   0.28000   0.00000  Uiso   1.00
H797   H     0.76114   0.63661   0.24970   0.00000  Uiso   1.00
H798   H     0.76257   0.64555   0.30128   0.00000  Uiso   1.00
O799   O     0.85358   0.53837   0.09580   0.00000  Uiso   1.00
C800   C     0.88644   0.56639   0.07404   0.00000  Uiso   1.00
H801   H     0.87342   0.59676   0.07781   0.00000  Uiso   1.00
H802   H     0.89649   0.55672   0.04149   0.00000  Uiso   1.00
C803   C     0.92587   0.57329   0.08999   0.00000  Uiso   1.00
H804   H     0.91677   0.58837   0.12108   0.00000  Uiso   1.00
H805   H     0.93734   0.54279   0.08968   0.00000  Uiso   1.00
C806   C     0.96250   0.60089   0.06480   0.00000  Uiso   1.00
H807   H     0.97546   0.58398   0.03494   0.00000  Uiso   1.00
H808   H     0.98881   0.60923   0.07932   0.00000  Uiso   1.00
H809   H     0.95097   0.63008   0.06136   0.00000  Uiso   1.00
O810   O     0.88988   0.40451   0.10487   0.00000  Uiso   1.00
C811   C     0.86836   0.36378   0.09999   0.00000  Uiso   1.00
H812   H     0.88691   0.34183   0.10739   0.00000  Uiso   1.00
H813   H     0.86718   0.35307   0.06903   0.00000  Uiso   1.00
C814   C     0.82269   0.36062   0.12834   0.00000  Uiso   1.00
H815   H     0.82409   0.37222   0.15899   0.00000  Uiso   1.00
H816   H     0.80275   0.38031   0.11971   0.00000  Uiso   1.00
C817   C     0.80141   0.64896   0.12763   0.00000  Uiso   1.00
H818   H     0.80072   0.63610   0.09703   0.00000  Uiso   1.00
H819   H     0.76780   0.64798   0.14713   0.00000  Uiso   1.00
H820   H     0.81932   0.62927   0.13864   0.00000  Uiso   1.00
C821   C     0.89615   0.39694   0.45514   0.00000  Uiso   1.00
H822   H     0.93153   0.40005   0.45000   0.00000  Uiso   1.00
H823   H     0.88060   0.36945   0.47117   0.00000  Uiso   1.00
H824   H     0.89023   0.39056   0.42551   0.00000  Uiso   1.00
O825   O     0.74354   0.60050   0.48378   0.00000  Uiso   1.00
C826   C     0.76139   0.63851   0.46757   0.00000  Uiso   1.00
H827   H     0.74375   0.64343   0.44659   0.00000  Uiso   1.00
H828   H     0.79651   0.63924   0.45158   0.00000  Uiso   1.00
C829   C     0.75592   0.34131   0.00093   0.00000  Uiso   1.00
H830   H     0.72174   0.33989   0.01927   0.00000  Uiso   1.00
H831   H     0.77648   0.33867   0.02016   0.00000  Uiso   1.00
C832   C     0.76909   0.38334   0.48444   0.00000  Uiso   1.00
H833   H     0.80192   0.38412   0.46353   0.00000  Uiso   1.00
H834   H     0.76913   0.40871   0.00912   0.00000  Uiso   1.00
H835   H     0.74613   0.38875   0.46859   0.00000  Uiso   1.00
O836   O     0.74615   0.57254   0.40416   0.00000  Uiso   1.00
C837   C     0.70199   0.55740   0.41833   0.00000  Uiso   1.00
H838   H     0.68303   0.57885   0.41073   0.00000  Uiso   1.00
H839   H     0.69059   0.55781   0.45115   0.00000  Uiso   1.00
C840   C     0.69216   0.51336   0.39840   0.00000  Uiso   1.00
H841   H     0.70489   0.51285   0.36571   0.00000  Uiso   1.00
H842   H     0.70823   0.49084   0.40810   0.00000  Uiso   1.00
C843   C     0.97703   0.49973   0.40911   0.00000  Uiso   1.00
H844   H     0.96302   0.50220   0.44176   0.00000  Uiso   1.00
H845   H     0.97095   0.46678   0.39666   0.00000  Uiso   1.00
H846   H     0.96071   0.51966   0.39668   0.00000  Uiso   1.00
C847   C     0.05283   0.82705   0.25842   0.00000  Uiso   1.00
C848   C     0.10418   0.88946   0.42269   0.00000  Uiso   1.00
C849   C     0.15965   0.84643   0.41906   0.00000  Uiso   1.00
C850   C     0.15061   0.85096   0.46057   0.00000  Uiso   1.00
C851   C     0.12115   0.87968   0.48334   0.00000  Uiso   1.00
C852   C     0.17080   0.82780   0.47964   0.00000  Uiso   1.00
C853   C     0.16581   0.83729   0.02065   0.00000  Uiso   1.00
C854   C     0.13535   0.86436   0.04275   0.00000  Uiso   1.00
C855   C     0.11244   0.88474   0.02525   0.00000  Uiso   1.00
C856   C     0.19345   0.79361   0.45938   0.00000  Uiso   1.00
C857   C     0.21128   0.76947   0.47851   0.00000  Uiso   1.00
C858   C     0.28099   0.83955   0.24098   0.00000  Uiso   1.00
C859   C     0.20915   0.78096   0.01908   0.00000  Uiso   1.00
C860   C     0.18842   0.81667   0.03947   0.00000  Uiso   1.00
C861   C     0.22657   0.75806   0.04056   0.00000  Uiso   1.00
C862   C     0.21330   0.76420   0.08241   0.00000  Uiso   1.00
C863   C     0.19137   0.83080   0.07850   0.00000  Uiso   1.00
C864   C     0.32709   0.83856   0.23592   0.00000  Uiso   1.00
C865   C     0.00742   0.82455   0.26370   0.00000  Uiso   1.00
C866   C     0.18278   0.98974   0.24314   0.00000  Uiso   1.00
C867   C     0.14904   0.67877   0.26049   0.00000  Uiso   1.00
C868   C     0.15563   0.72295   0.25868   0.00000  Uiso   1.00
C869   C     0.17693   0.94444   0.24197   0.00000  Uiso   1.00
C870   C     0.18821   0.81183   0.14391   0.00000  Uiso   1.00
C871   C     0.14520   0.85456   0.35642   0.00000  Uiso   1.00
C872   C     0.13589   0.86382   0.40006   0.00000  Uiso   1.00
C873   C     0.19766   0.80203   0.10097   0.00000  Uiso   1.00
C874   C     0.10087   0.90156   0.46337   0.00000  Uiso   1.00
H875   H     0.18582   0.82966   0.40060   0.00000  Uiso   1.00
H876   H     0.12659   0.86777   0.07464   0.00000  Uiso   1.00
H877   H     0.19470   0.78270   0.42895   0.00000  Uiso   1.00
O878   O     0.16667   0.83333   0.25000   0.00000  Uiso   1.00
O879   O     0.17849   0.74768   0.27821   0.00000  Uiso   1.00
O880   O     0.14581   0.92803   0.26767   0.00000  Uiso   1.00
O881   O     0.07452   0.79917   0.23607   0.00000  Uiso   1.00
O882   O     0.26785   0.85845   0.21806   0.00000  Uiso   1.00
O883   O     0.06990   0.85627   0.27820   0.00000  Uiso   1.00
O884   O     0.25440   0.81944   0.26768   0.00000  Uiso   1.00
O885   O     0.13800   0.73570   0.23607   0.00000  Uiso   1.00
O886   O     0.20437   0.92193   0.21806   0.00000  Uiso   1.00
O887   O     0.15693   0.79060   0.16625   0.00000  Uiso   1.00
O888   O     0.12687   0.87313   0.33749   0.00000  Uiso   1.00
O889   O     0.21088   0.84159   0.15877   0.00000  Uiso   1.00
O890   O     0.17198   0.82802   0.33749   0.00000  Uiso   1.00
Zn891  Zn    0.19244   0.80756   0.28278   0.00000  Uiso   1.00
Zn892  Zn    0.13459   0.79044   0.22258   0.00000  Uiso   1.00
Zn893  Zn    0.21166   0.86331   0.21188   0.00000  Uiso   1.00
Zn894  Zn    0.12798   0.87202   0.28277   0.00000  Uiso   1.00
C895   C     0.07722   0.90912   0.05287   0.00000  Uiso   1.00
H896   H     0.07161   0.90469   0.08445   0.00000  Uiso   1.00
H897   H     0.08601   0.94297   0.05072   0.00000  Uiso   1.00
H898   H     0.04635   0.89832   0.04564   0.00000  Uiso   1.00
O899   O     0.25652   0.73034   0.02124   0.00000  Uiso   1.00
C900   C     0.29773   0.74730   0.02563   0.00000  Uiso   1.00
H901   H     0.31805   0.72127   0.01927   0.00000  Uiso   1.00
H902   H     0.29646   0.76118   0.05654   0.00000  Uiso   1.00
C903   C     0.31994   0.77933   0.49621   0.00000  Uiso   1.00
H904   H     0.33106   0.76282   0.46588   0.00000  Uiso   1.00
H905   H     0.29706   0.80109   0.49597   0.00000  Uiso   1.00
C906   C     0.02496   0.80540   0.00726   0.00000  Uiso   1.00
H907   H     0.01369   0.82494   0.03597   0.00000  Uiso   1.00
H908   H     0.04154   0.82625   0.48409   0.00000  Uiso   1.00
H909   H     0.04815   0.78513   0.00971   0.00000  Uiso   1.00
O910   O     0.02425   0.85395   0.20321   0.00000  Uiso   1.00
C911   C     0.01906   0.83096   0.16741   0.00000  Uiso   1.00
H912   H     0.00732   0.85151   0.15154   0.00000  Uiso   1.00
H913   H     0.32906   0.80207   0.17153   0.00000  Uiso   1.00
C914   C     0.06271   0.81799   0.14174   0.00000  Uiso   1.00
H915   H     0.08728   0.84573   0.13907   0.00000  Uiso   1.00
H916   H     0.07283   0.79490   0.15620   0.00000  Uiso   1.00
C917   C     0.06059   0.79860   0.10040   0.00000  Uiso   1.00
H918   H     0.03554   0.77146   0.10215   0.00000  Uiso   1.00
H919   H     0.09219   0.78789   0.08313   0.00000  Uiso   1.00
H920   H     0.05284   0.82198   0.08469   0.00000  Uiso   1.00
C921   C     0.31257   0.80850   0.30193   0.00000  Uiso   1.00
H922   H     0.33238   0.80080   0.31989   0.00000  Uiso   1.00
H923   H     0.29218   0.83263   0.32034   0.00000  Uiso   1.00
H924   H     0.29250   0.77915   0.29547   0.00000  Uiso   1.00
O925   O     0.22449   0.67627   0.23297   0.00000  Uiso   1.00
C926   C     0.23759   0.68164   0.19234   0.00000  Uiso   1.00
H927   H     0.22092   0.70668   0.18711   0.00000  Uiso   1.00
H928   H     0.23068   0.98558   0.17358   0.00000  Uiso   1.00
C929   C     0.28619   0.69464   0.18037   0.00000  Uiso   1.00
H930   H     0.29392   0.72290   0.19996   0.00000  Uiso   1.00
H931   H     0.30294   0.66896   0.18421   0.00000  Uiso   1.00
C932   C     0.30287   0.70409   0.13746   0.00000  Uiso   1.00
H933   H     0.29273   0.67760   0.11752   0.00000  Uiso   1.00
H934   H     0.00527   0.70889   0.12889   0.00000  Uiso   1.00
H935   H     0.29049   0.73277   0.13396   0.00000  Uiso   1.00
C936   C     0.10230   0.99331   0.27348   0.00000  Uiso   1.00
H937   H     0.07981   0.68421   0.28000   0.00000  Uiso   1.00
H938   H     0.09447   0.96994   0.24970   0.00000  Uiso   1.00
H939   H     0.09590   0.97888   0.30128   0.00000  Uiso   1.00
O940   O     0.18691   0.87171   0.09580   0.00000  Uiso   1.00
C941   C     0.21978   0.89973   0.07404   0.00000  Uiso   1.00
H942   H     0.20675   0.93010   0.07781   0.00000  Uiso   1.00
H943   H     0.22982   0.89005   0.04149   0.00000  Uiso   1.00
C944   C     0.25920   0.90662   0.08999   0.00000  Uiso   1.00
H945   H     0.25011   0.92170   0.12108   0.00000  Uiso   1.00
H946   H     0.27067   0.87612   0.08968   0.00000  Uiso   1.00
C947   C     0.29583   0.93422   0.06480   0.00000  Uiso   1.00
H948   H     0.30879   0.91731   0.03494   0.00000  Uiso   1.00
H949   H     0.32215   0.94256   0.07932   0.00000  Uiso   1.00
H950   H     0.28431   0.96341   0.06136   0.00000  Uiso   1.00
O951   O     0.22322   0.73784   0.10487   0.00000  Uiso   1.00
C952   C     0.20169   0.69711   0.09999   0.00000  Uiso   1.00
H953   H     0.22024   0.67516   0.10739   0.00000  Uiso   1.00
H954   H     0.20051   0.68640   0.06903   0.00000  Uiso   1.00
C955   C     0.15602   0.69396   0.12834   0.00000  Uiso   1.00
H956   H     0.15742   0.70555   0.15899   0.00000  Uiso   1.00
H957   H     0.13609   0.71364   0.11971   0.00000  Uiso   1.00
C958   C     0.13474   0.98230   0.12763   0.00000  Uiso   1.00
H959   H     0.13406   0.96943   0.09703   0.00000  Uiso   1.00
H960   H     0.10113   0.98131   0.14713   0.00000  Uiso   1.00
H961   H     0.15266   0.96260   0.13864   0.00000  Uiso   1.00
C962   C     0.22949   0.73027   0.45514   0.00000  Uiso   1.00
H963   H     0.26486   0.73339   0.45000   0.00000  Uiso   1.00
H964   H     0.21393   0.70279   0.47117   0.00000  Uiso   1.00
H965   H     0.22356   0.72389   0.42551   0.00000  Uiso   1.00
O966   O     0.07687   0.93384   0.48378   0.00000  Uiso   1.00
C967   C     0.09473   0.97184   0.46757   0.00000  Uiso   1.00
H968   H     0.07708   0.97677   0.44659   0.00000  Uiso   1.00
H969   H     0.12985   0.97258   0.45158   0.00000  Uiso   1.00
C970   C     0.08925   0.67464   0.00093   0.00000  Uiso   1.00
H971   H     0.05507   0.67323   0.01927   0.00000  Uiso   1.00
H972   H     0.10981   0.67200   0.02016   0.00000  Uiso   1.00
C973   C     0.10242   0.71668   0.48444   0.00000  Uiso   1.00
H974   H     0.13526   0.71746   0.46353   0.00000  Uiso   1.00
H975   H     0.10246   0.74204   0.00912   0.00000  Uiso   1.00
H976   H     0.07946   0.72208   0.46859   0.00000  Uiso   1.00
O977   O     0.07948   0.90588   0.40416   0.00000  Uiso   1.00
C978   C     0.03532   0.89073   0.41833   0.00000  Uiso   1.00
H979   H     0.01637   0.91219   0.41073   0.00000  Uiso   1.00
H980   H     0.02392   0.89114   0.45115   0.00000  Uiso   1.00
C981   C     0.02549   0.84669   0.39840   0.00000  Uiso   1.00
H982   H     0.03823   0.84618   0.36571   0.00000  Uiso   1.00
H983   H     0.04156   0.82418   0.40810   0.00000  Uiso   1.00
C984   C     0.31037   0.83307   0.40911   0.00000  Uiso   1.00
H985   H     0.29635   0.83553   0.44176   0.00000  Uiso   1.00
H986   H     0.30428   0.80011   0.39666   0.00000  Uiso   1.00
H987   H     0.29405   0.85299   0.39668   0.00000  Uiso   1.00
C988   C     0.38616   0.82705   0.25842   0.00000  Uiso   1.00
C989   C     0.43751   0.88946   0.42269   0.00000  Uiso   1.00
C990   C     0.49298   0.84643   0.41906   0.00000  Uiso   1.00
C991   C     0.48394   0.85096   0.46057   0.00000  Uiso   1.00
C992   C     0.45448   0.87968   0.48334   0.00000  Uiso   1.00
C993   C     0.50414   0.82780   0.47964   0.00000  Uiso   1.00
C994   C     0.49915   0.83729   0.02065   0.00000  Uiso   1.00
C995   C     0.46868   0.86436   0.04275   0.00000  Uiso   1.00
C996   C     0.44577   0.88474   0.02525   0.00000  Uiso   1.00
C997   C     0.52678   0.79361   0.45938   0.00000  Uiso   1.00
C998   C     0.54461   0.76947   0.47851   0.00000  Uiso   1.00
C999   C     0.61433   0.83955   0.24098   0.00000  Uiso   1.00
C1000  C     0.54248   0.78096   0.01908   0.00000  Uiso   1.00
C1001  C     0.52175   0.81667   0.03947   0.00000  Uiso   1.00
C1002  C     0.55990   0.75806   0.04056   0.00000  Uiso   1.00
C1003  C     0.54663   0.76420   0.08241   0.00000  Uiso   1.00
C1004  C     0.52470   0.83080   0.07850   0.00000  Uiso   1.00
C1005  C     0.66043   0.83856   0.23592   0.00000  Uiso   1.00
C1006  C     0.34075   0.82455   0.26370   0.00000  Uiso   1.00
C1007  C     0.51611   0.98974   0.24314   0.00000  Uiso   1.00
C1008  C     0.48237   0.67877   0.26049   0.00000  Uiso   1.00
C1009  C     0.48896   0.72295   0.25868   0.00000  Uiso   1.00
C1010  C     0.51027   0.94444   0.24197   0.00000  Uiso   1.00
C1011  C     0.52154   0.81183   0.14391   0.00000  Uiso   1.00
C1012  C     0.47853   0.85456   0.35642   0.00000  Uiso   1.00
C1013  C     0.46922   0.86382   0.40006   0.00000  Uiso   1.00
C1014  C     0.53099   0.80203   0.10097   0.00000  Uiso   1.00
C1015  C     0.43420   0.90156   0.46337   0.00000  Uiso   1.00
H1016  H     0.51915   0.82966   0.40060   0.00000  Uiso   1.00
H1017  H     0.45993   0.86777   0.07464   0.00000  Uiso   1.00
H1018  H     0.52804   0.78270   0.42895   0.00000  Uiso   1.00
O1019  O     0.50000   0.83333   0.25000   0.00000  Uiso   1.00
O1020  O     0.51182   0.74768   0.27821   0.00000  Uiso   1.00
O1021  O     0.47914   0.92803   0.26767   0.00000  Uiso   1.00
O1022  O     0.40785   0.79917   0.23607   0.00000  Uiso   1.00
O1023  O     0.60119   0.85845   0.21806   0.00000  Uiso   1.00
O1024  O     0.40323   0.85627   0.27820   0.00000  Uiso   1.00
O1025  O     0.58773   0.81944   0.26768   0.00000  Uiso   1.00
O1026  O     0.47133   0.73570   0.23607   0.00000  Uiso   1.00
O1027  O     0.53771   0.92193   0.21806   0.00000  Uiso   1.00
O1028  O     0.49027   0.79060   0.16625   0.00000  Uiso   1.00
O1029  O     0.46020   0.87313   0.33749   0.00000  Uiso   1.00
O1030  O     0.54421   0.84159   0.15877   0.00000  Uiso   1.00
O1031  O     0.50532   0.82802   0.33749   0.00000  Uiso   1.00
Zn1032 Zn    0.52577   0.80756   0.28278   0.00000  Uiso   1.00
Zn1033 Zn    0.46792   0.79044   0.22258   0.00000  Uiso   1.00
Zn1034 Zn    0.54500   0.86331   0.21188   0.00000  Uiso   1.00
Zn1035 Zn    0.46131   0.87202   0.28277   0.00000  Uiso   1.00
C1036  C     0.41056   0.90912   0.05287   0.00000  Uiso   1.00
H1037  H     0.40495   0.90469   0.08445   0.00000  Uiso   1.00
H1038  H     0.41935   0.94297   0.05072   0.00000  Uiso   1.00
H1039  H     0.37968   0.89832   0.04564   0.00000  Uiso   1.00
O1040  O     0.58986   0.73034   0.02124   0.00000  Uiso   1.00
C1041  C     0.63106   0.74730   0.02563   0.00000  Uiso   1.00
H1042  H     0.65138   0.72127   0.01927   0.00000  Uiso   1.00
H1043  H     0.62980   0.76118   0.05654   0.00000  Uiso   1.00
C1044  C     0.65327   0.77933   0.49621   0.00000  Uiso   1.00
H1045  H     0.66440   0.76282   0.46588   0.00000  Uiso   1.00
H1046  H     0.63040   0.80109   0.49597   0.00000  Uiso   1.00
C1047  C     0.35830   0.80540   0.00726   0.00000  Uiso   1.00
H1048  H     0.34703   0.82494   0.03597   0.00000  Uiso   1.00
H1049  H     0.37487   0.82625   0.48409   0.00000  Uiso   1.00
H1050  H     0.38148   0.78513   0.00971   0.00000  Uiso   1.00
O1051  O     0.35758   0.85395   0.20321   0.00000  Uiso   1.00
C1052  C     0.35239   0.83096   0.16741   0.00000  Uiso   1.00
H1053  H     0.34065   0.85151   0.15154   0.00000  Uiso   1.00
H1054  H     0.66240   0.80207   0.17153   0.00000  Uiso   1.00
C1055  C     0.39604   0.81799   0.14174   0.00000  Uiso   1.00
H1056  H     0.42062   0.84573   0.13907   0.00000  Uiso   1.00
H1057  H     0.40616   0.79490   0.15620   0.00000  Uiso   1.00
C1058  C     0.39393   0.79860   0.10040   0.00000  Uiso   1.00
H1059  H     0.36888   0.77146   0.10215   0.00000  Uiso   1.00
H1060  H     0.42553   0.78789   0.08313   0.00000  Uiso   1.00
H1061  H     0.38617   0.82198   0.08469   0.00000  Uiso   1.00
C1062  C     0.64590   0.80850   0.30193   0.00000  Uiso   1.00
H1063  H     0.66572   0.80080   0.31989   0.00000  Uiso   1.00
H1064  H     0.62551   0.83263   0.32034   0.00000  Uiso   1.00
H1065  H     0.62583   0.77915   0.29547   0.00000  Uiso   1.00
O1066  O     0.55783   0.67627   0.23297   0.00000  Uiso   1.00
C1067  C     0.57093   0.68164   0.19234   0.00000  Uiso   1.00
H1068  H     0.55426   0.70668   0.18711   0.00000  Uiso   1.00
H1069  H     0.56401   0.98558   0.17358   0.00000  Uiso   1.00
C1070  C     0.61952   0.69464   0.18037   0.00000  Uiso   1.00
H1071  H     0.62725   0.72290   0.19996   0.00000  Uiso   1.00
H1072  H     0.63628   0.66896   0.18421   0.00000  Uiso   1.00
C1073  C     0.63620   0.70409   0.13746   0.00000  Uiso   1.00
H1074  H     0.62607   0.67760   0.11752   0.00000  Uiso   1.00
H1075  H     0.33860   0.70889   0.12889   0.00000  Uiso   1.00
H1076  H     0.62382   0.73277   0.13396   0.00000  Uiso   1.00
C1077  C     0.43563   0.99331   0.27348   0.00000  Uiso   1.00
H1078  H     0.41315   0.68421   0.28000   0.00000  Uiso   1.00
H1079  H     0.42780   0.96994   0.24970   0.00000  Uiso   1.00
H1080  H     0.42923   0.97888   0.30128   0.00000  Uiso   1.00
O1081  O     0.52024   0.87171   0.09580   0.00000  Uiso   1.00
C1082  C     0.55311   0.89973   0.07404   0.00000  Uiso   1.00
H1083  H     0.54009   0.93010   0.07781   0.00000  Uiso   1.00
H1084  H     0.56316   0.89005   0.04149   0.00000  Uiso   1.00
C1085  C     0.59254   0.90662   0.08999   0.00000  Uiso   1.00
H1086  H     0.58344   0.92170   0.12108   0.00000  Uiso   1.00
H1087  H     0.60401   0.87612   0.08968   0.00000  Uiso   1.00
C1088  C     0.62917   0.93422   0.06480   0.00000  Uiso   1.00
H1089  H     0.64213   0.91731   0.03494   0.00000  Uiso   1.00
H1090  H     0.65548   0.94256   0.07932   0.00000  Uiso   1.00
H1091  H     0.61764   0.96341   0.06136   0.00000  Uiso   1.00
O1092  O     0.55655   0.73784   0.10487   0.00000  Uiso   1.00
C1093  C     0.53502   0.69711   0.09999   0.00000  Uiso   1.00
H1094  H     0.55357   0.67516   0.10739   0.00000  Uiso   1.00
H1095  H     0.53385   0.68640   0.06903   0.00000  Uiso   1.00
C1096  C     0.48935   0.69396   0.12834   0.00000  Uiso   1.00
H1097  H     0.49075   0.70555   0.15899   0.00000  Uiso   1.00
H1098  H     0.46942   0.71364   0.11971   0.00000  Uiso   1.00
C1099  C     0.46808   0.98230   0.12763   0.00000  Uiso   1.00
H1100  H     0.46739   0.96943   0.09703   0.00000  Uiso   1.00
H1101  H     0.43446   0.98131   0.14713   0.00000  Uiso   1.00
H1102  H     0.48599   0.96260   0.13864   0.00000  Uiso   1.00
C1103  C     0.56282   0.73027   0.45514   0.00000  Uiso   1.00
H1104  H     0.59820   0.73339   0.45000   0.00000  Uiso   1.00
H1105  H     0.54726   0.70279   0.47117   0.00000  Uiso   1.00
H1106  H     0.55689   0.72389   0.42551   0.00000  Uiso   1.00
O1107  O     0.41021   0.93384   0.48378   0.00000  Uiso   1.00
C1108  C     0.42806   0.97184   0.46757   0.00000  Uiso   1.00
H1109  H     0.41042   0.97677   0.44659   0.00000  Uiso   1.00
H1110  H     0.46318   0.97258   0.45158   0.00000  Uiso   1.00
C1111  C     0.42259   0.67464   0.00093   0.00000  Uiso   1.00
H1112  H     0.38841   0.67323   0.01927   0.00000  Uiso   1.00
H1113  H     0.44314   0.67200   0.02016   0.00000  Uiso   1.00
C1114  C     0.43575   0.71668   0.48444   0.00000  Uiso   1.00
H1115  H     0.46859   0.71746   0.46353   0.00000  Uiso   1.00
H1116  H     0.43579   0.74204   0.00912   0.00000  Uiso   1.00
H1117  H     0.41280   0.72208   0.46859   0.00000  Uiso   1.00
O1118  O     0.41282   0.90588   0.40416   0.00000  Uiso   1.00
C1119  C     0.36865   0.89073   0.41833   0.00000  Uiso   1.00
H1120  H     0.34970   0.91219   0.41073   0.00000  Uiso   1.00
H1121  H     0.35726   0.89114   0.45115   0.00000  Uiso   1.00
C1122  C     0.35883   0.84669   0.39840   0.00000  Uiso   1.00
H1123  H     0.37156   0.84618   0.36571   0.00000  Uiso   1.00
H1124  H     0.37490   0.82418   0.40810   0.00000  Uiso   1.00
C1125  C     0.64370   0.83307   0.40911   0.00000  Uiso   1.00
H1126  H     0.62969   0.83553   0.44176   0.00000  Uiso   1.00
H1127  H     0.63762   0.80011   0.39666   0.00000  Uiso   1.00
H1128  H     0.62738   0.85299   0.39668   0.00000  Uiso   1.00
C1129  C     0.71949   0.82705   0.25842   0.00000  Uiso   1.00
C1130  C     0.77084   0.88946   0.42269   0.00000  Uiso   1.00
C1131  C     0.82631   0.84643   0.41906   0.00000  Uiso   1.00
C1132  C     0.81728   0.85096   0.46057   0.00000  Uiso   1.00
C1133  C     0.78782   0.87968   0.48334   0.00000  Uiso   1.00
C1134  C     0.83747   0.82780   0.47964   0.00000  Uiso   1.00
C1135  C     0.83248   0.83729   0.02065   0.00000  Uiso   1.00
C1136  C     0.80202   0.86436   0.04275   0.00000  Uiso   1.00
C1137  C     0.77910   0.88474   0.02525   0.00000  Uiso   1.00
C1138  C     0.86011   0.79361   0.45938   0.00000  Uiso   1.00
C1139  C     0.87795   0.76947   0.47851   0.00000  Uiso   1.00
C1140  C     0.94766   0.83955   0.24098   0.00000  Uiso   1.00
C1141  C     0.87582   0.78096   0.01908   0.00000  Uiso   1.00
C1142  C     0.85508   0.81667   0.03947   0.00000  Uiso   1.00
C1143  C     0.89324   0.75806   0.04056   0.00000  Uiso   1.00
C1144  C     0.87997   0.76420   0.08241   0.00000  Uiso   1.00
C1145  C     0.85803   0.83080   0.07850   0.00000  Uiso   1.00
C1146  C     0.99376   0.83856   0.23592   0.00000  Uiso   1.00
C1147  C     0.67409   0.82455   0.26370   0.00000  Uiso   1.00
C1148  C     0.84944   0.98974   0.24314   0.00000  Uiso   1.00
C1149  C     0.81571   0.67877   0.26049   0.00000  Uiso   1.00
C1150  C     0.82229   0.72295   0.25868   0.00000  Uiso   1.00
C1151  C     0.84360   0.94444   0.24197   0.00000  Uiso   1.00
C1152  C     0.85487   0.81183   0.14391   0.00000  Uiso   1.00
C1153  C     0.81187   0.85456   0.35642   0.00000  Uiso   1.00
C1154  C     0.80256   0.86382   0.40006   0.00000  Uiso   1.00
C1155  C     0.86432   0.80203   0.10097   0.00000  Uiso   1.00
C1156  C     0.76753   0.90156   0.46337   0.00000  Uiso   1.00
H1157  H     0.85249   0.82966   0.40060   0.00000  Uiso   1.00
H1158  H     0.79326   0.86777   0.07464   0.00000  Uiso   1.00
H1159  H     0.86137   0.78270   0.42895   0.00000  Uiso   1.00
O1160  O     0.83333   0.83333   0.25000   0.00000  Uiso   1.00
O1161  O     0.84515   0.74768   0.27821   0.00000  Uiso   1.00
O1162  O     0.81247   0.92803   0.26767   0.00000  Uiso   1.00
O1163  O     0.74119   0.79917   0.23607   0.00000  Uiso   1.00
O1164  O     0.93452   0.85845   0.21806   0.00000  Uiso   1.00
O1165  O     0.73656   0.85627   0.27820   0.00000  Uiso   1.00
O1166  O     0.92106   0.81944   0.26768   0.00000  Uiso   1.00
O1167  O     0.80467   0.73570   0.23607   0.00000  Uiso   1.00
O1168  O     0.87104   0.92193   0.21806   0.00000  Uiso   1.00
O1169  O     0.82360   0.79060   0.16625   0.00000  Uiso   1.00
O1170  O     0.79354   0.87313   0.33749   0.00000  Uiso   1.00
O1171  O     0.87755   0.84159   0.15877   0.00000  Uiso   1.00
O1172  O     0.83865   0.82802   0.33749   0.00000  Uiso   1.00
Zn1173 Zn    0.85910   0.80756   0.28278   0.00000  Uiso   1.00
Zn1174 Zn    0.80125   0.79044   0.22258   0.00000  Uiso   1.00
Zn1175 Zn    0.87833   0.86331   0.21188   0.00000  Uiso   1.00
Zn1176 Zn    0.79465   0.87202   0.28277   0.00000  Uiso   1.00
C1177  C     0.74389   0.90912   0.05287   0.00000  Uiso   1.00
H1178  H     0.73828   0.90469   0.08445   0.00000  Uiso   1.00
H1179  H     0.75268   0.94297   0.05072   0.00000  Uiso   1.00
H1180  H     0.71302   0.89832   0.04564   0.00000  Uiso   1.00
O1181  O     0.92319   0.73034   0.02124   0.00000  Uiso   1.00
C1182  C     0.96439   0.74730   0.02563   0.00000  Uiso   1.00
H1183  H     0.98472   0.72127   0.01927   0.00000  Uiso   1.00
H1184  H     0.96313   0.76118   0.05654   0.00000  Uiso   1.00
C1185  C     0.98661   0.77933   0.49621   0.00000  Uiso   1.00
H1186  H     0.99773   0.76282   0.46588   0.00000  Uiso   1.00
H1187  H     0.96373   0.80109   0.49597   0.00000  Uiso   1.00
C1188  C     0.69163   0.80540   0.00726   0.00000  Uiso   1.00
H1189  H     0.68036   0.82494   0.03597   0.00000  Uiso   1.00
H1190  H     0.70820   0.82625   0.48409   0.00000  Uiso   1.00
H1191  H     0.71482   0.78513   0.00971   0.00000  Uiso   1.00
O1192  O     0.69092   0.85395   0.20321   0.00000  Uiso   1.00
C1193  C     0.68572   0.83096   0.16741   0.00000  Uiso   1.00
H1194  H     0.67398   0.85151   0.15154   0.00000  Uiso   1.00
H1195  H     0.99573   0.80207   0.17153   0.00000  Uiso   1.00
C1196  C     0.72938   0.81799   0.14174   0.00000  Uiso   1.00
H1197  H     0.75395   0.84573   0.13907   0.00000  Uiso   1.00
H1198  H     0.73950   0.79490   0.15620   0.00000  Uiso   1.00
C1199  C     0.72726   0.79860   0.10040   0.00000  Uiso   1.00
H1200  H     0.70221   0.77146   0.10215   0.00000  Uiso   1.00
H1201  H     0.75886   0.78789   0.08313   0.00000  Uiso   1.00
H1202  H     0.71951   0.82198   0.08469   0.00000  Uiso   1.00
C1203  C     0.97924   0.80850   0.30193   0.00000  Uiso   1.00
H1204  H     0.99905   0.80080   0.31989   0.00000  Uiso   1.00
H1205  H     0.95884   0.83263   0.32034   0.00000  Uiso   1.00
H1206  H     0.95916   0.77915   0.29547   0.00000  Uiso   1.00
O1207  O     0.89116   0.67627   0.23297   0.00000  Uiso   1.00
C1208  C     0.90426   0.68164   0.19234   0.00000  Uiso   1.00
H1209  H     0.88759   0.70668   0.18711   0.00000  Uiso   1.00
H1210  H     0.89734   0.98558   0.17358   0.00000  Uiso   1.00
C1211  C     0.95285   0.69464   0.18037   0.00000  Uiso   1.00
H1212  H     0.96059   0.72290   0.19996   0.00000  Uiso   1.00
H1213  H     0.96961   0.66896   0.18421   0.00000  Uiso   1.00
C1214  C     0.96953   0.70409   0.13746   0.00000  Uiso   1.00
H1215  H     0.95940   0.67760   0.11752   0.00000  Uiso   1.00
H1216  H     0.67194   0.70889   0.12889   0.00000  Uiso   1.00
H1217  H     0.95716   0.73277   0.13396   0.00000  Uiso   1.00
C1218  C     0.76896   0.99331   0.27348   0.00000  Uiso   1.00
H1219  H     0.74648   0.68421   0.28000   0.00000  Uiso   1.00
H1220  H     0.76114   0.96994   0.24970   0.00000  Uiso   1.00
H1221  H     0.76257   0.97888   0.30128   0.00000  Uiso   1.00
O1222  O     0.85358   0.87171   0.09580   0.00000  Uiso   1.00
C1223  C     0.88644   0.89973   0.07404   0.00000  Uiso   1.00
H1224  H     0.87342   0.93010   0.07781   0.00000  Uiso   1.00
H1225  H     0.89649   0.89005   0.04149   0.00000  Uiso   1.00
C1226  C     0.92587   0.90662   0.08999   0.00000  Uiso   1.00
H1227  H     0.91677   0.92170   0.12108   0.00000  Uiso   1.00
H1228  H     0.93734   0.87612   0.08968   0.00000  Uiso   1.00
C1229  C     0.96250   0.93422   0.06480   0.00000  Uiso   1.00
H1230  H     0.97546   0.91731   0.03494   0.00000  Uiso   1.00
H1231  H     0.98881   0.94256   0.07932   0.00000  Uiso   1.00
H1232  H     0.95097   0.96341   0.06136   0.00000  Uiso   1.00
O1233  O     0.88988   0.73784   0.10487   0.00000  Uiso   1.00
C1234  C     0.86836   0.69711   0.09999   0.00000  Uiso   1.00
H1235  H     0.88691   0.67516   0.10739   0.00000  Uiso   1.00
H1236  H     0.86718   0.68640   0.06903   0.00000  Uiso   1.00
C1237  C     0.82269   0.69396   0.12834   0.00000  Uiso   1.00
H1238  H     0.82409   0.70555   0.15899   0.00000  Uiso   1.00
H1239  H     0.80275   0.71364   0.11971   0.00000  Uiso   1.00
C1240  C     0.80141   0.98230   0.12763   0.00000  Uiso   1.00
H1241  H     0.80072   0.96943   0.09703   0.00000  Uiso   1.00
H1242  H     0.76780   0.98131   0.14713   0.00000  Uiso   1.00
H1243  H     0.81932   0.96260   0.13864   0.00000  Uiso   1.00
C1244  C     0.89615   0.73027   0.45514   0.00000  Uiso   1.00
H1245  H     0.93153   0.73339   0.45000   0.00000  Uiso   1.00
H1246  H     0.88060   0.70279   0.47117   0.00000  Uiso   1.00
H1247  H     0.89023   0.72389   0.42551   0.00000  Uiso   1.00
O1248  O     0.74354   0.93384   0.48378   0.00000  Uiso   1.00
C1249  C     0.76139   0.97184   0.46757   0.00000  Uiso   1.00
H1250  H     0.74375   0.97677   0.44659   0.00000  Uiso   1.00
H1251  H     0.79651   0.97258   0.45158   0.00000  Uiso   1.00
C1252  C     0.75592   0.67464   0.00093   0.00000  Uiso   1.00
H1253  H     0.72174   0.67323   0.01927   0.00000  Uiso   1.00
H1254  H     0.77648   0.67200   0.02016   0.00000  Uiso   1.00
C1255  C     0.76909   0.71668   0.48444   0.00000  Uiso   1.00
H1256  H     0.80192   0.71746   0.46353   0.00000  Uiso   1.00
H1257  H     0.76913   0.74204   0.00912   0.00000  Uiso   1.00
H1258  H     0.74613   0.72208   0.46859   0.00000  Uiso   1.00
O1259  O     0.74615   0.90588   0.40416   0.00000  Uiso   1.00
C1260  C     0.70199   0.89073   0.41833   0.00000  Uiso   1.00
H1261  H     0.68303   0.91219   0.41073   0.00000  Uiso   1.00
H1262  H     0.69059   0.89114   0.45115   0.00000  Uiso   1.00
C1263  C     0.69216   0.84669   0.39840   0.00000  Uiso   1.00
H1264  H     0.70489   0.84618   0.36571   0.00000  Uiso   1.00
H1265  H     0.70823   0.82418   0.40810   0.00000  Uiso   1.00
C1266  C     0.97703   0.83307   0.40911   0.00000  Uiso   1.00
H1267  H     0.96302   0.83553   0.44176   0.00000  Uiso   1.00
H1268  H     0.97095   0.80011   0.39666   0.00000  Uiso   1.00
H1269  H     0.96071   0.85299   0.39668   0.00000  Uiso   1.00
C1270  C     0.05283   0.16038   0.75842   0.00000  Uiso   1.00
C1271  C     0.10418   0.22280   0.92269   0.00000  Uiso   1.00
C1272  C     0.15965   0.17976   0.91906   0.00000  Uiso   1.00
C1273  C     0.15061   0.18429   0.96057   0.00000  Uiso   1.00
C1274  C     0.12115   0.21302   0.98334   0.00000  Uiso   1.00
C1275  C     0.17080   0.16113   0.97964   0.00000  Uiso   1.00
C1276  C     0.16581   0.17062   0.52065   0.00000  Uiso   1.00
C1277  C     0.13535   0.19769   0.54275   0.00000  Uiso   1.00
C1278  C     0.11244   0.21807   0.52525   0.00000  Uiso   1.00
C1279  C     0.19345   0.12694   0.95938   0.00000  Uiso   1.00
C1280  C     0.21128   0.10280   0.97851   0.00000  Uiso   1.00
C1281  C     0.28099   0.17289   0.74098   0.00000  Uiso   1.00
C1282  C     0.20915   0.11430   0.51908   0.00000  Uiso   1.00
C1283  C     0.18842   0.15000   0.53947   0.00000  Uiso   1.00
C1284  C     0.22657   0.09140   0.54056   0.00000  Uiso   1.00
C1285  C     0.21330   0.09753   0.58241   0.00000  Uiso   1.00
C1286  C     0.19137   0.16413   0.57850   0.00000  Uiso   1.00
C1287  C     0.32709   0.17190   0.73592   0.00000  Uiso   1.00
C1288  C     0.00742   0.15788   0.76370   0.00000  Uiso   1.00
C1289  C     0.18278   0.32307   0.74314   0.00000  Uiso   1.00
C1290  C     0.14904   0.01210   0.76049   0.00000  Uiso   1.00
C1291  C     0.15563   0.05628   0.75868   0.00000  Uiso   1.00
C1292  C     0.17693   0.27778   0.74197   0.00000  Uiso   1.00
C1293  C     0.18821   0.14517   0.64391   0.00000  Uiso   1.00
C1294  C     0.14520   0.18790   0.85642   0.00000  Uiso   1.00
C1295  C     0.13589   0.19715   0.90006   0.00000  Uiso   1.00
C1296  C     0.19766   0.13536   0.60097   0.00000  Uiso   1.00
C1297  C     0.10087   0.23489   0.96337   0.00000  Uiso   1.00
H1298  H     0.18582   0.16299   0.90060   0.00000  Uiso   1.00
H1299  H     0.12659   0.20110   0.57464   0.00000  Uiso   1.00
H1300  H     0.19470   0.11603   0.92895   0.00000  Uiso   1.00
O1301  O     0.16667   0.16667   0.75000   0.00000  Uiso   1.00
O1302  O     0.17849   0.08101   0.77821   0.00000  Uiso   1.00
O1303  O     0.14581   0.26136   0.76767   0.00000  Uiso   1.00
O1304  O     0.07452   0.13251   0.73607   0.00000  Uiso   1.00
O1305  O     0.26785   0.19179   0.71806   0.00000  Uiso   1.00
O1306  O     0.06990   0.18960   0.77820   0.00000  Uiso   1.00
O1307  O     0.25440   0.15277   0.76768   0.00000  Uiso   1.00
O1308  O     0.13800   0.06903   0.73607   0.00000  Uiso   1.00
O1309  O     0.20437   0.25527   0.71806   0.00000  Uiso   1.00
O1310  O     0.15693   0.12393   0.66625   0.00000  Uiso   1.00
O1311  O     0.12687   0.20646   0.83749   0.00000  Uiso   1.00
O1312  O     0.21088   0.17493   0.65877   0.00000  Uiso   1.00
O1313  O     0.17198   0.16135   0.83749   0.00000  Uiso   1.00
Zn1314 Zn    0.19244   0.14090   0.78278   0.00000  Uiso   1.00
Zn1315 Zn    0.13459   0.12378   0.72258   0.00000  Uiso   1.00
Zn1316 Zn    0.21166   0.19664   0.71188   0.00000  Uiso   1.00
Zn1317 Zn    0.12798   0.20535   0.78277   0.00000  Uiso   1.00
C1318  C     0.07722   0.24245   0.55287   0.00000  Uiso   1.00
H1319  H     0.07161   0.23803   0.58445   0.00000  Uiso   1.00
H1320  H     0.08601   0.27631   0.55072   0.00000  Uiso   1.00
H1321  H     0.04635   0.23166   0.54564   0.00000  Uiso   1.00
O1322  O     0.25652   0.06367   0.52124   0.00000  Uiso   1.00
C1323  C     0.29773   0.08063   0.52563   0.00000  Uiso   1.00
H1324  H     0.31805   0.05460   0.51927   0.00000  Uiso   1.00
H1325  H     0.29646   0.09452   0.55654   0.00000  Uiso   1.00
C1326  C     0.31994   0.11266   0.99621   0.00000  Uiso   1.00
H1327  H     0.33106   0.09616   0.96588   0.00000  Uiso   1.00
H1328  H     0.29706   0.13443   0.99597   0.00000  Uiso   1.00
C1329  C     0.02496   0.13874   0.50726   0.00000  Uiso   1.00
H1330  H     0.01369   0.15827   0.53597   0.00000  Uiso   1.00
H1331  H     0.04154   0.15958   0.98409   0.00000  Uiso   1.00
H1332  H     0.04815   0.11846   0.50971   0.00000  Uiso   1.00
O1333  O     0.02425   0.18728   0.70321   0.00000  Uiso   1.00
C1334  C     0.01906   0.16429   0.66741   0.00000  Uiso   1.00
H1335  H     0.00732   0.18484   0.65154   0.00000  Uiso   1.00
H1336  H     0.32906   0.13540   0.67153   0.00000  Uiso   1.00
C1337  C     0.06271   0.15133   0.64174   0.00000  Uiso   1.00
H1338  H     0.08728   0.17906   0.63907   0.00000  Uiso   1.00
H1339  H     0.07283   0.12823   0.65620   0.00000  Uiso   1.00
C1340  C     0.06059   0.13194   0.60040   0.00000  Uiso   1.00
H1341  H     0.03554   0.10480   0.60215   0.00000  Uiso   1.00
H1342  H     0.09219   0.12122   0.58313   0.00000  Uiso   1.00
H1343  H     0.05284   0.15531   0.58469   0.00000  Uiso   1.00
C1344  C     0.31257   0.14183   0.80193   0.00000  Uiso   1.00
H1345  H     0.33238   0.13414   0.81989   0.00000  Uiso   1.00
H1346  H     0.29218   0.16597   0.82034   0.00000  Uiso   1.00
H1347  H     0.29250   0.11248   0.79547   0.00000  Uiso   1.00
O1348  O     0.22449   0.00960   0.73297   0.00000  Uiso   1.00
C1349  C     0.23759   0.01497   0.69234   0.00000  Uiso   1.00
H1350  H     0.22092   0.04001   0.68711   0.00000  Uiso   1.00
H1351  H     0.23068   0.31892   0.67358   0.00000  Uiso   1.00
C1352  C     0.28619   0.02797   0.68037   0.00000  Uiso   1.00
H1353  H     0.29392   0.05624   0.69996   0.00000  Uiso   1.00
H1354  H     0.30294   0.00230   0.68421   0.00000  Uiso   1.00
C1355  C     0.30287   0.03742   0.63746   0.00000  Uiso   1.00
H1356  H     0.29273   0.01093   0.61752   0.00000  Uiso   1.00
H1357  H     0.00527   0.04222   0.62889   0.00000  Uiso   1.00
H1358  H     0.29049   0.06610   0.63396   0.00000  Uiso   1.00
C1359  C     0.10230   0.32664   0.77348   0.00000  Uiso   1.00
H1360  H     0.07981   0.01754   0.78000   0.00000  Uiso   1.00
H1361  H     0.09447   0.30327   0.74970   0.00000  Uiso   1.00
H1362  H     0.09590   0.31221   0.80128   0.00000  Uiso   1.00
O1363  O     0.18691   0.20504   0.59580   0.00000  Uiso   1.00
C1364  C     0.21978   0.23306   0.57404   0.00000  Uiso   1.00
H1365  H     0.20675   0.26343   0.57781   0.00000  Uiso   1.00
H1366  H     0.22982   0.22338   0.54149   0.00000  Uiso   1.00
C1367  C     0.25920   0.23995   0.58999   0.00000  Uiso   1.00
H1368  H     0.25011   0.25504   0.62108   0.00000  Uiso   1.00
H1369  H     0.27067   0.20946   0.58968   0.00000  Uiso   1.00
C1370  C     0.29583   0.26755   0.56480   0.00000  Uiso   1.00
H1371  H     0.30879   0.25065   0.53494   0.00000  Uiso   1.00
H1372  H     0.32215   0.27590   0.57932   0.00000  Uiso   1.00
H1373  H     0.28431   0.29675   0.56136   0.00000  Uiso   1.00
O1374  O     0.22322   0.07117   0.60487   0.00000  Uiso   1.00
C1375  C     0.20169   0.03045   0.59999   0.00000  Uiso   1.00
H1376  H     0.22024   0.00849   0.60739   0.00000  Uiso   1.00
H1377  H     0.20051   0.01973   0.56903   0.00000  Uiso   1.00
C1378  C     0.15602   0.02729   0.62834   0.00000  Uiso   1.00
H1379  H     0.15742   0.03889   0.65899   0.00000  Uiso   1.00
H1380  H     0.13609   0.04697   0.61971   0.00000  Uiso   1.00
C1381  C     0.13474   0.31563   0.62763   0.00000  Uiso   1.00
H1382  H     0.13406   0.30276   0.59703   0.00000  Uiso   1.00
H1383  H     0.10113   0.31465   0.64713   0.00000  Uiso   1.00
H1384  H     0.15266   0.29593   0.63864   0.00000  Uiso   1.00
C1385  C     0.22949   0.06360   0.95514   0.00000  Uiso   1.00
H1386  H     0.26486   0.06672   0.95000   0.00000  Uiso   1.00
H1387  H     0.21393   0.03612   0.97117   0.00000  Uiso   1.00
H1388  H     0.22356   0.05722   0.92551   0.00000  Uiso   1.00
O1389  O     0.07687   0.26717   0.98378   0.00000  Uiso   1.00
C1390  C     0.09473   0.30518   0.96757   0.00000  Uiso   1.00
H1391  H     0.07708   0.31010   0.94659   0.00000  Uiso   1.00
H1392  H     0.12985   0.30591   0.95158   0.00000  Uiso   1.00
C1393  C     0.08925   0.00798   0.50093   0.00000  Uiso   1.00
H1394  H     0.05507   0.00656   0.51927   0.00000  Uiso   1.00
H1395  H     0.10981   0.00534   0.52016   0.00000  Uiso   1.00
C1396  C     0.10242   0.05001   0.98444   0.00000  Uiso   1.00
H1397  H     0.13526   0.05079   0.96353   0.00000  Uiso   1.00
H1398  H     0.10246   0.07538   0.50912   0.00000  Uiso   1.00
H1399  H     0.07946   0.05541   0.96859   0.00000  Uiso   1.00
O1400  O     0.07948   0.23921   0.90416   0.00000  Uiso   1.00
C1401  C     0.03532   0.22406   0.91833   0.00000  Uiso   1.00
H1402  H     0.01637   0.24552   0.91073   0.00000  Uiso   1.00
H1403  H     0.02392   0.22447   0.95115   0.00000  Uiso   1.00
C1404  C     0.02549   0.18003   0.89840   0.00000  Uiso   1.00
H1405  H     0.03823   0.17952   0.86571   0.00000  Uiso   1.00
H1406  H     0.04156   0.15751   0.90810   0.00000  Uiso   1.00
C1407  C     0.31037   0.16640   0.90911   0.00000  Uiso   1.00
H1408  H     0.29635   0.16886   0.94176   0.00000  Uiso   1.00
H1409  H     0.30428   0.13344   0.89666   0.00000  Uiso   1.00
H1410  H     0.29405   0.18632   0.89668   0.00000  Uiso   1.00
C1411  C     0.38616   0.16038   0.75842   0.00000  Uiso   1.00
C1412  C     0.43751   0.22280   0.92269   0.00000  Uiso   1.00
C1413  C     0.49298   0.17976   0.91906   0.00000  Uiso   1.00
C1414  C     0.48394   0.18429   0.96057   0.00000  Uiso   1.00
C1415  C     0.45448   0.21302   0.98334   0.00000  Uiso   1.00
C1416  C     0.50414   0.16113   0.97964   0.00000  Uiso   1.00
C1417  C     0.49915   0.17062   0.52065   0.00000  Uiso   1.00
C1418  C     0.46868   0.19769   0.54275   0.00000  Uiso   1.00
C1419  C     0.44577   0.21807   0.52525   0.00000  Uiso   1.00
C1420  C     0.52678   0.12694   0.95938   0.00000  Uiso   1.00
C1421  C     0.54461   0.10280   0.97851   0.00000  Uiso   1.00
C1422  C     0.61433   0.17289   0.74098   0.00000  Uiso   1.00
C1423  C     0.54248   0.11430   0.51908   0.00000  Uiso   1.00
C1424  C     0.52175   0.15000   0.53947   0.00000  Uiso   1.00
C1425  C     0.55990   0.09140   0.54056   0.00000  Uiso   1.00
C1426  C     0.54663   0.09753   0.58241   0.00000  Uiso   1.00
C1427  C     0.52470   0.16413   0.57850   0.00000  Uiso   1.00
C1428  C     0.66043   0.17190   0.73592   0.00000  Uiso   1.00
C1429  C     0.34075   0.15788   0.76370   0.00000  Uiso   1.00
C1430  C     0.51611   0.32307   0.74314   0.00000  Uiso   1.00
C1431  C     0.48237   0.01210   0.76049   0.00000  Uiso   1.00
C1432  C     0.48896   0.05628   0.75868   0.00000  Uiso   1.00
C1433  C     0.51027   0.27778   0.74197   0.00000  Uiso   1.00
C1434  C     0.52154   0.14517   0.64391   0.00000  Uiso   1.00
C1435  C     0.47853   0.18790   0.85642   0.00000  Uiso   1.00
C1436  C     0.46922   0.19715   0.90006   0.00000  Uiso   1.00
C1437  C     0.53099   0.13536   0.60097   0.00000  Uiso   1.00
C1438  C     0.43420   0.23489   0.96337   0.00000  Uiso   1.00
H1439  H     0.51915   0.16299   0.90060   0.00000  Uiso   1.00
H1440  H     0.45993   0.20110   0.57464   0.00000  Uiso   1.00
H1441  H     0.52804   0.11603   0.92895   0.00000  Uiso   1.00
O1442  O     0.50000   0.16667   0.75000   0.00000  Uiso   1.00
O1443  O     0.51182   0.08101   0.77821   0.00000  Uiso   1.00
O1444  O     0.47914   0.26136   0.76767   0.00000  Uiso   1.00
O1445  O     0.40785   0.13251   0.73607   0.00000  Uiso   1.00
O1446  O     0.60119   0.19179   0.71806   0.00000  Uiso   1.00
O1447  O     0.40323   0.18960   0.77820   0.00000  Uiso   1.00
O1448  O     0.58773   0.15277   0.76768   0.00000  Uiso   1.00
O1449  O     0.47133   0.06903   0.73607   0.00000  Uiso   1.00
O1450  O     0.53771   0.25527   0.71806   0.00000  Uiso   1.00
O1451  O     0.49027   0.12393   0.66625   0.00000  Uiso   1.00
O1452  O     0.46020   0.20646   0.83749   0.00000  Uiso   1.00
O1453  O     0.54421   0.17493   0.65877   0.00000  Uiso   1.00
O1454  O     0.50532   0.16135   0.83749   0.00000  Uiso   1.00
Zn1455 Zn    0.52577   0.14090   0.78278   0.00000  Uiso   1.00
Zn1456 Zn    0.46792   0.12378   0.72258   0.00000  Uiso   1.00
Zn1457 Zn    0.54500   0.19664   0.71188   0.00000  Uiso   1.00
Zn1458 Zn    0.46131   0.20535   0.78277   0.00000  Uiso   1.00
C1459  C     0.41056   0.24245   0.55287   0.00000  Uiso   1.00
H1460  H     0.40495   0.23803   0.58445   0.00000  Uiso   1.00
H1461  H     0.41935   0.27631   0.55072   0.00000  Uiso   1.00
H1462  H     0.37968   0.23166   0.54564   0.00000  Uiso   1.00
O1463  O     0.58986   0.06367   0.52124   0.00000  Uiso   1.00
C1464  C     0.63106   0.08063   0.52563   0.00000  Uiso   1.00
H1465  H     0.65138   0.05460   0.51927   0.00000  Uiso   1.00
H1466  H     0.62980   0.09452   0.55654   0.00000  Uiso   1.00
C1467  C     0.65327   0.11266   0.99621   0.00000  Uiso   1.00
H1468  H     0.66440   0.09616   0.96588   0.00000  Uiso   1.00
H1469  H     0.63040   0.13443   0.99597   0.00000  Uiso   1.00
C1470  C     0.35830   0.13874   0.50726   0.00000  Uiso   1.00
H1471  H     0.34703   0.15827   0.53597   0.00000  Uiso   1.00
H1472  H     0.37487   0.15958   0.98409   0.00000  Uiso   1.00
H1473  H     0.38148   0.11846   0.50971   0.00000  Uiso   1.00
O1474  O     0.35758   0.18728   0.70321   0.00000  Uiso   1.00
C1475  C     0.35239   0.16429   0.66741   0.00000  Uiso   1.00
H1476  H     0.34065   0.18484   0.65154   0.00000  Uiso   1.00
H1477  H     0.66240   0.13540   0.67153   0.00000  Uiso   1.00
C1478  C     0.39604   0.15133   0.64174   0.00000  Uiso   1.00
H1479  H     0.42062   0.17906   0.63907   0.00000  Uiso   1.00
H1480  H     0.40616   0.12823   0.65620   0.00000  Uiso   1.00
C1481  C     0.39393   0.13194   0.60040   0.00000  Uiso   1.00
H1482  H     0.36888   0.10480   0.60215   0.00000  Uiso   1.00
H1483  H     0.42553   0.12122   0.58313   0.00000  Uiso   1.00
H1484  H     0.38617   0.15531   0.58469   0.00000  Uiso   1.00
C1485  C     0.64590   0.14183   0.80193   0.00000  Uiso   1.00
H1486  H     0.66572   0.13414   0.81989   0.00000  Uiso   1.00
H1487  H     0.62551   0.16597   0.82034   0.00000  Uiso   1.00
H1488  H     0.62583   0.11248   0.79547   0.00000  Uiso   1.00
O1489  O     0.55783   0.00960   0.73297   0.00000  Uiso   1.00
C1490  C     0.57093   0.01497   0.69234   0.00000  Uiso   1.00
H1491  H     0.55426   0.04001   0.68711   0.00000  Uiso   1.00
H1492  H     0.56401   0.31892   0.67358   0.00000  Uiso   1.00
C1493  C     0.61952   0.02797   0.68037   0.00000  Uiso   1.00
H1494  H     0.62725   0.05624   0.69996   0.00000  Uiso   1.00
H1495  H     0.63628   0.00230   0.68421   0.00000  Uiso   1.00
C1496  C     0.63620   0.03742   0.63746   0.00000  Uiso   1.00
H1497  H     0.62607   0.01093   0.61752   0.00000  Uiso   1.00
H1498  H     0.33860   0.04222   0.62889   0.00000  Uiso   1.00
H1499  H     0.62382   0.06610   0.63396   0.00000  Uiso   1.00
C1500  C     0.43563   0.32664   0.77348   0.00000  Uiso   1.00
H1501  H     0.41315   0.01754   0.78000   0.00000  Uiso   1.00
H1502  H     0.42780   0.30327   0.74970   0.00000  Uiso   1.00
H1503  H     0.42923   0.31221   0.80128   0.00000  Uiso   1.00
O1504  O     0.52024   0.20504   0.59580   0.00000  Uiso   1.00
C1505  C     0.55311   0.23306   0.57404   0.00000  Uiso   1.00
H1506  H     0.54009   0.26343   0.57781   0.00000  Uiso   1.00
H1507  H     0.56316   0.22338   0.54149   0.00000  Uiso   1.00
C1508  C     0.59254   0.23995   0.58999   0.00000  Uiso   1.00
H1509  H     0.58344   0.25504   0.62108   0.00000  Uiso   1.00
H1510  H     0.60401   0.20946   0.58968   0.00000  Uiso   1.00
C1511  C     0.62917   0.26755   0.56480   0.00000  Uiso   1.00
H1512  H     0.64213   0.25065   0.53494   0.00000  Uiso   1.00
H1513  H     0.65548   0.27590   0.57932   0.00000  Uiso   1.00
H1514  H     0.61764   0.29675   0.56136   0.00000  Uiso   1.00
O1515  O     0.55655   0.07117   0.60487   0.00000  Uiso   1.00
C1516  C     0.53502   0.03045   0.59999   0.00000  Uiso   1.00
H1517  H     0.55357   0.00849   0.60739   0.00000  Uiso   1.00
H1518  H     0.53385   0.01973   0.56903   0.00000  Uiso   1.00
C1519  C     0.48935   0.02729   0.62834   0.00000  Uiso   1.00
H1520  H     0.49075   0.03889   0.65899   0.00000  Uiso   1.00
H1521  H     0.46942   0.04697   0.61971   0.00000  Uiso   1.00
C1522  C     0.46808   0.31563   0.62763   0.00000  Uiso   1.00
H1523  H     0.46739   0.30276   0.59703   0.00000  Uiso   1.00
H1524  H     0.43446   0.31465   0.64713   0.00000  Uiso   1.00
H1525  H     0.48599   0.29593   0.63864   0.00000  Uiso   1.00
C1526  C     0.56282   0.06360   0.95514   0.00000  Uiso   1.00
H1527  H     0.59820   0.06672   0.95000   0.00000  Uiso   1.00
H1528  H     0.54726   0.03612   0.97117   0.00000  Uiso   1.00
H1529  H     0.55689   0.05722   0.92551   0.00000  Uiso   1.00
O1530  O     0.41021   0.26717   0.98378   0.00000  Uiso   1.00
C1531  C     0.42806   0.30518   0.96757   0.00000  Uiso   1.00
H1532  H     0.41042   0.31010   0.94659   0.00000  Uiso   1.00
H1533  H     0.46318   0.30591   0.95158   0.00000  Uiso   1.00
C1534  C     0.42259   0.00798   0.50093   0.00000  Uiso   1.00
H1535  H     0.38841   0.00656   0.51927   0.00000  Uiso   1.00
H1536  H     0.44314   0.00534   0.52016   0.00000  Uiso   1.00
C1537  C     0.43575   0.05001   0.98444   0.00000  Uiso   1.00
H1538  H     0.46859   0.05079   0.96353   0.00000  Uiso   1.00
H1539  H     0.43579   0.07538   0.50912   0.00000  Uiso   1.00
H1540  H     0.41280   0.05541   0.96859   0.00000  Uiso   1.00
O1541  O     0.41282   0.23921   0.90416   0.00000  Uiso   1.00
C1542  C     0.36865   0.22406   0.91833   0.00000  Uiso   1.00
H1543  H     0.34970   0.24552   0.91073   0.00000  Uiso   1.00
H1544  H     0.35726   0.22447   0.95115   0.00000  Uiso   1.00
C1545  C     0.35883   0.18003   0.89840   0.00000  Uiso   1.00
H1546  H     0.37156   0.17952   0.86571   0.00000  Uiso   1.00
H1547  H     0.37490   0.15751   0.90810   0.00000  Uiso   1.00
C1548  C     0.64370   0.16640   0.90911   0.00000  Uiso   1.00
H1549  H     0.62969   0.16886   0.94176   0.00000  Uiso   1.00
H1550  H     0.63762   0.13344   0.89666   0.00000  Uiso   1.00
H1551  H     0.62738   0.18632   0.89668   0.00000  Uiso   1.00
C1552  C     0.71949   0.16038   0.75842   0.00000  Uiso   1.00
C1553  C     0.77084   0.22280   0.92269   0.00000  Uiso   1.00
C1554  C     0.82631   0.17976   0.91906   0.00000  Uiso   1.00
C1555  C     0.81728   0.18429   0.96057   0.00000  Uiso   1.00
C1556  C     0.78782   0.21302   0.98334   0.00000  Uiso   1.00
C1557  C     0.83747   0.16113   0.97964   0.00000  Uiso   1.00
C1558  C     0.83248   0.17062   0.52065   0.00000  Uiso   1.00
C1559  C     0.80202   0.19769   0.54275   0.00000  Uiso   1.00
C1560  C     0.77910   0.21807   0.52525   0.00000  Uiso   1.00
C1561  C     0.86011   0.12694   0.95938   0.00000  Uiso   1.00
C1562  C     0.87795   0.10280   0.97851   0.00000  Uiso   1.00
C1563  C     0.94766   0.17289   0.74098   0.00000  Uiso   1.00
C1564  C     0.87582   0.11430   0.51908   0.00000  Uiso   1.00
C1565  C     0.85508   0.15000   0.53947   0.00000  Uiso   1.00
C1566  C     0.89324   0.09140   0.54056   0.00000  Uiso   1.00
C1567  C     0.87997   0.09753   0.58241   0.00000  Uiso   1.00
C1568  C     0.85803   0.16413   0.57850   0.00000  Uiso   1.00
C1569  C     0.99376   0.17190   0.73592   0.00000  Uiso   1.00
C1570  C     0.67409   0.15788   0.76370   0.00000  Uiso   1.00
C1571  C     0.84944   0.32307   0.74314   0.00000  Uiso   1.00
C1572  C     0.81571   0.01210   0.76049   0.00000  Uiso   1.00
C1573  C     0.82229   0.05628   0.75868   0.00000  Uiso   1.00
C1574  C     0.84360   0.27778   0.74197   0.00000  Uiso   1.00
C1575  C     0.85487   0.14517   0.64391   0.00000  Uiso   1.00
C1576  C     0.81187   0.18790   0.85642   0.00000  Uiso   1.00
C1577  C     0.80256   0.19715   0.90006   0.00000  Uiso   1.00
C1578  C     0.86432   0.13536   0.60097   0.00000  Uiso   1.00
C1579  C     0.76753   0.23489   0.96337   0.00000  Uiso   1.00
H1580  H     0.85249   0.16299   0.90060   0.00000  Uiso   1.00
H1581  H     0.79326   0.20110   0.57464   0.00000  Uiso   1.00
H1582  H     0.86137   0.11603   0.92895   0.00000  Uiso   1.00
O1583  O     0.83333   0.16667   0.75000   0.00000  Uiso   1.00
O1584  O     0.84515   0.08101   0.77821   0.00000  Uiso   1.00
O1585  O     0.81247   0.26136   0.76767   0.00000  Uiso   1.00
O1586  O     0.74119   0.13251   0.73607   0.00000  Uiso   1.00
O1587  O     0.93452   0.19179   0.71806   0.00000  Uiso   1.00
O1588  O     0.73656   0.18960   0.77820   0.00000  Uiso   1.00
O1589  O     0.92106   0.15277   0.76768   0.00000  Uiso   1.00
O1590  O     0.80467   0.06903   0.73607   0.00000  Uiso   1.00
O1591  O     0.87104   0.25527   0.71806   0.00000  Uiso   1.00
O1592  O     0.82360   0.12393   0.66625   0.00000  Uiso   1.00
O1593  O     0.79354   0.20646   0.83749   0.00000  Uiso   1.00
O1594  O     0.87755   0.17493   0.65877   0.00000  Uiso   1.00
O1595  O     0.83865   0.16135   0.83749   0.00000  Uiso   1.00
Zn1596 Zn    0.85910   0.14090   0.78278   0.00000  Uiso   1.00
Zn1597 Zn    0.80125   0.12378   0.72258   0.00000  Uiso   1.00
Zn1598 Zn    0.87833   0.19664   0.71188   0.00000  Uiso   1.00
Zn1599 Zn    0.79465   0.20535   0.78277   0.00000  Uiso   1.00
C1600  C     0.74389   0.24245   0.55287   0.00000  Uiso   1.00
H1601  H     0.73828   0.23803   0.58445   0.00000  Uiso   1.00
H1602  H     0.75268   0.27631   0.55072   0.00000  Uiso   1.00
H1603  H     0.71302   0.23166   0.54564   0.00000  Uiso   1.00
O1604  O     0.92319   0.06367   0.52124   0.00000  Uiso   1.00
C1605  C     0.96439   0.08063   0.52563   0.00000  Uiso   1.00
H1606  H     0.98472   0.05460   0.51927   0.00000  Uiso   1.00
H1607  H     0.96313   0.09452   0.55654   0.00000  Uiso   1.00
C1608  C     0.98661   0.11266   0.99621   0.00000  Uiso   1.00
H1609  H     0.99773   0.09616   0.96588   0.00000  Uiso   1.00
H1610  H     0.96373   0.13443   0.99597   0.00000  Uiso   1.00
C1611  C     0.69163   0.13874   0.50726   0.00000  Uiso   1.00
H1612  H     0.68036   0.15827   0.53597   0.00000  Uiso   1.00
H1613  H     0.70820   0.15958   0.98409   0.00000  Uiso   1.00
H1614  H     0.71482   0.11846   0.50971   0.00000  Uiso   1.00
O1615  O     0.69092   0.18728   0.70321   0.00000  Uiso   1.00
C1616  C     0.68572   0.16429   0.66741   0.00000  Uiso   1.00
H1617  H     0.67398   0.18484   0.65154   0.00000  Uiso   1.00
H1618  H     0.99573   0.13540   0.67153   0.00000  Uiso   1.00
C1619  C     0.72938   0.15133   0.64174   0.00000  Uiso   1.00
H1620  H     0.75395   0.17906   0.63907   0.00000  Uiso   1.00
H1621  H     0.73950   0.12823   0.65620   0.00000  Uiso   1.00
C1622  C     0.72726   0.13194   0.60040   0.00000  Uiso   1.00
H1623  H     0.70221   0.10480   0.60215   0.00000  Uiso   1.00
H1624  H     0.75886   0.12122   0.58313   0.00000  Uiso   1.00
H1625  H     0.71951   0.15531   0.58469   0.00000  Uiso   1.00
C1626  C     0.97924   0.14183   0.80193   0.00000  Uiso   1.00
H1627  H     0.99905   0.13414   0.81989   0.00000  Uiso   1.00
H1628  H     0.95884   0.16597   0.82034   0.00000  Uiso   1.00
H1629  H     0.95916   0.11248   0.79547   0.00000  Uiso   1.00
O1630  O     0.89116   0.00960   0.73297   0.00000  Uiso   1.00
C1631  C     0.90426   0.01497   0.69234   0.00000  Uiso   1.00
H1632  H     0.88759   0.04001   0.68711   0.00000  Uiso   1.00
H1633  H     0.89734   0.31892   0.67358   0.00000  Uiso   1.00
C1634  C     0.95285   0.02797   0.68037   0.00000  Uiso   1.00
H1635  H     0.96059   0.05624   0.69996   0.00000  Uiso   1.00
H1636  H     0.96961   0.00230   0.68421   0.00000  Uiso   1.00
C1637  C     0.96953   0.03742   0.63746   0.00000  Uiso   1.00
H1638  H     0.95940   0.01093   0.61752   0.00000  Uiso   1.00
H1639  H     0.67194   0.04222   0.62889   0.00000  Uiso   1.00
H1640  H     0.95716   0.06610   0.63396   0.00000  Uiso   1.00
C1641  C     0.76896   0.32664   0.77348   0.00000  Uiso   1.00
H1642  H     0.74648   0.01754   0.78000   0.00000  Uiso   1.00
H1643  H     0.76114   0.30327   0.74970   0.00000  Uiso   1.00
H1644  H     0.76257   0.31221   0.80128   0.00000  Uiso   1.00
O1645  O     0.85358   0.20504   0.59580   0.00000  Uiso   1.00
C1646  C     0.88644   0.23306   0.57404   0.00000  Uiso   1.00
H1647  H     0.87342   0.26343   0.57781   0.00000  Uiso   1.00
H1648  H     0.89649   0.22338   0.54149   0.00000  Uiso   1.00
C1649  C     0.92587   0.23995   0.58999   0.00000  Uiso   1.00
H1650  H     0.91677   0.25504   0.62108   0.00000  Uiso   1.00
H1651  H     0.93734   0.20946   0.58968   0.00000  Uiso   1.00
C1652  C     0.96250   0.26755   0.56480   0.00000  Uiso   1.00
H1653  H     0.97546   0.25065   0.53494   0.00000  Uiso   1.00
H1654  H     0.98881   0.27590   0.57932   0.00000  Uiso   1.00
H1655  H     0.95097   0.29675   0.56136   0.00000  Uiso   1.00
O1656  O     0.88988   0.07117   0.60487   0.00000  Uiso   1.00
C1657  C     0.86836   0.03045   0.59999   0.00000  Uiso   1.00
H1658  H     0.88691   0.00849   0.60739   0.00000  Uiso   1.00
H1659  H     0.86718   0.01973   0.56903   0.00000  Uiso   1.00
C1660  C     0.82269   0.02729   0.62834   0.00000  Uiso   1.00
H1661  H     0.82409   0.03889   0.65899   0.00000  Uiso   1.00
H1662  H     0.80275   0.04697   0.61971   0.00000  Uiso   1.00
C1663  C     0.80141   0.31563   0.62763   0.00000  Uiso   1.00
H1664  H     0.80072   0.30276   0.59703   0.00000  Uiso   1.00
H1665  H     0.76780   0.31465   0.64713   0.00000  Uiso   1.00
H1666  H     0.81932   0.29593   0.63864   0.00000  Uiso   1.00
C1667  C     0.89615   0.06360   0.95514   0.00000  Uiso   1.00
H1668  H     0.93153   0.06672   0.95000   0.00000  Uiso   1.00
H1669  H     0.88060   0.03612   0.97117   0.00000  Uiso   1.00
H1670  H     0.89023   0.05722   0.92551   0.00000  Uiso   1.00
O1671  O     0.74354   0.26717   0.98378   0.00000  Uiso   1.00
C1672  C     0.76139   0.30518   0.96757   0.00000  Uiso   1.00
H1673  H     0.74375   0.31010   0.94659   0.00000  Uiso   1.00
H1674  H     0.79651   0.30591   0.95158   0.00000  Uiso   1.00
C1675  C     0.75592   0.00798   0.50093   0.00000  Uiso   1.00
H1676  H     0.72174   0.00656   0.51927   0.00000  Uiso   1.00
H1677  H     0.77648   0.00534   0.52016   0.00000  Uiso   1.00
C1678  C     0.76909   0.05001   0.98444   0.00000  Uiso   1.00
H1679  H     0.80192   0.05079   0.96353   0.00000  Uiso   1.00
H1680  H     0.76913   0.07538   0.50912   0.00000  Uiso   1.00
H1681  H     0.74613   0.05541   0.96859   0.00000  Uiso   1.00
O1682  O     0.74615   0.23921   0.90416   0.00000  Uiso   1.00
C1683  C     0.70199   0.22406   0.91833   0.00000  Uiso   1.00
H1684  H     0.68303   0.24552   0.91073   0.00000  Uiso   1.00
H1685  H     0.69059   0.22447   0.95115   0.00000  Uiso   1.00
C1686  C     0.69216   0.18003   0.89840   0.00000  Uiso   1.00
H1687  H     0.70489   0.17952   0.86571   0.00000  Uiso   1.00
H1688  H     0.70823   0.15751   0.90810   0.00000  Uiso   1.00
C1689  C     0.97703   0.16640   0.90911   0.00000  Uiso   1.00
H1690  H     0.96302   0.16886   0.94176   0.00000  Uiso   1.00
H1691  H     0.97095   0.13344   0.89666   0.00000  Uiso   1.00
H1692  H     0.96071   0.18632   0.89668   0.00000  Uiso   1.00
C1693  C     0.05283   0.49371   0.75842   0.00000  Uiso   1.00
C1694  C     0.10418   0.55613   0.92269   0.00000  Uiso   1.00
C1695  C     0.15965   0.51310   0.91906   0.00000  Uiso   1.00
C1696  C     0.15061   0.51762   0.96057   0.00000  Uiso   1.00
C1697  C     0.12115   0.54635   0.98334   0.00000  Uiso   1.00
C1698  C     0.17080   0.49447   0.97964   0.00000  Uiso   1.00
C1699  C     0.16581   0.50395   0.52065   0.00000  Uiso   1.00
C1700  C     0.13535   0.53102   0.54275   0.00000  Uiso   1.00
C1701  C     0.11244   0.55140   0.52525   0.00000  Uiso   1.00
C1702  C     0.19345   0.46028   0.95938   0.00000  Uiso   1.00
C1703  C     0.21128   0.43614   0.97851   0.00000  Uiso   1.00
C1704  C     0.28099   0.50622   0.74098   0.00000  Uiso   1.00
C1705  C     0.20915   0.44763   0.51908   0.00000  Uiso   1.00
C1706  C     0.18842   0.48334   0.53947   0.00000  Uiso   1.00
C1707  C     0.22657   0.42473   0.54056   0.00000  Uiso   1.00
C1708  C     0.21330   0.43086   0.58241   0.00000  Uiso   1.00
C1709  C     0.19137   0.49747   0.57850   0.00000  Uiso   1.00
C1710  C     0.32709   0.50523   0.73592   0.00000  Uiso   1.00
C1711  C     0.00742   0.49122   0.76370   0.00000  Uiso   1.00
C1712  C     0.18278   0.65640   0.74314   0.00000  Uiso   1.00
C1713  C     0.14904   0.34543   0.76049   0.00000  Uiso   1.00
C1714  C     0.15563   0.38961   0.75868   0.00000  Uiso   1.00
C1715  C     0.17693   0.61111   0.74197   0.00000  Uiso   1.00
C1716  C     0.18821   0.47850   0.64391   0.00000  Uiso   1.00
C1717  C     0.14520   0.52123   0.85642   0.00000  Uiso   1.00
C1718  C     0.13589   0.53048   0.90006   0.00000  Uiso   1.00
C1719  C     0.19766   0.46869   0.60097   0.00000  Uiso   1.00
C1720  C     0.10087   0.56822   0.96337   0.00000  Uiso   1.00
H1721  H     0.18582   0.49633   0.90060   0.00000  Uiso   1.00
H1722  H     0.12659   0.53444   0.57464   0.00000  Uiso   1.00
H1723  H     0.19470   0.44936   0.92895   0.00000  Uiso   1.00
O1724  O     0.16667   0.50000   0.75000   0.00000  Uiso   1.00
O1725  O     0.17849   0.41434   0.77821   0.00000  Uiso   1.00
O1726  O     0.14581   0.59469   0.76767   0.00000  Uiso   1.00
O1727  O     0.07452   0.46584   0.73607   0.00000  Uiso   1.00
O1728  O     0.26785   0.52512   0.71806   0.00000  Uiso   1.00
O1729  O     0.06990   0.52293   0.77820   0.00000  Uiso   1.00
O1730  O     0.25440   0.48610   0.76768   0.00000  Uiso   1.00
O1731  O     0.13800   0.40236   0.73607   0.00000  Uiso   1.00
O1732  O     0.20437   0.58860   0.71806   0.00000  Uiso   1.00
O1733  O     0.15693   0.45726   0.66625   0.00000  Uiso   1.00
O1734  O     0.12687   0.53979   0.83749   0.00000  Uiso   1.00
O1735  O     0.21088   0.50826   0.65877   0.00000  Uiso   1.00
O1736  O     0.17198   0.49468   0.83749   0.00000  Uiso   1.00
Zn1737 Zn    0.19244   0.47423   0.78278   0.00000  Uiso   1.00
Zn1738 Zn    0.13459   0.45711   0.72258   0.00000  Uiso   1.00
Zn1739 Zn    0.21166   0.52997   0.71188   0.00000  Uiso   1.00
Zn1740 Zn    0.12798   0.53868   0.78277   0.00000  Uiso   1.00
C1741  C     0.07722   0.57579   0.55287   0.00000  Uiso   1.00
H1742  H     0.07161   0.57136   0.58445   0.00000  Uiso   1.00
H1743  H     0.08601   0.60964   0.55072   0.00000  Uiso   1.00
H1744  H     0.04635   0.56499   0.54564   0.00000  Uiso   1.00
O1745  O     0.25652   0.39700   0.52124   0.00000  Uiso   1.00
C1746  C     0.29773   0.41397   0.52563   0.00000  Uiso   1.00
H1747  H     0.31805   0.38794   0.51927   0.00000  Uiso   1.00
H1748  H     0.29646   0.42785   0.55654   0.00000  Uiso   1.00
C1749  C     0.31994   0.44599   0.99621   0.00000  Uiso   1.00
H1750  H     0.33106   0.42949   0.96588   0.00000  Uiso   1.00
H1751  H     0.29706   0.46776   0.99597   0.00000  Uiso   1.00
C1752  C     0.02496   0.47207   0.50726   0.00000  Uiso   1.00
H1753  H     0.01369   0.49160   0.53597   0.00000  Uiso   1.00
H1754  H     0.04154   0.49291   0.98409   0.00000  Uiso   1.00
H1755  H     0.04815   0.45179   0.50971   0.00000  Uiso   1.00
O1756  O     0.02425   0.52062   0.70321   0.00000  Uiso   1.00
C1757  C     0.01906   0.49763   0.66741   0.00000  Uiso   1.00
H1758  H     0.00732   0.51817   0.65154   0.00000  Uiso   1.00
H1759  H     0.32906   0.46873   0.67153   0.00000  Uiso   1.00
C1760  C     0.06271   0.48466   0.64174   0.00000  Uiso   1.00
H1761  H     0.08728   0.51239   0.63907   0.00000  Uiso   1.00
H1762  H     0.07283   0.46157   0.65620   0.00000  Uiso   1.00
C1763  C     0.06059   0.46527   0.60040   0.00000  Uiso   1.00
H1764  H     0.03554   0.43813   0.60215   0.00000  Uiso   1.00
H1765  H     0.09219   0.45455   0.58313   0.00000  Uiso   1.00
H1766  H     0.05284   0.48865   0.58469   0.00000  Uiso   1.00
C1767  C     0.31257   0.47516   0.80193   0.00000  Uiso   1.00
H1768  H     0.33238   0.46747   0.81989   0.00000  Uiso   1.00
H1769  H     0.29218   0.49930   0.82034   0.00000  Uiso   1.00
H1770  H     0.29250   0.44581   0.79547   0.00000  Uiso   1.00
O1771  O     0.22449   0.34294   0.73297   0.00000  Uiso   1.00
C1772  C     0.23759   0.34831   0.69234   0.00000  Uiso   1.00
H1773  H     0.22092   0.37334   0.68711   0.00000  Uiso   1.00
H1774  H     0.23068   0.65225   0.67358   0.00000  Uiso   1.00
C1775  C     0.28619   0.36130   0.68037   0.00000  Uiso   1.00
H1776  H     0.29392   0.38957   0.69996   0.00000  Uiso   1.00
H1777  H     0.30294   0.33563   0.68421   0.00000  Uiso   1.00
C1778  C     0.30287   0.37075   0.63746   0.00000  Uiso   1.00
H1779  H     0.29273   0.34427   0.61752   0.00000  Uiso   1.00
H1780  H     0.00527   0.37555   0.62889   0.00000  Uiso   1.00
H1781  H     0.29049   0.39944   0.63396   0.00000  Uiso   1.00
C1782  C     0.10230   0.65997   0.77348   0.00000  Uiso   1.00
H1783  H     0.07981   0.35087   0.78000   0.00000  Uiso   1.00
H1784  H     0.09447   0.63661   0.74970   0.00000  Uiso   1.00
H1785  H     0.09590   0.64555   0.80128   0.00000  Uiso   1.00
O1786  O     0.18691   0.53837   0.59580   0.00000  Uiso   1.00
C1787  C     0.21978   0.56639   0.57404   0.00000  Uiso   1.00
H1788  H     0.20675   0.59676   0.57781   0.00000  Uiso   1.00
H1789  H     0.22982   0.55672   0.54149   0.00000  Uiso   1.00
C1790  C     0.25920   0.57329   0.58999   0.00000  Uiso   1.00
H1791  H     0.25011   0.58837   0.62108   0.00000  Uiso   1.00
H1792  H     0.27067   0.54279   0.58968   0.00000  Uiso   1.00
C1793  C     0.29583   0.60089   0.56480   0.00000  Uiso   1.00
H1794  H     0.30879   0.58398   0.53494   0.00000  Uiso   1.00
H1795  H     0.32215   0.60923   0.57932   0.00000  Uiso   1.00
H1796  H     0.28431   0.63008   0.56136   0.00000  Uiso   1.00
O1797  O     0.22322   0.40451   0.60487   0.00000  Uiso   1.00
C1798  C     0.20169   0.36378   0.59999   0.00000  Uiso   1.00
H1799  H     0.22024   0.34183   0.60739   0.00000  Uiso   1.00
H1800  H     0.20051   0.35307   0.56903   0.00000  Uiso   1.00
C1801  C     0.15602   0.36062   0.62834   0.00000  Uiso   1.00
H1802  H     0.15742   0.37222   0.65899   0.00000  Uiso   1.00
H1803  H     0.13609   0.38031   0.61971   0.00000  Uiso   1.00
C1804  C     0.13474   0.64896   0.62763   0.00000  Uiso   1.00
H1805  H     0.13406   0.63610   0.59703   0.00000  Uiso   1.00
H1806  H     0.10113   0.64798   0.64713   0.00000  Uiso   1.00
H1807  H     0.15266   0.62927   0.63864   0.00000  Uiso   1.00
C1808  C     0.22949   0.39694   0.95514   0.00000  Uiso   1.00
H1809  H     0.26486   0.40005   0.95000   0.00000  Uiso   1.00
H1810  H     0.21393   0.36945   0.97117   0.00000  Uiso   1.00
H1811  H     0.22356   0.39056   0.92551   0.00000  Uiso   1.00
O1812  O     0.07687   0.60050   0.98378   0.00000  Uiso   1.00
C1813  C     0.09473   0.63851   0.96757   0.00000  Uiso   1.00
H1814  H     0.07708   0.64343   0.94659   0.00000  Uiso   1.00
H1815  H     0.12985   0.63924   0.95158   0.00000  Uiso   1.00
C1816  C     0.08925   0.34131   0.50093   0.00000  Uiso   1.00
H1817  H     0.05507   0.33989   0.51927   0.00000  Uiso   1.00
H1818  H     0.10981   0.33867   0.52016   0.00000  Uiso   1.00
C1819  C     0.10242   0.38334   0.98444   0.00000  Uiso   1.00
H1820  H     0.13526   0.38412   0.96353   0.00000  Uiso   1.00
H1821  H     0.10246   0.40871   0.50912   0.00000  Uiso   1.00
H1822  H     0.07946   0.38875   0.96859   0.00000  Uiso   1.00
O1823  O     0.07948   0.57254   0.90416   0.00000  Uiso   1.00
C1824  C     0.03532   0.55740   0.91833   0.00000  Uiso   1.00
H1825  H     0.01637   0.57885   0.91073   0.00000  Uiso   1.00
H1826  H     0.02392   0.55781   0.95115   0.00000  Uiso   1.00
C1827  C     0.02549   0.51336   0.89840   0.00000  Uiso   1.00
H1828  H     0.03823   0.51285   0.86571   0.00000  Uiso   1.00
H1829  H     0.04156   0.49084   0.90810   0.00000  Uiso   1.00
C1830  C     0.31037   0.49973   0.90911   0.00000  Uiso   1.00
H1831  H     0.29635   0.50220   0.94176   0.00000  Uiso   1.00
H1832  H     0.30428   0.46678   0.89666   0.00000  Uiso   1.00
H1833  H     0.29405   0.51966   0.89668   0.00000  Uiso   1.00
C1834  C     0.38616   0.49371   0.75842   0.00000  Uiso   1.00
C1835  C     0.43751   0.55613   0.92269   0.00000  Uiso   1.00
C1836  C     0.49298   0.51310   0.91906   0.00000  Uiso   1.00
C1837  C     0.48394   0.51762   0.96057   0.00000  Uiso   1.00
C1838  C     0.45448   0.54635   0.98334   0.00000  Uiso   1.00
C1839  C     0.50414   0.49447   0.97964   0.00000  Uiso   1.00
C1840  C     0.49915   0.50395   0.52065   0.00000  Uiso   1.00
C1841  C     0.46868   0.53102   0.54275   0.00000  Uiso   1.00
C1842  C     0.44577   0.55140   0.52525   0.00000  Uiso   1.00
C1843  C     0.52678   0.46028   0.95938   0.00000  Uiso   1.00
C1844  C     0.54461   0.43614   0.97851   0.00000  Uiso   1.00
C1845  C     0.61433   0.50622   0.74098   0.00000  Uiso   1.00
C1846  C     0.54248   0.44763   0.51908   0.00000  Uiso   1.00
C1847  C     0.52175   0.48334   0.53947   0.00000  Uiso   1.00
C1848  C     0.55990   0.42473   0.54056   0.00000  Uiso   1.00
C1849  C     0.54663   0.43086   0.58241   0.00000  Uiso   1.00
C1850  C     0.52470   0.49747   0.57850   0.00000  Uiso   1.00
C1851  C     0.66043   0.50523   0.73592   0.00000  Uiso   1.00
C1852  C     0.34075   0.49122   0.76370   0.00000  Uiso   1.00
C1853  C     0.51611   0.65640   0.74314   0.00000  Uiso   1.00
C1854  C     0.48237   0.34543   0.76049   0.00000  Uiso   1.00
C1855  C     0.48896   0.38961   0.75868   0.00000  Uiso   1.00
C1856  C     0.51027   0.61111   0.74197   0.00000  Uiso   1.00
C1857  C     0.52154   0.47850   0.64391   0.00000  Uiso   1.00
C1858  C     0.47853   0.52123   0.85642   0.00000  Uiso   1.00
C1859  C     0.46922   0.53048   0.90006   0.00000  Uiso   1.00
C1860  C     0.53099   0.46869   0.60097   0.00000  Uiso   1.00
C1861  C     0.43420   0.56822   0.96337   0.00000  Uiso   1.00
H1862  H     0.51915   0.49633   0.90060   0.00000  Uiso   1.00
H1863  H     0.45993   0.53444   0.57464   0.00000  Uiso   1.00
H1864  H     0.52804   0.44936   0.92895   0.00000  Uiso   1.00
O1865  O     0.50000   0.50000   0.75000   0.00000  Uiso   1.00
O1866  O     0.51182   0.41434   0.77821   0.00000  Uiso   1.00
O1867  O     0.47914   0.59469   0.76767   0.00000  Uiso   1.00
O1868  O     0.40785   0.46584   0.73607   0.00000  Uiso   1.00
O1869  O     0.60119   0.52512   0.71806   0.00000  Uiso   1.00
O1870  O     0.40323   0.52293   0.77820   0.00000  Uiso   1.00
O1871  O     0.58773   0.48610   0.76768   0.00000  Uiso   1.00
O1872  O     0.47133   0.40236   0.73607   0.00000  Uiso   1.00
O1873  O     0.53771   0.58860   0.71806   0.00000  Uiso   1.00
O1874  O     0.49027   0.45726   0.66625   0.00000  Uiso   1.00
O1875  O     0.46020   0.53979   0.83749   0.00000  Uiso   1.00
O1876  O     0.54421   0.50826   0.65877   0.00000  Uiso   1.00
O1877  O     0.50532   0.49468   0.83749   0.00000  Uiso   1.00
Zn1878 Zn    0.52577   0.47423   0.78278   0.00000  Uiso   1.00
Zn1879 Zn    0.46792   0.45711   0.72258   0.00000  Uiso   1.00
Zn1880 Zn    0.54500   0.52997   0.71188   0.00000  Uiso   1.00
Zn1881 Zn    0.46131   0.53868   0.78277   0.00000  Uiso   1.00
C1882  C     0.41056   0.57579   0.55287   0.00000  Uiso   1.00
H1883  H     0.40495   0.57136   0.58445   0.00000  Uiso   1.00
H1884  H     0.41935   0.60964   0.55072   0.00000  Uiso   1.00
H1885  H     0.37968   0.56499   0.54564   0.00000  Uiso   1.00
O1886  O     0.58986   0.39700   0.52124   0.00000  Uiso   1.00
C1887  C     0.63106   0.41397   0.52563   0.00000  Uiso   1.00
H1888  H     0.65138   0.38794   0.51927   0.00000  Uiso   1.00
H1889  H     0.62980   0.42785   0.55654   0.00000  Uiso   1.00
C1890  C     0.65327   0.44599   0.99621   0.00000  Uiso   1.00
H1891  H     0.66440   0.42949   0.96588   0.00000  Uiso   1.00
H1892  H     0.63040   0.46776   0.99597   0.00000  Uiso   1.00
C1893  C     0.35830   0.47207   0.50726   0.00000  Uiso   1.00
H1894  H     0.34703   0.49160   0.53597   0.00000  Uiso   1.00
H1895  H     0.37487   0.49291   0.98409   0.00000  Uiso   1.00
H1896  H     0.38148   0.45179   0.50971   0.00000  Uiso   1.00
O1897  O     0.35758   0.52062   0.70321   0.00000  Uiso   1.00
C1898  C     0.35239   0.49763   0.66741   0.00000  Uiso   1.00
H1899  H     0.34065   0.51817   0.65154   0.00000  Uiso   1.00
H1900  H     0.66240   0.46873   0.67153   0.00000  Uiso   1.00
C1901  C     0.39604   0.48466   0.64174   0.00000  Uiso   1.00
H1902  H     0.42062   0.51239   0.63907   0.00000  Uiso   1.00
H1903  H     0.40616   0.46157   0.65620   0.00000  Uiso   1.00
C1904  C     0.39393   0.46527   0.60040   0.00000  Uiso   1.00
H1905  H     0.36888   0.43813   0.60215   0.00000  Uiso   1.00
H1906  H     0.42553   0.45455   0.58313   0.00000  Uiso   1.00
H1907  H     0.38617   0.48865   0.58469   0.00000  Uiso   1.00
C1908  C     0.64590   0.47516   0.80193   0.00000  Uiso   1.00
H1909  H     0.66572   0.46747   0.81989   0.00000  Uiso   1.00
H1910  H     0.62551   0.49930   0.82034   0.00000  Uiso   1.00
H1911  H     0.62583   0.44581   0.79547   0.00000  Uiso   1.00
O1912  O     0.55783   0.34294   0.73297   0.00000  Uiso   1.00
C1913  C     0.57093   0.34831   0.69234   0.00000  Uiso   1.00
H1914  H     0.55426   0.37334   0.68711   0.00000  Uiso   1.00
H1915  H     0.56401   0.65225   0.67358   0.00000  Uiso   1.00
C1916  C     0.61952   0.36130   0.68037   0.00000  Uiso   1.00
H1917  H     0.62725   0.38957   0.69996   0.00000  Uiso   1.00
H1918  H     0.63628   0.33563   0.68421   0.00000  Uiso   1.00
C1919  C     0.63620   0.37075   0.63746   0.00000  Uiso   1.00
H1920  H     0.62607   0.34427   0.61752   0.00000  Uiso   1.00
H1921  H     0.33860   0.37555   0.62889   0.00000  Uiso   1.00
H1922  H     0.62382   0.39944   0.63396   0.00000  Uiso   1.00
C1923  C     0.43563   0.65997   0.77348   0.00000  Uiso   1.00
H1924  H     0.41315   0.35087   0.78000   0.00000  Uiso   1.00
H1925  H     0.42780   0.63661   0.74970   0.00000  Uiso   1.00
H1926  H     0.42923   0.64555   0.80128   0.00000  Uiso   1.00
O1927  O     0.52024   0.53837   0.59580   0.00000  Uiso   1.00
C1928  C     0.55311   0.56639   0.57404   0.00000  Uiso   1.00
H1929  H     0.54009   0.59676   0.57781   0.00000  Uiso   1.00
H1930  H     0.56316   0.55672   0.54149   0.00000  Uiso   1.00
C1931  C     0.59254   0.57329   0.58999   0.00000  Uiso   1.00
H1932  H     0.58344   0.58837   0.62108   0.00000  Uiso   1.00
H1933  H     0.60401   0.54279   0.58968   0.00000  Uiso   1.00
C1934  C     0.62917   0.60089   0.56480   0.00000  Uiso   1.00
H1935  H     0.64213   0.58398   0.53494   0.00000  Uiso   1.00
H1936  H     0.65548   0.60923   0.57932   0.00000  Uiso   1.00
H1937  H     0.61764   0.63008   0.56136   0.00000  Uiso   1.00
O1938  O     0.55655   0.40451   0.60487   0.00000  Uiso   1.00
C1939  C     0.53502   0.36378   0.59999   0.00000  Uiso   1.00
H1940  H     0.55357   0.34183   0.60739   0.00000  Uiso   1.00
H1941  H     0.53385   0.35307   0.56903   0.00000  Uiso   1.00
C1942  C     0.48935   0.36062   0.62834   0.00000  Uiso   1.00
H1943  H     0.49075   0.37222   0.65899   0.00000  Uiso   1.00
H1944  H     0.46942   0.38031   0.61971   0.00000  Uiso   1.00
C1945  C     0.46808   0.64896   0.62763   0.00000  Uiso   1.00
H1946  H     0.46739   0.63610   0.59703   0.00000  Uiso   1.00
H1947  H     0.43446   0.64798   0.64713   0.00000  Uiso   1.00
H1948  H     0.48599   0.62927   0.63864   0.00000  Uiso   1.00
C1949  C     0.56282   0.39694   0.95514   0.00000  Uiso   1.00
H1950  H     0.59820   0.40005   0.95000   0.00000  Uiso   1.00
H1951  H     0.54726   0.36945   0.97117   0.00000  Uiso   1.00
H1952  H     0.55689   0.39056   0.92551   0.00000  Uiso   1.00
O1953  O     0.41021   0.60050   0.98378   0.00000  Uiso   1.00
C1954  C     0.42806   0.63851   0.96757   0.00000  Uiso   1.00
H1955  H     0.41042   0.64343   0.94659   0.00000  Uiso   1.00
H1956  H     0.46318   0.63924   0.95158   0.00000  Uiso   1.00
C1957  C     0.42259   0.34131   0.50093   0.00000  Uiso   1.00
H1958  H     0.38841   0.33989   0.51927   0.00000  Uiso   1.00
H1959  H     0.44314   0.33867   0.52016   0.00000  Uiso   1.00
C1960  C     0.43575   0.38334   0.98444   0.00000  Uiso   1.00
H1961  H     0.46859   0.38412   0.96353   0.00000  Uiso   1.00
H1962  H     0.43579   0.40871   0.50912   0.00000  Uiso   1.00
H1963  H     0.41280   0.38875   0.96859   0.00000  Uiso   1.00
O1964  O     0.41282   0.57254   0.90416   0.00000  Uiso   1.00
C1965  C     0.36865   0.55740   0.91833   0.00000  Uiso   1.00
H1966  H     0.34970   0.57885   0.91073   0.00000  Uiso   1.00
H1967  H     0.35726   0.55781   0.95115   0.00000  Uiso   1.00
C1968  C     0.35883   0.51336   0.89840   0.00000  Uiso   1.00
H1969  H     0.37156   0.51285   0.86571   0.00000  Uiso   1.00
H1970  H     0.37490   0.49084   0.90810   0.00000  Uiso   1.00
C1971  C     0.64370   0.49973   0.90911   0.00000  Uiso   1.00
H1972  H     0.62969   0.50220   0.94176   0.00000  Uiso   1.00
H1973  H     0.63762   0.46678   0.89666   0.00000  Uiso   1.00
H1974  H     0.62738   0.51966   0.89668   0.00000  Uiso   1.00
C1975  C     0.71949   0.49371   0.75842   0.00000  Uiso   1.00
C1976  C     0.77084   0.55613   0.92269   0.00000  Uiso   1.00
C1977  C     0.82631   0.51310   0.91906   0.00000  Uiso   1.00
C1978  C     0.81728   0.51762   0.96057   0.00000  Uiso   1.00
C1979  C     0.78782   0.54635   0.98334   0.00000  Uiso   1.00
C1980  C     0.83747   0.49447   0.97964   0.00000  Uiso   1.00
C1981  C     0.83248   0.50395   0.52065   0.00000  Uiso   1.00
C1982  C     0.80202   0.53102   0.54275   0.00000  Uiso   1.00
C1983  C     0.77910   0.55140   0.52525   0.00000  Uiso   1.00
C1984  C     0.86011   0.46028   0.95938   0.00000  Uiso   1.00
C1985  C     0.87795   0.43614   0.97851   0.00000  Uiso   1.00
C1986  C     0.94766   0.50622   0.74098   0.00000  Uiso   1.00
C1987  C     0.87582   0.44763   0.51908   0.00000  Uiso   1.00
C1988  C     0.85508   0.48334   0.53947   0.00000  Uiso   1.00
C1989  C     0.89324   0.42473   0.54056   0.00000  Uiso   1.00
C1990  C     0.87997   0.43086   0.58241   0.00000  Uiso   1.00
C1991  C     0.85803   0.49747   0.57850   0.00000  Uiso   1.00
C1992  C     0.99376   0.50523   0.73592   0.00000  Uiso   1.00
C1993  C     0.67409   0.49122   0.76370   0.00000  Uiso   1.00
C1994  C     0.84944   0.65640   0.74314   0.00000  Uiso   1.00
C1995  C     0.81571   0.34543   0.76049   0.00000  Uiso   1.00
C1996  C     0.82229   0.38961   0.75868   0.00000  Uiso   1.00
C1997  C     0.84360   0.61111   0.74197   0.00000  Uiso   1.00
C1998  C     0.85487   0.47850   0.64391   0.00000  Uiso   1.00
C1999  C     0.81187   0.52123   0.85642   0.00000  Uiso   1.00
C2000  C     0.80256   0.53048   0.90006   0.00000  Uiso   1.00
C2001  C     0.86432   0.46869   0.60097   0.00000  Uiso   1.00
C2002  C     0.76753   0.56822   0.96337   0.00000  Uiso   1.00
H2003  H     0.85249   0.49633   0.90060   0.00000  Uiso   1.00
H2004  H     0.79326   0.53444   0.57464   0.00000  Uiso   1.00
H2005  H     0.86137   0.44936   0.92895   0.00000  Uiso   1.00
O2006  O     0.83333   0.50000   0.75000   0.00000  Uiso   1.00
O2007  O     0.84515   0.41434   0.77821   0.00000  Uiso   1.00
O2008  O     0.81247   0.59469   0.76767   0.00000  Uiso   1.00
O2009  O     0.74119   0.46584   0.73607   0.00000  Uiso   1.00
O2010  O     0.93452   0.52512   0.71806   0.00000  Uiso   1.00
O2011  O     0.73656   0.52293   0.77820   0.00000  Uiso   1.00
O2012  O     0.92106   0.48610   0.76768   0.00000  Uiso   1.00
O2013  O     0.80467   0.40236   0.73607   0.00000  Uiso   1.00
O2014  O     0.87104   0.58860   0.71806   0.00000  Uiso   1.00
O2015  O     0.82360   0.45726   0.66625   0.00000  Uiso   1.00
O2016  O     0.79354   0.53979   0.83749   0.00000  Uiso   1.00
O2017  O     0.87755   0.50826   0.65877   0.00000  Uiso   1.00
O2018  O     0.83865   0.49468   0.83749   0.00000  Uiso   1.00
Zn2019 Zn    0.85910   0.47423   0.78278   0.00000  Uiso   1.00
Zn2020 Zn    0.80125   0.45711   0.72258   0.00000  Uiso   1.00
Zn2021 Zn    0.87833   0.52997   0.71188   0.00000  Uiso   1.00
Zn2022 Zn    0.79465   0.53868   0.78277   0.00000  Uiso   1.00
C2023  C     0.74389   0.57579   0.55287   0.00000  Uiso   1.00
H2024  H     0.73828   0.57136   0.58445   0.00000  Uiso   1.00
H2025  H     0.75268   0.60964   0.55072   0.00000  Uiso   1.00
H2026  H     0.71302   0.56499   0.54564   0.00000  Uiso   1.00
O2027  O     0.92319   0.39700   0.52124   0.00000  Uiso   1.00
C2028  C     0.96439   0.41397   0.52563   0.00000  Uiso   1.00
H2029  H     0.98472   0.38794   0.51927   0.00000  Uiso   1.00
H2030  H     0.96313   0.42785   0.55654   0.00000  Uiso   1.00
C2031  C     0.98661   0.44599   0.99621   0.00000  Uiso   1.00
H2032  H     0.99773   0.42949   0.96588   0.00000  Uiso   1.00
H2033  H     0.96373   0.46776   0.99597   0.00000  Uiso   1.00
C2034  C     0.69163   0.47207   0.50726   0.00000  Uiso   1.00
H2035  H     0.68036   0.49160   0.53597   0.00000  Uiso   1.00
H2036  H     0.70820   0.49291   0.98409   0.00000  Uiso   1.00
H2037  H     0.71482   0.45179   0.50971   0.00000  Uiso   1.00
O2038  O     0.69092   0.52062   0.70321   0.00000  Uiso   1.00
C2039  C     0.68572   0.49763   0.66741   0.00000  Uiso   1.00
H2040  H     0.67398   0.51817   0.65154   0.00000  Uiso   1.00
H2041  H     0.99573   0.46873   0.67153   0.00000  Uiso   1.00
C2042  C     0.72938   0.48466   0.64174   0.00000  Uiso   1.00
H2043  H     0.75395   0.51239   0.63907   0.00000  Uiso   1.00
H2044  H     0.73950   0.46157   0.65620   0.00000  Uiso   1.00
C2045  C     0.72726   0.46527   0.60040   0.00000  Uiso   1.00
H2046  H     0.70221   0.43813   0.60215   0.00000  Uiso   1.00
H2047  H     0.75886   0.45455   0.58313   0.00000  Uiso   1.00
H2048  H     0.71951   0.48865   0.58469   0.00000  Uiso   1.00
C2049  C     0.97924   0.47516   0.80193   0.00000  Uiso   1.00
H2050  H     0.99905   0.46747   0.81989   0.00000  Uiso   1.00
H2051  H     0.95884   0.49930   0.82034   0.00000  Uiso   1.00
H2052  H     0.95916   0.44581   0.79547   0.00000  Uiso   1.00
O2053  O     0.89116   0.34294   0.73297   0.00000  Uiso   1.00
C2054  C     0.90426   0.34831   0.69234   0.00000  Uiso   1.00
H2055  H     0.88759   0.37334   0.68711   0.00000  Uiso   1.00
H2056  H     0.89734   0.65225   0.67358   0.00000  Uiso   1.00
C2057  C     0.95285   0.36130   0.68037   0.00000  Uiso   1.00
H2058  H     0.96059   0.38957   0.69996   0.00000  Uiso   1.00
H2059  H     0.96961   0.33563   0.68421   0.00000  Uiso   1.00
C2060  C     0.96953   0.37075   0.63746   0.00000  Uiso   1.00
H2061  H     0.95940   0.34427   0.61752   0.00000  Uiso   1.00
H2062  H     0.67194   0.37555   0.62889   0.00000  Uiso   1.00
H2063  H     0.95716   0.39944   0.63396   0.00000  Uiso   1.00
C2064  C     0.76896   0.65997   0.77348   0.00000  Uiso   1.00
H2065  H     0.74648   0.35087   0.78000   0.00000  Uiso   1.00
H2066  H     0.76114   0.63661   0.74970   0.00000  Uiso   1.00
H2067  H     0.76257   0.64555   0.80128   0.00000  Uiso   1.00
O2068  O     0.85358   0.53837   0.59580   0.00000  Uiso   1.00
C2069  C     0.88644   0.56639   0.57404   0.00000  Uiso   1.00
H2070  H     0.87342   0.59676   0.57781   0.00000  Uiso   1.00
H2071  H     0.89649   0.55672   0.54149   0.00000  Uiso   1.00
C2072  C     0.92587   0.57329   0.58999   0.00000  Uiso   1.00
H2073  H     0.91677   0.58837   0.62108   0.00000  Uiso   1.00
H2074  H     0.93734   0.54279   0.58968   0.00000  Uiso   1.00
C2075  C     0.96250   0.60089   0.56480   0.00000  Uiso   1.00
H2076  H     0.97546   0.58398   0.53494   0.00000  Uiso   1.00
H2077  H     0.98881   0.60923   0.57932   0.00000  Uiso   1.00
H2078  H     0.95097   0.63008   0.56136   0.00000  Uiso   1.00
O2079  O     0.88988   0.40451   0.60487   0.00000  Uiso   1.00
C2080  C     0.86836   0.36378   0.59999   0.00000  Uiso   1.00
H2081  H     0.88691   0.34183   0.60739   0.00000  Uiso   1.00
H2082  H     0.86718   0.35307   0.56903   0.00000  Uiso   1.00
C2083  C     0.82269   0.36062   0.62834   0.00000  Uiso   1.00
H2084  H     0.82409   0.37222   0.65899   0.00000  Uiso   1.00
H2085  H     0.80275   0.38031   0.61971   0.00000  Uiso   1.00
C2086  C     0.80141   0.64896   0.62763   0.00000  Uiso   1.00
H2087  H     0.80072   0.63610   0.59703   0.00000  Uiso   1.00
H2088  H     0.76780   0.64798   0.64713   0.00000  Uiso   1.00
H2089  H     0.81932   0.62927   0.63864   0.00000  Uiso   1.00
C2090  C     0.89615   0.39694   0.95514   0.00000  Uiso   1.00
H2091  H     0.93153   0.40005   0.95000   0.00000  Uiso   1.00
H2092  H     0.88060   0.36945   0.97117   0.00000  Uiso   1.00
H2093  H     0.89023   0.39056   0.92551   0.00000  Uiso   1.00
O2094  O     0.74354   0.60050   0.98378   0.00000  Uiso   1.00
C2095  C     0.76139   0.63851   0.96757   0.00000  Uiso   1.00
H2096  H     0.74375   0.64343   0.94659   0.00000  Uiso   1.00
H2097  H     0.79651   0.63924   0.95158   0.00000  Uiso   1.00
C2098  C     0.75592   0.34131   0.50093   0.00000  Uiso   1.00
H2099  H     0.72174   0.33989   0.51927   0.00000  Uiso   1.00
H2100  H     0.77648   0.33867   0.52016   0.00000  Uiso   1.00
C2101  C     0.76909   0.38334   0.98444   0.00000  Uiso   1.00
H2102  H     0.80192   0.38412   0.96353   0.00000  Uiso   1.00
H2103  H     0.76913   0.40871   0.50912   0.00000  Uiso   1.00
H2104  H     0.74613   0.38875   0.96859   0.00000  Uiso   1.00
O2105  O     0.74615   0.57254   0.90416   0.00000  Uiso   1.00
C2106  C     0.70199   0.55740   0.91833   0.00000  Uiso   1.00
H2107  H     0.68303   0.57885   0.91073   0.00000  Uiso   1.00
H2108  H     0.69059   0.55781   0.95115   0.00000  Uiso   1.00
C2109  C     0.69216   0.51336   0.89840   0.00000  Uiso   1.00
H2110  H     0.70489   0.51285   0.86571   0.00000  Uiso   1.00
H2111  H     0.70823   0.49084   0.90810   0.00000  Uiso   1.00
C2112  C     0.97703   0.49973   0.90911   0.00000  Uiso   1.00
H2113  H     0.96302   0.50220   0.94176   0.00000  Uiso   1.00
H2114  H     0.97095   0.46678   0.89666   0.00000  Uiso   1.00
H2115  H     0.96071   0.51966   0.89668   0.00000  Uiso   1.00
C2116  C     0.05283   0.82705   0.75842   0.00000  Uiso   1.00
C2117  C     0.10418   0.88946   0.92269   0.00000  Uiso   1.00
C2118  C     0.15965   0.84643   0.91906   0.00000  Uiso   1.00
C2119  C     0.15061   0.85096   0.96057   0.00000  Uiso   1.00
C2120  C     0.12115   0.87968   0.98334   0.00000  Uiso   1.00
C2121  C     0.17080   0.82780   0.97964   0.00000  Uiso   1.00
C2122  C     0.16581   0.83729   0.52065   0.00000  Uiso   1.00
C2123  C     0.13535   0.86436   0.54275   0.00000  Uiso   1.00
C2124  C     0.11244   0.88474   0.52525   0.00000  Uiso   1.00
C2125  C     0.19345   0.79361   0.95938   0.00000  Uiso   1.00
C2126  C     0.21128   0.76947   0.97851   0.00000  Uiso   1.00
C2127  C     0.28099   0.83955   0.74098   0.00000  Uiso   1.00
C2128  C     0.20915   0.78096   0.51908   0.00000  Uiso   1.00
C2129  C     0.18842   0.81667   0.53947   0.00000  Uiso   1.00
C2130  C     0.22657   0.75806   0.54056   0.00000  Uiso   1.00
C2131  C     0.21330   0.76420   0.58241   0.00000  Uiso   1.00
C2132  C     0.19137   0.83080   0.57850   0.00000  Uiso   1.00
C2133  C     0.32709   0.83856   0.73592   0.00000  Uiso   1.00
C2134  C     0.00742   0.82455   0.76370   0.00000  Uiso   1.00
C2135  C     0.18278   0.98974   0.74314   0.00000  Uiso   1.00
C2136  C     0.14904   0.67877   0.76049   0.00000  Uiso   1.00
C2137  C     0.15563   0.72295   0.75868   0.00000  Uiso   1.00
C2138  C     0.17693   0.94444   0.74197   0.00000  Uiso   1.00
C2139  C     0.18821   0.81183   0.64391   0.00000  Uiso   1.00
C2140  C     0.14520   0.85456   0.85642   0.00000  Uiso   1.00
C2141  C     0.13589   0.86382   0.90006   0.00000  Uiso   1.00
C2142  C     0.19766   0.80203   0.60097   0.00000  Uiso   1.00
C2143  C     0.10087   0.90156   0.96337   0.00000  Uiso   1.00
H2144  H     0.18582   0.82966   0.90060   0.00000  Uiso   1.00
H2145  H     0.12659   0.86777   0.57464   0.00000  Uiso   1.00
H2146  H     0.19470   0.78270   0.92895   0.00000  Uiso   1.00
O2147  O     0.16667   0.83333   0.75000   0.00000  Uiso   1.00
O2148  O     0.17849   0.74768   0.77821   0.00000  Uiso   1.00
O2149  O     0.14581   0.92803   0.76767   0.00000  Uiso   1.00
O2150  O     0.07452   0.79917   0.73607   0.00000  Uiso   1.00
O2151  O     0.26785   0.85845   0.71806   0.00000  Uiso   1.00
O2152  O     0.06990   0.85627   0.77820   0.00000  Uiso   1.00
O2153  O     0.25440   0.81944   0.76768   0.00000  Uiso   1.00
O2154  O     0.13800   0.73570   0.73607   0.00000  Uiso   1.00
O2155  O     0.20437   0.92193   0.71806   0.00000  Uiso   1.00
O2156  O     0.15693   0.79060   0.66625   0.00000  Uiso   1.00
O2157  O     0.12687   0.87313   0.83749   0.00000  Uiso   1.00
O2158  O     0.21088   0.84159   0.65877   0.00000  Uiso   1.00
O2159  O     0.17198   0.82802   0.83749   0.00000  Uiso   1.00
Zn2160 Zn    0.19244   0.80756   0.78278   0.00000  Uiso   1.00
Zn2161 Zn    0.13459   0.79044   0.72258   0.00000  Uiso   1.00
Zn2162 Zn    0.21166   0.86331   0.71188   0.00000  Uiso   1.00
Zn2163 Zn    0.12798   0.87202   0.78277   0.00000  Uiso   1.00
C2164  C     0.07722   0.90912   0.55287   0.00000  Uiso   1.00
H2165  H     0.07161   0.90469   0.58445   0.00000  Uiso   1.00
H2166  H     0.08601   0.94297   0.55072   0.00000  Uiso   1.00
H2167  H     0.04635   0.89832   0.54564   0.00000  Uiso   1.00
O2168  O     0.25652   0.73034   0.52124   0.00000  Uiso   1.00
C2169  C     0.29773   0.74730   0.52563   0.00000  Uiso   1.00
H2170  H     0.31805   0.72127   0.51927   0.00000  Uiso   1.00
H2171  H     0.29646   0.76118   0.55654   0.00000  Uiso   1.00
C2172  C     0.31994   0.77933   0.99621   0.00000  Uiso   1.00
H2173  H     0.33106   0.76282   0.96588   0.00000  Uiso   1.00
H2174  H     0.29706   0.80109   0.99597   0.00000  Uiso   1.00
C2175  C     0.02496   0.80540   0.50726   0.00000  Uiso   1.00
H2176  H     0.01369   0.82494   0.53597   0.00000  Uiso   1.00
H2177  H     0.04154   0.82625   0.98409   0.00000  Uiso   1.00
H2178  H     0.04815   0.78513   0.50971   0.00000  Uiso   1.00
O2179  O     0.02425   0.85395   0.70321   0.00000  Uiso   1.00
C2180  C     0.01906   0.83096   0.66741   0.00000  Uiso   1.00
H2181  H     0.00732   0.85151   0.65154   0.00000  Uiso   1.00
H2182  H     0.32906   0.80207   0.67153   0.00000  Uiso   1.00
C2183  C     0.06271   0.81799   0.64174   0.00000  Uiso   1.00
H2184  H     0.08728   0.84573   0.63907   0.00000  Uiso   1.00
H2185  H     0.07283   0.79490   0.65620   0.00000  Uiso   1.00
C2186  C     0.06059   0.79860   0.60040   0.00000  Uiso   1.00
H2187  H     0.03554   0.77146   0.60215   0.00000  Uiso   1.00
H2188  H     0.09219   0.78789   0.58313   0.00000  Uiso   1.00
H2189  H     0.05284   0.82198   0.58469   0.00000  Uiso   1.00
C2190  C     0.31257   0.80850   0.80193   0.00000  Uiso   1.00
H2191  H     0.33238   0.80080   0.81989   0.00000  Uiso   1.00
H2192  H     0.29218   0.83263   0.82034   0.00000  Uiso   1.00
H2193  H     0.29250   0.77915   0.79547   0.00000  Uiso   1.00
O2194  O     0.22449   0.67627   0.73297   0.00000  Uiso   1.00
C2195  C     0.23759   0.68164   0.69234   0.00000  Uiso   1.00
H2196  H     0.22092   0.70668   0.68711   0.00000  Uiso   1.00
H2197  H     0.23068   0.98558   0.67358   0.00000  Uiso   1.00
C2198  C     0.28619   0.69464   0.68037   0.00000  Uiso   1.00
H2199  H     0.29392   0.72290   0.69996   0.00000  Uiso   1.00
H2200  H     0.30294   0.66896   0.68421   0.00000  Uiso   1.00
C2201  C     0.30287   0.70409   0.63746   0.00000  Uiso   1.00
H2202  H     0.29273   0.67760   0.61752   0.00000  Uiso   1.00
H2203  H     0.00527   0.70889   0.62889   0.00000  Uiso   1.00
H2204  H     0.29049   0.73277   0.63396   0.00000  Uiso   1.00
C2205  C     0.10230   0.99331   0.77348   0.00000  Uiso   1.00
H2206  H     0.07981   0.68421   0.78000   0.00000  Uiso   1.00
H2207  H     0.09447   0.96994   0.74970   0.00000  Uiso   1.00
H2208  H     0.09590   0.97888   0.80128   0.00000  Uiso   1.00
O2209  O     0.18691   0.87171   0.59580   0.00000  Uiso   1.00
C2210  C     0.21978   0.89973   0.57404   0.00000  Uiso   1.00
H2211  H     0.20675   0.93010   0.57781   0.00000  Uiso   1.00
H2212  H     0.22982   0.89005   0.54149   0.00000  Uiso   1.00
C2213  C     0.25920   0.90662   0.58999   0.00000  Uiso   1.00
H2214  H     0.25011   0.92170   0.62108   0.00000  Uiso   1.00
H2215  H     0.27067   0.87612   0.58968   0.00000  Uiso   1.00
C2216  C     0.29583   0.93422   0.56480   0.00000  Uiso   1.00
H2217  H     0.30879   0.91731   0.53494   0.00000  Uiso   1.00
H2218  H     0.32215   0.94256   0.57932   0.00000  Uiso   1.00
H2219  H     0.28431   0.96341   0.56136   0.00000  Uiso   1.00
O2220  O     0.22322   0.73784   0.60487   0.00000  Uiso   1.00
C2221  C     0.20169   0.69711   0.59999   0.00000  Uiso   1.00
H2222  H     0.22024   0.67516   0.60739   0.00000  Uiso   1.00
H2223  H     0.20051   0.68640   0.56903   0.00000  Uiso   1.00
C2224  C     0.15602   0.69396   0.62834   0.00000  Uiso   1.00
H2225  H     0.15742   0.70555   0.65899   0.00000  Uiso   1.00
H2226  H     0.13609   0.71364   0.61971   0.00000  Uiso   1.00
C2227  C     0.13474   0.98230   0.62763   0.00000  Uiso   1.00
H2228  H     0.13406   0.96943   0.59703   0.00000  Uiso   1.00
H2229  H     0.10113   0.98131   0.64713   0.00000  Uiso   1.00
H2230  H     0.15266   0.96260   0.63864   0.00000  Uiso   1.00
C2231  C     0.22949   0.73027   0.95514   0.00000  Uiso   1.00
H2232  H     0.26486   0.73339   0.95000   0.00000  Uiso   1.00
H2233  H     0.21393   0.70279   0.97117   0.00000  Uiso   1.00
H2234  H     0.22356   0.72389   0.92551   0.00000  Uiso   1.00
O2235  O     0.07687   0.93384   0.98378   0.00000  Uiso   1.00
C2236  C     0.09473   0.97184   0.96757   0.00000  Uiso   1.00
H2237  H     0.07708   0.97677   0.94659   0.00000  Uiso   1.00
H2238  H     0.12985   0.97258   0.95158   0.00000  Uiso   1.00
C2239  C     0.08925   0.67464   0.50093   0.00000  Uiso   1.00
H2240  H     0.05507   0.67323   0.51927   0.00000  Uiso   1.00
H2241  H     0.10981   0.67200   0.52016   0.00000  Uiso   1.00
C2242  C     0.10242   0.71668   0.98444   0.00000  Uiso   1.00
H2243  H     0.13526   0.71746   0.96353   0.00000  Uiso   1.00
H2244  H     0.10246   0.74204   0.50912   0.00000  Uiso   1.00
H2245  H     0.07946   0.72208   0.96859   0.00000  Uiso   1.00
O2246  O     0.07948   0.90588   0.90416   0.00000  Uiso   1.00
C2247  C     0.03532   0.89073   0.91833   0.00000  Uiso   1.00
H2248  H     0.01637   0.91219   0.91073   0.00000  Uiso   1.00
H2249  H     0.02392   0.89114   0.95115   0.00000  Uiso   1.00
C2250  C     0.02549   0.84669   0.89840   0.00000  Uiso   1.00
H2251  H     0.03823   0.84618   0.86571   0.00000  Uiso   1.00
H2252  H     0.04156   0.82418   0.90810   0.00000  Uiso   1.00
C2253  C     0.31037   0.83307   0.90911   0.00000  Uiso   1.00
H2254  H     0.29635   0.83553   0.94176   0.00000  Uiso   1.00
H2255  H     0.30428   0.80011   0.89666   0.00000  Uiso   1.00
H2256  H     0.29405   0.85299   0.89668   0.00000  Uiso   1.00
C2257  C     0.38616   0.82705   0.75842   0.00000  Uiso   1.00
C2258  C     0.43751   0.88946   0.92269   0.00000  Uiso   1.00
C2259  C     0.49298   0.84643   0.91906   0.00000  Uiso   1.00
C2260  C     0.48394   0.85096   0.96057   0.00000  Uiso   1.00
C2261  C     0.45448   0.87968   0.98334   0.00000  Uiso   1.00
C2262  C     0.50414   0.82780   0.97964   0.00000  Uiso   1.00
C2263  C     0.49915   0.83729   0.52065   0.00000  Uiso   1.00
C2264  C     0.46868   0.86436   0.54275   0.00000  Uiso   1.00
C2265  C     0.44577   0.88474   0.52525   0.00000  Uiso   1.00
C2266  C     0.52678   0.79361   0.95938   0.00000  Uiso   1.00
C2267  C     0.54461   0.76947   0.97851   0.00000  Uiso   1.00
C2268  C     0.61433   0.83955   0.74098   0.00000  Uiso   1.00
C2269  C     0.54248   0.78096   0.51908   0.00000  Uiso   1.00
C2270  C     0.52175   0.81667   0.53947   0.00000  Uiso   1.00
C2271  C     0.55990   0.75806   0.54056   0.00000  Uiso   1.00
C2272  C     0.54663   0.76420   0.58241   0.00000  Uiso   1.00
C2273  C     0.52470   0.83080   0.57850   0.00000  Uiso   1.00
C2274  C     0.66043   0.83856   0.73592   0.00000  Uiso   1.00
C2275  C     0.34075   0.82455   0.76370   0.00000  Uiso   1.00
C2276  C     0.51611   0.98974   0.74314   0.00000  Uiso   1.00
C2277  C     0.48237   0.67877   0.76049   0.00000  Uiso   1.00
C2278  C     0.48896   0.72295   0.75868   0.00000  Uiso   1.00
C2279  C     0.51027   0.94444   0.74197   0.00000  Uiso   1.00
C2280  C     0.52154   0.81183   0.64391   0.00000  Uiso   1.00
C2281  C     0.47853   0.85456   0.85642   0.00000  Uiso   1.00
C2282  C     0.46922   0.86382   0.90006   0.00000  Uiso   1.00
C2283  C     0.53099   0.80203   0.60097   0.00000  Uiso   1.00
C2284  C     0.43420   0.90156   0.96337   0.00000  Uiso   1.00
H2285  H     0.51915   0.82966   0.90060   0.00000  Uiso   1.00
H2286  H     0.45993   0.86777   0.57464   0.00000  Uiso   1.00
H2287  H     0.52804   0.78270   0.92895   0.00000  Uiso   1.00
O2288  O     0.50000   0.83333   0.75000   0.00000  Uiso   1.00
O2289  O     0.51182   0.74768   0.77821   0.00000  Uiso   1.00
O2290  O     0.47914   0.92803   0.76767   0.00000  Uiso   1.00
O2291  O     0.40785   0.79917   0.73607   0.00000  Uiso   1.00
O2292  O     0.60119   0.85845   0.71806   0.00000  Uiso   1.00
O2293  O     0.40323   0.85627   0.77820   0.00000  Uiso   1.00
O2294  O     0.58773   0.81944   0.76768   0.00000  Uiso   1.00
O2295  O     0.47133   0.73570   0.73607   0.00000  Uiso   1.00
O2296  O     0.53771   0.92193   0.71806   0.00000  Uiso   1.00
O2297  O     0.49027   0.79060   0.66625   0.00000  Uiso   1.00
O2298  O     0.46020   0.87313   0.83749   0.00000  Uiso   1.00
O2299  O     0.54421   0.84159   0.65877   0.00000  Uiso   1.00
O2300  O     0.50532   0.82802   0.83749   0.00000  Uiso   1.00
Zn2301 Zn    0.52577   0.80756   0.78278   0.00000  Uiso   1.00
Zn2302 Zn    0.46792   0.79044   0.72258   0.00000  Uiso   1.00
Zn2303 Zn    0.54500   0.86331   0.71188   0.00000  Uiso   1.00
Zn2304 Zn    0.46131   0.87202   0.78277   0.00000  Uiso   1.00
C2305  C     0.41056   0.90912   0.55287   0.00000  Uiso   1.00
H2306  H     0.40495   0.90469   0.58445   0.00000  Uiso   1.00
H2307  H     0.41935   0.94297   0.55072   0.00000  Uiso   1.00
H2308  H     0.37968   0.89832   0.54564   0.00000  Uiso   1.00
O2309  O     0.58986   0.73034   0.52124   0.00000  Uiso   1.00
C2310  C     0.63106   0.74730   0.52563   0.00000  Uiso   1.00
H2311  H     0.65138   0.72127   0.51927   0.00000  Uiso   1.00
H2312  H     0.62980   0.76118   0.55654   0.00000  Uiso   1.00
C2313  C     0.65327   0.77933   0.99621   0.00000  Uiso   1.00
H2314  H     0.66440   0.76282   0.96588   0.00000  Uiso   1.00
H2315  H     0.63040   0.80109   0.99597   0.00000  Uiso   1.00
C2316  C     0.35830   0.80540   0.50726   0.00000  Uiso   1.00
H2317  H     0.34703   0.82494   0.53597   0.00000  Uiso   1.00
H2318  H     0.37487   0.82625   0.98409   0.00000  Uiso   1.00
H2319  H     0.38148   0.78513   0.50971   0.00000  Uiso   1.00
O2320  O     0.35758   0.85395   0.70321   0.00000  Uiso   1.00
C2321  C     0.35239   0.83096   0.66741   0.00000  Uiso   1.00
H2322  H     0.34065   0.85151   0.65154   0.00000  Uiso   1.00
H2323  H     0.66240   0.80207   0.67153   0.00000  Uiso   1.00
C2324  C     0.39604   0.81799   0.64174   0.00000  Uiso   1.00
H2325  H     0.42062   0.84573   0.63907   0.00000  Uiso   1.00
H2326  H     0.40616   0.79490   0.65620   0.00000  Uiso   1.00
C2327  C     0.39393   0.79860   0.60040   0.00000  Uiso   1.00
H2328  H     0.36888   0.77146   0.60215   0.00000  Uiso   1.00
H2329  H     0.42553   0.78789   0.58313   0.00000  Uiso   1.00
H2330  H     0.38617   0.82198   0.58469   0.00000  Uiso   1.00
C2331  C     0.64590   0.80850   0.80193   0.00000  Uiso   1.00
H2332  H     0.66572   0.80080   0.81989   0.00000  Uiso   1.00
H2333  H     0.62551   0.83263   0.82034   0.00000  Uiso   1.00
H2334  H     0.62583   0.77915   0.79547   0.00000  Uiso   1.00
O2335  O     0.55783   0.67627   0.73297   0.00000  Uiso   1.00
C2336  C     0.57093   0.68164   0.69234   0.00000  Uiso   1.00
H2337  H     0.55426   0.70668   0.68711   0.00000  Uiso   1.00
H2338  H     0.56401   0.98558   0.67358   0.00000  Uiso   1.00
C2339  C     0.61952   0.69464   0.68037   0.00000  Uiso   1.00
H2340  H     0.62725   0.72290   0.69996   0.00000  Uiso   1.00
H2341  H     0.63628   0.66896   0.68421   0.00000  Uiso   1.00
C2342  C     0.63620   0.70409   0.63746   0.00000  Uiso   1.00
H2343  H     0.62607   0.67760   0.61752   0.00000  Uiso   1.00
H2344  H     0.33860   0.70889   0.62889   0.00000  Uiso   1.00
H2345  H     0.62382   0.73277   0.63396   0.00000  Uiso   1.00
C2346  C     0.43563   0.99331   0.77348   0.00000  Uiso   1.00
H2347  H     0.41315   0.68421   0.78000   0.00000  Uiso   1.00
H2348  H     0.42780   0.96994   0.74970   0.00000  Uiso   1.00
H2349  H     0.42923   0.97888   0.80128   0.00000  Uiso   1.00
O2350  O     0.52024   0.87171   0.59580   0.00000  Uiso   1.00
C2351  C     0.55311   0.89973   0.57404   0.00000  Uiso   1.00
H2352  H     0.54009   0.93010   0.57781   0.00000  Uiso   1.00
H2353  H     0.56316   0.89005   0.54149   0.00000  Uiso   1.00
C2354  C     0.59254   0.90662   0.58999   0.00000  Uiso   1.00
H2355  H     0.58344   0.92170   0.62108   0.00000  Uiso   1.00
H2356  H     0.60401   0.87612   0.58968   0.00000  Uiso   1.00
C2357  C     0.62917   0.93422   0.56480   0.00000  Uiso   1.00
H2358  H     0.64213   0.91731   0.53494   0.00000  Uiso   1.00
H2359  H     0.65548   0.94256   0.57932   0.00000  Uiso   1.00
H2360  H     0.61764   0.96341   0.56136   0.00000  Uiso   1.00
O2361  O     0.55655   0.73784   0.60487   0.00000  Uiso   1.00
C2362  C     0.53502   0.69711   0.59999   0.00000  Uiso   1.00
H2363  H     0.55357   0.67516   0.60739   0.00000  Uiso   1.00
H2364  H     0.53385   0.68640   0.56903   0.00000  Uiso   1.00
C2365  C     0.48935   0.69396   0.62834   0.00000  Uiso   1.00
H2366  H     0.49075   0.70555   0.65899   0.00000  Uiso   1.00
H2367  H     0.46942   0.71364   0.61971   0.00000  Uiso   1.00
C2368  C     0.46808   0.98230   0.62763   0.00000  Uiso   1.00
H2369  H     0.46739   0.96943   0.59703   0.00000  Uiso   1.00
H2370  H     0.43446   0.98131   0.64713   0.00000  Uiso   1.00
H2371  H     0.48599   0.96260   0.63864   0.00000  Uiso   1.00
C2372  C     0.56282   0.73027   0.95514   0.00000  Uiso   1.00
H2373  H     0.59820   0.73339   0.95000   0.00000  Uiso   1.00
H2374  H     0.54726   0.70279   0.97117   0.00000  Uiso   1.00
H2375  H     0.55689   0.72389   0.92551   0.00000  Uiso   1.00
O2376  O     0.41021   0.93384   0.98378   0.00000  Uiso   1.00
C2377  C     0.42806   0.97184   0.96757   0.00000  Uiso   1.00
H2378  H     0.41042   0.97677   0.94659   0.00000  Uiso   1.00
H2379  H     0.46318   0.97258   0.95158   0.00000  Uiso   1.00
C2380  C     0.42259   0.67464   0.50093   0.00000  Uiso   1.00
H2381  H     0.38841   0.67323   0.51927   0.00000  Uiso   1.00
H2382  H     0.44314   0.67200   0.52016   0.00000  Uiso   1.00
C2383  C     0.43575   0.71668   0.98444   0.00000  Uiso   1.00
H2384  H     0.46859   0.71746   0.96353   0.00000  Uiso   1.00
H2385  H     0.43579   0.74204   0.50912   0.00000  Uiso   1.00
H2386  H     0.41280   0.72208   0.96859   0.00000  Uiso   1.00
O2387  O     0.41282   0.90588   0.90416   0.00000  Uiso   1.00
C2388  C     0.36865   0.89073   0.91833   0.00000  Uiso   1.00
H2389  H     0.34970   0.91219   0.91073   0.00000  Uiso   1.00
H2390  H     0.35726   0.89114   0.95115   0.00000  Uiso   1.00
C2391  C     0.35883   0.84669   0.89840   0.00000  Uiso   1.00
H2392  H     0.37156   0.84618   0.86571   0.00000  Uiso   1.00
H2393  H     0.37490   0.82418   0.90810   0.00000  Uiso   1.00
C2394  C     0.64370   0.83307   0.90911   0.00000  Uiso   1.00
H2395  H     0.62969   0.83553   0.94176   0.00000  Uiso   1.00
H2396  H     0.63762   0.80011   0.89666   0.00000  Uiso   1.00
H2397  H     0.62738   0.85299   0.89668   0.00000  Uiso   1.00
C2398  C     0.71949   0.82705   0.75842   0.00000  Uiso   1.00
C2399  C     0.77084   0.88946   0.92269   0.00000  Uiso   1.00
C2400  C     0.82631   0.84643   0.91906   0.00000  Uiso   1.00
C2401  C     0.81728   0.85096   0.96057   0.00000  Uiso   1.00
C2402  C     0.78782   0.87968   0.98334   0.00000  Uiso   1.00
C2403  C     0.83747   0.82780   0.97964   0.00000  Uiso   1.00
C2404  C     0.83248   0.83729   0.52065   0.00000  Uiso   1.00
C2405  C     0.80202   0.86436   0.54275   0.00000  Uiso   1.00
C2406  C     0.77910   0.88474   0.52525   0.00000  Uiso   1.00
C2407  C     0.86011   0.79361   0.95938   0.00000  Uiso   1.00
C2408  C     0.87795   0.76947   0.97851   0.00000  Uiso   1.00
C2409  C     0.94766   0.83955   0.74098   0.00000  Uiso   1.00
C2410  C     0.87582   0.78096   0.51908   0.00000  Uiso   1.00
C2411  C     0.85508   0.81667   0.53947   0.00000  Uiso   1.00
C2412  C     0.89324   0.75806   0.54056   0.00000  Uiso   1.00
C2413  C     0.87997   0.76420   0.58241   0.00000  Uiso   1.00
C2414  C     0.85803   0.83080   0.57850   0.00000  Uiso   1.00
C2415  C     0.99376   0.83856   0.73592   0.00000  Uiso   1.00
C2416  C     0.67409   0.82455   0.76370   0.00000  Uiso   1.00
C2417  C     0.84944   0.98974   0.74314   0.00000  Uiso   1.00
C2418  C     0.81571   0.67877   0.76049   0.00000  Uiso   1.00
C2419  C     0.82229   0.72295   0.75868   0.00000  Uiso   1.00
C2420  C     0.84360   0.94444   0.74197   0.00000  Uiso   1.00
C2421  C     0.85487   0.81183   0.64391   0.00000  Uiso   1.00
C2422  C     0.81187   0.85456   0.85642   0.00000  Uiso   1.00
C2423  C     0.80256   0.86382   0.90006   0.00000  Uiso   1.00
C2424  C     0.86432   0.80203   0.60097   0.00000  Uiso   1.00
C2425  C     0.76753   0.90156   0.96337   0.00000  Uiso   1.00
H2426  H     0.85249   0.82966   0.90060   0.00000  Uiso   1.00
H2427  H     0.79326   0.86777   0.57464   0.00000  Uiso   1.00
H2428  H     0.86137   0.78270   0.92895   0.00000  Uiso   1.00
O2429  O     0.83333   0.83333   0.75000   0.00000  Uiso   1.00
O2430  O     0.84515   0.74768   0.77821   0.00000  Uiso   1.00
O2431  O     0.81247   0.92803   0.76767   0.00000  Uiso   1.00
O2432  O     0.74119   0.79917   0.73607   0.00000  Uiso   1.00
O2433  O     0.93452   0.85845   0.71806   0.00000  Uiso   1.00
O2434  O     0.73656   0.85627   0.77820   0.00000  Uiso   1.00
O2435  O     0.92106   0.81944   0.76768   0.00000  Uiso   1.00
O2436  O     0.80467   0.73570   0.73607   0.00000  Uiso   1.00
O2437  O     0.87104   0.92193   0.71806   0.00000  Uiso   1.00
O2438  O     0.82360   0.79060   0.66625   0.00000  Uiso   1.00
O2439  O     0.79354   0.87313   0.83749   0.00000  Uiso   1.00
O2440  O     0.87755   0.84159   0.65877   0.00000  Uiso   1.00
O2441  O     0.83865   0.82802   0.83749   0.00000  Uiso   1.00
Zn2442 Zn    0.85910   0.80756   0.78278   0.00000  Uiso   1.00
Zn2443 Zn    0.80125   0.79044   0.72258   0.00000  Uiso   1.00
Zn2444 Zn    0.87833   0.86331   0.71188   0.00000  Uiso   1.00
Zn2445 Zn    0.79465   0.87202   0.78277   0.00000  Uiso   1.00
C2446  C     0.74389   0.90912   0.55287   0.00000  Uiso   1.00
H2447  H     0.73828   0.90469   0.58445   0.00000  Uiso   1.00
H2448  H     0.75268   0.94297   0.55072   0.00000  Uiso   1.00
H2449  H     0.71302   0.89832   0.54564   0.00000  Uiso   1.00
O2450  O     0.92319   0.73034   0.52124   0.00000  Uiso   1.00
C2451  C     0.96439   0.74730   0.52563   0.00000  Uiso   1.00
H2452  H     0.98472   0.72127   0.51927   0.00000  Uiso   1.00
H2453  H     0.96313   0.76118   0.55654   0.00000  Uiso   1.00
C2454  C     0.98661   0.77933   0.99621   0.00000  Uiso   1.00
H2455  H     0.99773   0.76282   0.96588   0.00000  Uiso   1.00
H2456  H     0.96373   0.80109   0.99597   0.00000  Uiso   1.00
C2457  C     0.69163   0.80540   0.50726   0.00000  Uiso   1.00
H2458  H     0.68036   0.82494   0.53597   0.00000  Uiso   1.00
H2459  H     0.70820   0.82625   0.98409   0.00000  Uiso   1.00
H2460  H     0.71482   0.78513   0.50971   0.00000  Uiso   1.00
O2461  O     0.69092   0.85395   0.70321   0.00000  Uiso   1.00
C2462  C     0.68572   0.83096   0.66741   0.00000  Uiso   1.00
H2463  H     0.67398   0.85151   0.65154   0.00000  Uiso   1.00
H2464  H     0.99573   0.80207   0.67153   0.00000  Uiso   1.00
C2465  C     0.72938   0.81799   0.64174   0.00000  Uiso   1.00
H2466  H     0.75395   0.84573   0.63907   0.00000  Uiso   1.00
H2467  H     0.73950   0.79490   0.65620   0.00000  Uiso   1.00
C2468  C     0.72726   0.79860   0.60040   0.00000  Uiso   1.00
H2469  H     0.70221   0.77146   0.60215   0.00000  Uiso   1.00
H2470  H     0.75886   0.78789   0.58313   0.00000  Uiso   1.00
H2471  H     0.71951   0.82198   0.58469   0.00000  Uiso   1.00
C2472  C     0.97924   0.80850   0.80193   0.00000  Uiso   1.00
H2473  H     0.99905   0.80080   0.81989   0.00000  Uiso   1.00
H2474  H     0.95884   0.83263   0.82034   0.00000  Uiso   1.00
H2475  H     0.95916   0.77915   0.79547   0.00000  Uiso   1.00
O2476  O     0.89116   0.67627   0.73297   0.00000  Uiso   1.00
C2477  C     0.90426   0.68164   0.69234   0.00000  Uiso   1.00
H2478  H     0.88759   0.70668   0.68711   0.00000  Uiso   1.00
H2479  H     0.89734   0.98558   0.67358   0.00000  Uiso   1.00
C2480  C     0.95285   0.69464   0.68037   0.00000  Uiso   1.00
H2481  H     0.96059   0.72290   0.69996   0.00000  Uiso   1.00
H2482  H     0.96961   0.66896   0.68421   0.00000  Uiso   1.00
C2483  C     0.96953   0.70409   0.63746   0.00000  Uiso   1.00
H2484  H     0.95940   0.67760   0.61752   0.00000  Uiso   1.00
H2485  H     0.67194   0.70889   0.62889   0.00000  Uiso   1.00
H2486  H     0.95716   0.73277   0.63396   0.00000  Uiso   1.00
C2487  C     0.76896   0.99331   0.77348   0.00000  Uiso   1.00
H2488  H     0.74648   0.68421   0.78000   0.00000  Uiso   1.00
H2489  H     0.76114   0.96994   0.74970   0.00000  Uiso   1.00
H2490  H     0.76257   0.97888   0.80128   0.00000  Uiso   1.00
O2491  O     0.85358   0.87171   0.59580   0.00000  Uiso   1.00
C2492  C     0.88644   0.89973   0.57404   0.00000  Uiso   1.00
H2493  H     0.87342   0.93010   0.57781   0.00000  Uiso   1.00
H2494  H     0.89649   0.89005   0.54149   0.00000  Uiso   1.00
C2495  C     0.92587   0.90662   0.58999   0.00000  Uiso   1.00
H2496  H     0.91677   0.92170   0.62108   0.00000  Uiso   1.00
H2497  H     0.93734   0.87612   0.58968   0.00000  Uiso   1.00
C2498  C     0.96250   0.93422   0.56480   0.00000  Uiso   1.00
H2499  H     0.97546   0.91731   0.53494   0.00000  Uiso   1.00
H2500  H     0.98881   0.94256   0.57932   0.00000  Uiso   1.00
H2501  H     0.95097   0.96341   0.56136   0.00000  Uiso   1.00
O2502  O     0.88988   0.73784   0.60487   0.00000  Uiso   1.00
C2503  C     0.86836   0.69711   0.59999   0.00000  Uiso   1.00
H2504  H     0.88691   0.67516   0.60739   0.00000  Uiso   1.00
H2505  H     0.86718   0.68640   0.56903   0.00000  Uiso   1.00
C2506  C     0.82269   0.69396   0.62834   0.00000  Uiso   1.00
H2507  H     0.82409   0.70555   0.65899   0.00000  Uiso   1.00
H2508  H     0.80275   0.71364   0.61971   0.00000  Uiso   1.00
C2509  C     0.80141   0.98230   0.62763   0.00000  Uiso   1.00
H2510  H     0.80072   0.96943   0.59703   0.00000  Uiso   1.00
H2511  H     0.76780   0.98131   0.64713   0.00000  Uiso   1.00
H2512  H     0.81932   0.96260   0.63864   0.00000  Uiso   1.00
C2513  C     0.89615   0.73027   0.95514   0.00000  Uiso   1.00
H2514  H     0.93153   0.73339   0.95000   0.00000  Uiso   1.00
H2515  H     0.88060   0.70279   0.97117   0.00000  Uiso   1.00
H2516  H     0.89023   0.72389   0.92551   0.00000  Uiso   1.00
O2517  O     0.74354   0.93384   0.98378   0.00000  Uiso   1.00
C2518  C     0.76139   0.97184   0.96757   0.00000  Uiso   1.00
H2519  H     0.74375   0.97677   0.94659   0.00000  Uiso   1.00
H2520  H     0.79651   0.97258   0.95158   0.00000  Uiso   1.00
C2521  C     0.75592   0.67464   0.50093   0.00000  Uiso   1.00
H2522  H     0.72174   0.67323   0.51927   0.00000  Uiso   1.00
H2523  H     0.77648   0.67200   0.52016   0.00000  Uiso   1.00
C2524  C     0.76909   0.71668   0.98444   0.00000  Uiso   1.00
H2525  H     0.80192   0.71746   0.96353   0.00000  Uiso   1.00
H2526  H     0.76913   0.74204   0.50912   0.00000  Uiso   1.00
H2527  H     0.74613   0.72208   0.96859   0.00000  Uiso   1.00
O2528  O     0.74615   0.90588   0.90416   0.00000  Uiso   1.00
C2529  C     0.70199   0.89073   0.91833   0.00000  Uiso   1.00
H2530  H     0.68303   0.91219   0.91073   0.00000  Uiso   1.00
H2531  H     0.69059   0.89114   0.95115   0.00000  Uiso   1.00
C2532  C     0.69216   0.84669   0.89840   0.00000  Uiso   1.00
H2533  H     0.70489   0.84618   0.86571   0.00000  Uiso   1.00
H2534  H     0.70823   0.82418   0.90810   0.00000  Uiso   1.00
C2535  C     0.97703   0.83307   0.90911   0.00000  Uiso   1.00
H2536  H     0.96302   0.83553   0.94176   0.00000  Uiso   1.00
H2537  H     0.97095   0.80011   0.89666   0.00000  Uiso   1.00
H2538  H     0.96071   0.85299   0.89668   0.00000  Uiso   1.00
loop_
_geom_bond_atom_site_label_1
_geom_bond_atom_site_label_2
_geom_bond_distance
_geom_bond_site_symmetry_2
_ccdc_geom_bond_type
C1     O37     1.258   .     A
C1     C19     1.431   .     S
C1     O35     1.264   .     A
C2     O131    1.388   .     S
C2     C26     1.408   .     A
C2     C28     1.416   .     A
C3     H29     1.077   .     S
C3     C4      1.405   .     A
C3     C26     1.394   .     A
C4     C6      1.428   .     A
C4     C5      1.427   .     A
C5     C28     1.424   .     A
C5     C1278   1.420   .     S
C6     C10     1.413   .     A
C6     C1276   1.409   .     S
C7     C8      1.406   .     A
C7     C14     1.423   .     A
C7     C1275   1.409   1_554 S
C8     C9      1.394   .     A
C8     H30     1.076   .     S
C9     C49     1.512   .     S
C9     C1274   1.420   1_554 S
C10    H31     1.077   .     S
C10    C11     1.400   .     A
C11    C116    1.513   .     S
C11    C1282   1.418   .     S
C12    O36     1.292   .     A
C12    O38     1.271   .     A
C12    C18     1.469   .     S
C13    C15     1.423   .     A
C13    C14     1.424   .     A
C13    C1280   1.418   1_554 S
C14    C17     1.421   .     A
C15    O53     1.387   .     S
C15    C16     1.412   .     A
C16    C27     1.400   .     A
C16    O105    1.389   .     S
C17    C27     1.395   .     A
C17    O94     1.390   .     S
C18    C160    1.359   .     S
C18    O205    1.392   .     S
C19    C300    1.359   1_455 S
C19    C357    1.516   1_455 S
C20    C23     1.456   .     S
C20    C444    1.352   .     S
C20    O502    1.387   .     S
C21    C22     1.433   .     S
C21    C866    1.352   1_545 S
C21    C936    1.520   1_545 S
C22    O33     1.284   .     A
C22    O39     1.265   .     A
C23    O40     1.273   .     A
C23    O34     1.261   .     A
C24    C27     1.459   .     S
C24    O41     1.276   .     A
C24    O43     1.277   .     A
C25    O44     1.292   .     A
C25    C26     1.482   .     S
C25    O42     1.285   .     A
C28    O120    1.388   .     S
O32    Zn45    1.967   .     S
O32    Zn48    1.924   .     S
O32    Zn47    1.935   .     S
O32    Zn46    1.938   .     S
O33    Zn45    1.930   .     S
O34    Zn48    1.938   .     S
O35    Zn46    1.932   .     S
O36    Zn47    1.946   .     S
O37    Zn48    1.939   .     S
O38    Zn45    1.930   .     S
O39    Zn46    1.945   .     S
O40    Zn47    1.933   .     S
O41    Zn46    1.918   .     S
O42    Zn48    1.930   .     S
O43    Zn47    1.919   .     S
O44    Zn45    1.909   .     S
C49    H51     1.106   .     S
C49    H50     1.111   .     S
C49    H52     1.108   .     S
O53    C54     1.421   .     S
C54    H56     1.115   .     S
C54    H55     1.111   .     S
C54    C1326   1.538   1_554 S
C57    H59     1.108   .     S
C57    H58     1.111   .     S
C57    C1323   1.538   .     S
C57    C1470   1.523   .     S
C60    H63     1.108   .     S
C60    H61     1.110   .     S
C60    C1608   1.523   1_454 S
C60    H1331   1.109   1_554 S
H62    C1329   1.109   .     S
O64    C65     1.418   .     S
O64    C300    1.392   1_455 S
C65    C68     1.529   .     S
C65    H66     1.112   .     S
C65    H349    1.118   1_455 S
H67    C206    1.118   .     S
C68    H69     1.111   .     S
C68    C71     1.526   .     S
C68    H70     1.111   .     S
C71    H73     1.110   .     S
C71    H74     1.109   .     S
C71    H72     1.107   .     S
C75    H76     1.111   .     S
C75    H77     1.111   .     S
C75    H78     1.110   .     S
C75    C160    1.516   .     S
O79    C80     1.410   .     S
O79    C866    1.387   1_545 S
C80    C83     1.528   .     S
C80    H81     1.113   .     S
C80    H928    1.115   1_545 S
H82    C503    1.115   .     S
C83    H84     1.112   .     S
C83    H85     1.112   .     S
C83    C86     1.523   .     S
C86    H87     1.107   .     S
C86    H89     1.110   .     S
C86    H229    1.109   .     S
H88    C368    1.109   1_455 S
C90    H92     1.111   .     S
C90    H93     1.110   .     S
C90    C444    1.520   .     S
C90    H514    1.112   .     S
H91    C936    1.112   1_545 S
O94    C95     1.419   .     S
C95    H96     1.110   .     S
C95    C98     1.531   .     S
C95    H97     1.114   .     S
C98    H100    1.112   .     S
C98    C101    1.527   .     S
C98    H99     1.111   .     S
C101   H102    1.111   .     S
C101   H103    1.110   .     S
C101   H104    1.111   .     S
O105   C106    1.418   .     S
C106   H107    1.110   .     S
C106   H108    1.113   .     S
C106   C109    1.532   .     S
C109   H111    1.112   .     S
C109   H110    1.110   .     S
C109   C958    1.526   1_545 S
C112   H114    1.110   .     S
C112   H113    1.110   .     S
C112   H115    1.111   .     S
C112   C532    1.526   .     S
C116   H117    1.107   .     S
C116   H119    1.111   .     S
C116   H118    1.111   .     S
O120   C121    1.417   .     S
C121   H122    1.111   .     S
C121   H123    1.118   .     S
C121   C1816   1.529   .     S
C124   H126    1.111   .     S
C124   H125    1.112   .     S
C124   C2236   1.529   1_544 S
C124   C1396   1.525   1_554 S
C127   H128    1.109   .     S
C127   H130    1.111   .     S
C127   C1393   1.525   .     S
C127   H1398   1.110   .     S
H129   C1396   1.110   1_554 S
O131   C132    1.418   .     S
C132   H133    1.111   .     S
C132   C135    1.534   .     S
C132   H134    1.113   .     S
C135   H136    1.111   .     S
C135   H137    1.111   .     S
C135   C420    1.528   1_455 S
C138   H140    1.110   .     S
C138   H141    1.111   .     S
C138   H139    1.110   .     S
C138   C276    1.528   .     S
C142   O178    1.258   .     A
C142   C160    1.431   .     S
C142   O176    1.264   .     A
C143   O272    1.388   .     S
C143   C167    1.408   .     A
C143   C169    1.416   .     A
C144   H170    1.077   .     S
C144   C145    1.405   .     A
C144   C167    1.394   .     A
C145   C147    1.428   .     A
C145   C146    1.427   .     A
C146   C169    1.424   .     A
C146   C1419   1.420   .     S
C147   C151    1.413   .     A
C147   C1417   1.409   .     S
C148   C149    1.406   .     A
C148   C155    1.423   .     A
C148   C1416   1.409   1_554 S
C149   C150    1.394   .     A
C149   H171    1.076   .     S
C150   C190    1.512   .     S
C150   C1415   1.420   1_554 S
C151   H172    1.077   .     S
C151   C152    1.400   .     A
C152   C257    1.513   .     S
C152   C1423   1.418   .     S
C153   O177    1.292   .     A
C153   O179    1.271   .     A
C153   C159    1.469   .     S
C154   C156    1.423   .     A
C154   C155    1.424   .     A
C154   C1421   1.418   1_554 S
C155   C158    1.421   .     A
C156   O194    1.387   .     S
C156   C157    1.412   .     A
C157   C168    1.400   .     A
C157   O246    1.389   .     S
C158   C168    1.395   .     A
C158   O235    1.390   .     S
C159   C301    1.359   .     S
C159   O346    1.392   .     S
C161   C164    1.456   .     S
C161   C585    1.352   .     S
C161   O643    1.387   .     S
C162   C163    1.433   .     S
C162   C1007   1.352   1_545 S
C162   C1077   1.520   1_545 S
C163   O174    1.284   .     A
C163   O180    1.265   .     A
C164   O181    1.273   .     A
C164   O175    1.261   .     A
C165   C168    1.459   .     S
C165   O182    1.276   .     A
C165   O184    1.277   .     A
C166   O185    1.292   .     A
C166   C167    1.482   .     S
C166   O183    1.285   .     A
C169   O261    1.388   .     S
O173   Zn186   1.967   .     S
O173   Zn189   1.924   .     S
O173   Zn188   1.935   .     S
O173   Zn187   1.938   .     S
O174   Zn186   1.930   .     S
O175   Zn189   1.938   .     S
O176   Zn187   1.932   .     S
O177   Zn188   1.946   .     S
O178   Zn189   1.939   .     S
O179   Zn186   1.930   .     S
O180   Zn187   1.945   .     S
O181   Zn188   1.933   .     S
O182   Zn187   1.918   .     S
O183   Zn189   1.930   .     S
O184   Zn188   1.919   .     S
O185   Zn186   1.909   .     S
C190   H192    1.106   .     S
C190   H191    1.111   .     S
C190   H193    1.108   .     S
O194   C195    1.421   .     S
C195   H197    1.115   .     S
C195   H196    1.111   .     S
C195   C1467   1.538   1_554 S
C198   H200    1.108   .     S
C198   H199    1.111   .     S
C198   C1464   1.538   .     S
C198   C1611   1.523   .     S
C201   H204    1.108   .     S
C201   H202    1.110   .     S
C201   C1326   1.523   1_554 S
C201   H1472   1.109   1_554 S
H203   C1470   1.109   .     S
O205   C206    1.418   .     S
C206   C209    1.529   .     S
C206   H207    1.112   .     S
H208   C347    1.118   .     S
C209   H210    1.111   .     S
C209   C212    1.526   .     S
C209   H211    1.111   .     S
C212   H214    1.110   .     S
C212   H215    1.109   .     S
C212   H213    1.107   .     S
C216   H217    1.111   .     S
C216   H218    1.111   .     S
C216   H219    1.110   .     S
C216   C301    1.516   .     S
O220   C221    1.410   .     S
O220   C1007   1.387   1_545 S
C221   C224    1.528   .     S
C221   H222    1.113   .     S
C221   H1069   1.115   1_545 S
H223   C644    1.115   .     S
C224   H225    1.112   .     S
C224   H226    1.112   .     S
C224   C227    1.523   .     S
C227   H228    1.107   .     S
C227   H230    1.110   .     S
C227   H370    1.109   .     S
C231   H233    1.111   .     S
C231   H234    1.110   .     S
C231   C585    1.520   .     S
C231   H655    1.112   .     S
H232   C1077   1.112   1_545 S
O235   C236    1.419   .     S
C236   H237    1.110   .     S
C236   C239    1.531   .     S
C236   H238    1.114   .     S
C239   H241    1.112   .     S
C239   C242    1.527   .     S
C239   H240    1.111   .     S
C242   H243    1.111   .     S
C242   H244    1.110   .     S
C242   H245    1.111   .     S
O246   C247    1.418   .     S
C247   H248    1.110   .     S
C247   H249    1.113   .     S
C247   C250    1.532   .     S
C250   H252    1.112   .     S
C250   H251    1.110   .     S
C250   C1099   1.526   1_545 S
C253   H255    1.110   .     S
C253   H254    1.110   .     S
C253   H256    1.111   .     S
C253   C673    1.526   .     S
C257   H258    1.107   .     S
C257   H260    1.111   .     S
C257   H259    1.111   .     S
O261   C262    1.417   .     S
C262   H263    1.111   .     S
C262   H264    1.118   .     S
C262   C1957   1.529   .     S
C265   H267    1.111   .     S
C265   H266    1.112   .     S
C265   C2377   1.529   1_544 S
C265   C1537   1.525   1_554 S
C268   H269    1.109   .     S
C268   H271    1.111   .     S
C268   C1534   1.525   .     S
C268   H1539   1.110   .     S
H270   C1537   1.110   1_554 S
O272   C273    1.418   .     S
C273   H274    1.111   .     S
C273   C276    1.534   .     S
C273   H275    1.113   .     S
C276   H277    1.111   .     S
C276   H278    1.111   .     S
C279   H281    1.110   .     S
C279   H282    1.111   .     S
C279   H280    1.110   .     S
C279   C417    1.528   .     S
C283   O319    1.258   .     A
C283   C301    1.431   .     S
C283   O317    1.264   .     A
C284   O413    1.388   .     S
C284   C308    1.408   .     A
C284   C310    1.416   .     A
C285   H311    1.077   .     S
C285   C286    1.405   .     A
C285   C308    1.394   .     A
C286   C288    1.428   .     A
C286   C287    1.427   .     A
C287   C310    1.424   .     A
C287   C1560   1.420   .     S
C288   C292    1.413   .     A
C288   C1558   1.409   .     S
C289   C290    1.406   .     A
C289   C296    1.423   .     A
C289   C1557   1.409   1_554 S
C290   C291    1.394   .     A
C290   H312    1.076   .     S
C291   C331    1.512   .     S
C291   C1556   1.420   1_554 S
C292   H313    1.077   .     S
C292   C293    1.400   .     A
C293   C398    1.513   .     S
C293   C1564   1.418   .     S
C294   O318    1.292   .     A
C294   O320    1.271   .     A
C294   C300    1.469   .     S
C295   C297    1.423   .     A
C295   C296    1.424   .     A
C295   C1562   1.418   1_554 S
C296   C299    1.421   .     A
C297   O335    1.387   .     S
C297   C298    1.412   .     A
C298   C309    1.400   .     A
C298   O387    1.389   .     S
C299   C309    1.395   .     A
C299   O376    1.390   .     S
C300   C19     1.359   1_655 S
C300   O64     1.392   1_655 S
C302   C305    1.456   .     S
C302   C726    1.352   .     S
C302   O784    1.387   .     S
C303   C304    1.433   .     S
C303   C1148   1.352   1_545 S
C303   C1218   1.520   1_545 S
C304   O315    1.284   .     A
C304   O321    1.265   .     A
C305   O322    1.273   .     A
C305   O316    1.261   .     A
C306   C309    1.459   .     S
C306   O323    1.276   .     A
C306   O325    1.277   .     A
C307   O326    1.292   .     A
C307   C308    1.482   .     S
C307   O324    1.285   .     A
C310   O402    1.388   .     S
O314   Zn327   1.967   .     S
O314   Zn330   1.924   .     S
O314   Zn329   1.935   .     S
O314   Zn328   1.938   .     S
O315   Zn327   1.930   .     S
O316   Zn330   1.938   .     S
O317   Zn328   1.932   .     S
O318   Zn329   1.946   .     S
O319   Zn330   1.939   .     S
O320   Zn327   1.930   .     S
O321   Zn328   1.945   .     S
O322   Zn329   1.933   .     S
O323   Zn328   1.918   .     S
O324   Zn330   1.930   .     S
O325   Zn329   1.919   .     S
O326   Zn327   1.909   .     S
C331   H333    1.106   .     S
C331   H332    1.111   .     S
C331   H334    1.108   .     S
O335   C336    1.421   .     S
C336   H338    1.115   .     S
C336   H337    1.111   .     S
C336   C1608   1.538   1_554 S
C339   H341    1.108   .     S
C339   H340    1.111   .     S
C339   C1605   1.538   .     S
C339   C1329   1.523   1_655 S
C342   H345    1.108   .     S
C342   H343    1.110   .     S
C342   C1467   1.523   1_554 S
C342   H1613   1.109   1_554 S
H344   C1611   1.109   .     S
O346   C347    1.418   .     S
C347   C350    1.529   .     S
C347   H348    1.112   .     S
H349   C65     1.118   1_655 S
C350   H351    1.111   .     S
C350   C353    1.526   .     S
C350   H352    1.111   .     S
C353   H355    1.110   .     S
C353   H356    1.109   .     S
C353   H354    1.107   .     S
C357   H358    1.111   .     S
C357   H359    1.111   .     S
C357   H360    1.110   .     S
C357   C19     1.516   1_655 S
O361   C362    1.410   .     S
O361   C1148   1.387   1_545 S
C362   C365    1.528   .     S
C362   H363    1.113   .     S
C362   H1210   1.115   1_545 S
H364   C785    1.115   .     S
C365   H366    1.112   .     S
C365   H367    1.112   .     S
C365   C368    1.523   .     S
C368   H369    1.107   .     S
C368   H371    1.110   .     S
C368   H88     1.109   1_655 S
C372   H374    1.111   .     S
C372   H375    1.110   .     S
C372   C726    1.520   .     S
C372   H796    1.112   .     S
H373   C1218   1.112   1_545 S
O376   C377    1.419   .     S
C377   H378    1.110   .     S
C377   C380    1.531   .     S
C377   H379    1.114   .     S
C380   H382    1.112   .     S
C380   C383    1.527   .     S
C380   H381    1.111   .     S
C383   H384    1.111   .     S
C383   H385    1.110   .     S
C383   H386    1.111   .     S
O387   C388    1.418   .     S
C388   H389    1.110   .     S
C388   H390    1.113   .     S
C388   C391    1.532   .     S
C391   H393    1.112   .     S
C391   H392    1.110   .     S
C391   C1240   1.526   1_545 S
C394   H396    1.110   .     S
C394   H395    1.110   .     S
C394   H397    1.111   .     S
C394   C814    1.526   .     S
C398   H399    1.107   .     S
C398   H401    1.111   .     S
C398   H400    1.111   .     S
O402   C403    1.417   .     S
C403   H404    1.111   .     S
C403   H405    1.118   .     S
C403   C2098   1.529   .     S
C406   H408    1.111   .     S
C406   H407    1.112   .     S
C406   C2518   1.529   1_544 S
C406   C1678   1.525   1_554 S
C409   H410    1.109   .     S
C409   H412    1.111   .     S
C409   C1675   1.525   .     S
C409   H1680   1.110   .     S
H411   C1678   1.110   1_554 S
O413   C414    1.418   .     S
C414   H415    1.111   .     S
C414   C417    1.534   .     S
C414   H416    1.113   .     S
C417   H418    1.111   .     S
C417   H419    1.111   .     S
C420   H422    1.110   .     S
C420   H423    1.111   .     S
C420   H421    1.110   .     S
C420   C135    1.528   1_655 S
C424   O460    1.258   .     A
C424   C442    1.431   .     S
C424   O458    1.264   .     A
C425   O554    1.388   .     S
C425   C449    1.408   .     A
C425   C451    1.416   .     A
C426   H452    1.077   .     S
C426   C427    1.405   .     A
C426   C449    1.394   .     A
C427   C429    1.428   .     A
C427   C428    1.427   .     A
C428   C451    1.424   .     A
C428   C1701   1.420   .     S
C429   C433    1.413   .     A
C429   C1699   1.409   .     S
C430   C431    1.406   .     A
C430   C437    1.423   .     A
C430   C1698   1.409   1_554 S
C431   C432    1.394   .     A
C431   H453    1.076   .     S
C432   C472    1.512   .     S
C432   C1697   1.420   1_554 S
C433   H454    1.077   .     S
C433   C434    1.400   .     A
C434   C539    1.513   .     S
C434   C1705   1.418   .     S
C435   O459    1.292   .     A
C435   O461    1.271   .     A
C435   C441    1.469   .     S
C436   C438    1.423   .     A
C436   C437    1.424   .     A
C436   C1703   1.418   1_554 S
C437   C440    1.421   .     A
C438   O476    1.387   .     S
C438   C439    1.412   .     A
C439   C450    1.400   .     A
C439   O528    1.389   .     S
C440   C450    1.395   .     A
C440   O517    1.390   .     S
C441   C583    1.359   .     S
C441   O628    1.392   .     S
C442   C723    1.359   1_455 S
C442   C780    1.516   1_455 S
C443   C446    1.456   .     S
C443   C867    1.352   .     S
C443   O925    1.387   .     S
C444   C445    1.433   .     S
C445   O456    1.284   .     A
C445   O462    1.265   .     A
C446   O463    1.273   .     A
C446   O457    1.261   .     A
C447   C450    1.459   .     S
C447   O464    1.276   .     A
C447   O466    1.277   .     A
C448   O467    1.292   .     A
C448   C449    1.482   .     S
C448   O465    1.285   .     A
C451   O543    1.388   .     S
O455   Zn468   1.967   .     S
O455   Zn471   1.924   .     S
O455   Zn470   1.935   .     S
O455   Zn469   1.938   .     S
O456   Zn468   1.930   .     S
O457   Zn471   1.938   .     S
O458   Zn469   1.932   .     S
O459   Zn470   1.946   .     S
O460   Zn471   1.939   .     S
O461   Zn468   1.930   .     S
O462   Zn469   1.945   .     S
O463   Zn470   1.933   .     S
O464   Zn469   1.918   .     S
O465   Zn471   1.930   .     S
O466   Zn470   1.919   .     S
O467   Zn468   1.909   .     S
C472   H474    1.106   .     S
C472   H473    1.111   .     S
C472   H475    1.108   .     S
O476   C477    1.421   .     S
C477   H479    1.115   .     S
C477   H478    1.111   .     S
C477   C1749   1.538   1_554 S
C480   H482    1.108   .     S
C480   H481    1.111   .     S
C480   C1746   1.538   .     S
C480   C1893   1.523   .     S
C483   H486    1.108   .     S
C483   H484    1.110   .     S
C483   C2031   1.523   1_454 S
C483   H1754   1.109   1_554 S
H485   C1752   1.109   .     S
O487   C488    1.418   .     S
O487   C723    1.392   1_455 S
C488   C491    1.529   .     S
C488   H489    1.112   .     S
C488   H772    1.118   1_455 S
H490   C629    1.118   .     S
C491   H492    1.111   .     S
C491   C494    1.526   .     S
C491   H493    1.111   .     S
C494   H496    1.110   .     S
C494   H497    1.109   .     S
C494   H495    1.107   .     S
C498   H499    1.111   .     S
C498   H500    1.111   .     S
C498   H501    1.110   .     S
C498   C583    1.516   .     S
O502   C503    1.410   .     S
C503   C506    1.528   .     S
C503   H504    1.113   .     S
H505   C926    1.115   .     S
C506   H507    1.112   .     S
C506   H508    1.112   .     S
C506   C509    1.523   .     S
C509   H510    1.107   .     S
C509   H512    1.110   .     S
C509   H652    1.109   .     S
H511   C791    1.109   1_455 S
C513   H515    1.111   .     S
C513   H516    1.110   .     S
C513   C867    1.520   .     S
C513   H937    1.112   .     S
O517   C518    1.419   .     S
C518   H519    1.110   .     S
C518   C521    1.531   .     S
C518   H520    1.114   .     S
C521   H523    1.112   .     S
C521   C524    1.527   .     S
C521   H522    1.111   .     S
C524   H525    1.111   .     S
C524   H526    1.110   .     S
C524   H527    1.111   .     S
O528   C529    1.418   .     S
C529   H530    1.110   .     S
C529   H531    1.113   .     S
C529   C532    1.532   .     S
C532   H534    1.112   .     S
C532   H533    1.110   .     S
C535   H537    1.110   .     S
C535   H536    1.110   .     S
C535   H538    1.111   .     S
C535   C955    1.526   .     S
C539   H540    1.107   .     S
C539   H542    1.111   .     S
C539   H541    1.111   .     S
O543   C544    1.417   .     S
C544   H545    1.111   .     S
C544   H546    1.118   .     S
C544   C2239   1.529   .     S
C547   H549    1.111   .     S
C547   H548    1.112   .     S
C547   C1390   1.529   1_554 S
C547   C1819   1.525   1_554 S
C550   H551    1.109   .     S
C550   H553    1.111   .     S
C550   C1816   1.525   .     S
C550   H1821   1.110   .     S
H552   C1819   1.110   1_554 S
O554   C555    1.418   .     S
C555   H556    1.111   .     S
C555   C558    1.534   .     S
C555   H557    1.113   .     S
C558   H559    1.111   .     S
C558   H560    1.111   .     S
C558   C843    1.528   1_455 S
C561   H563    1.110   .     S
C561   H564    1.111   .     S
C561   H562    1.110   .     S
C561   C699    1.528   .     S
C565   O601    1.258   .     A
C565   C583    1.431   .     S
C565   O599    1.264   .     A
C566   O695    1.388   .     S
C566   C590    1.408   .     A
C566   C592    1.416   .     A
C567   H593    1.077   .     S
C567   C568    1.405   .     A
C567   C590    1.394   .     A
C568   C570    1.428   .     A
C568   C569    1.427   .     A
C569   C592    1.424   .     A
C569   C1842   1.420   .     S
C570   C574    1.413   .     A
C570   C1840   1.409   .     S
C571   C572    1.406   .     A
C571   C578    1.423   .     A
C571   C1839   1.409   1_554 S
C572   C573    1.394   .     A
C572   H594    1.076   .     S
C573   C613    1.512   .     S
C573   C1838   1.420   1_554 S
C574   H595    1.077   .     S
C574   C575    1.400   .     A
C575   C680    1.513   .     S
C575   C1846   1.418   .     S
C576   O600    1.292   .     A
C576   O602    1.271   .     A
C576   C582    1.469   .     S
C577   C579    1.423   .     A
C577   C578    1.424   .     A
C577   C1844   1.418   1_554 S
C578   C581    1.421   .     A
C579   O617    1.387   .     S
C579   C580    1.412   .     A
C580   C591    1.400   .     A
C580   O669    1.389   .     S
C581   C591    1.395   .     A
C581   O658    1.390   .     S
C582   C724    1.359   .     S
C582   O769    1.392   .     S
C584   C587    1.456   .     S
C584   C1008   1.352   .     S
C584   O1066   1.387   .     S
C585   C586    1.433   .     S
C586   O597    1.284   .     A
C586   O603    1.265   .     A
C587   O604    1.273   .     A
C587   O598    1.261   .     A
C588   C591    1.459   .     S
C588   O605    1.276   .     A
C588   O607    1.277   .     A
C589   O608    1.292   .     A
C589   C590    1.482   .     S
C589   O606    1.285   .     A
C592   O684    1.388   .     S
O596   Zn609   1.967   .     S
O596   Zn612   1.924   .     S
O596   Zn611   1.935   .     S
O596   Zn610   1.938   .     S
O597   Zn609   1.930   .     S
O598   Zn612   1.938   .     S
O599   Zn610   1.932   .     S
O600   Zn611   1.946   .     S
O601   Zn612   1.939   .     S
O602   Zn609   1.930   .     S
O603   Zn610   1.945   .     S
O604   Zn611   1.933   .     S
O605   Zn610   1.918   .     S
O606   Zn612   1.930   .     S
O607   Zn611   1.919   .     S
O608   Zn609   1.909   .     S
C613   H615    1.106   .     S
C613   H614    1.111   .     S
C613   H616    1.108   .     S
O617   C618    1.421   .     S
C618   H620    1.115   .     S
C618   H619    1.111   .     S
C618   C1890   1.538   1_554 S
C621   H623    1.108   .     S
C621   H622    1.111   .     S
C621   C1887   1.538   .     S
C621   C2034   1.523   .     S
C624   H627    1.108   .     S
C624   H625    1.110   .     S
C624   C1749   1.523   1_554 S
C624   H1895   1.109   1_554 S
H626   C1893   1.109   .     S
O628   C629    1.418   .     S
C629   C632    1.529   .     S
C629   H630    1.112   .     S
H631   C770    1.118   .     S
C632   H633    1.111   .     S
C632   C635    1.526   .     S
C632   H634    1.111   .     S
C635   H637    1.110   .     S
C635   H638    1.109   .     S
C635   H636    1.107   .     S
C639   H640    1.111   .     S
C639   H641    1.111   .     S
C639   H642    1.110   .     S
C639   C724    1.516   .     S
O643   C644    1.410   .     S
C644   C647    1.528   .     S
C644   H645    1.113   .     S
H646   C1067   1.115   .     S
C647   H648    1.112   .     S
C647   H649    1.112   .     S
C647   C650    1.523   .     S
C650   H651    1.107   .     S
C650   H653    1.110   .     S
C650   H793    1.109   .     S
C654   H656    1.111   .     S
C654   H657    1.110   .     S
C654   C1008   1.520   .     S
C654   H1078   1.112   .     S
O658   C659    1.419   .     S
C659   H660    1.110   .     S
C659   C662    1.531   .     S
C659   H661    1.114   .     S
C662   H664    1.112   .     S
C662   C665    1.527   .     S
C662   H663    1.111   .     S
C665   H666    1.111   .     S
C665   H667    1.110   .     S
C665   H668    1.111   .     S
O669   C670    1.418   .     S
C670   H671    1.110   .     S
C670   H672    1.113   .     S
C670   C673    1.532   .     S
C673   H675    1.112   .     S
C673   H674    1.110   .     S
C676   H678    1.110   .     S
C676   H677    1.110   .     S
C676   H679    1.111   .     S
C676   C1096   1.526   .     S
C680   H681    1.107   .     S
C680   H683    1.111   .     S
C680   H682    1.111   .     S
O684   C685    1.417   .     S
C685   H686    1.111   .     S
C685   H687    1.118   .     S
C685   C2380   1.529   .     S
C688   H690    1.111   .     S
C688   H689    1.112   .     S
C688   C1531   1.529   1_554 S
C688   C1960   1.525   1_554 S
C691   H692    1.109   .     S
C691   H694    1.111   .     S
C691   C1957   1.525   .     S
C691   H1962   1.110   .     S
H693   C1960   1.110   1_554 S
O695   C696    1.418   .     S
C696   H697    1.111   .     S
C696   C699    1.534   .     S
C696   H698    1.113   .     S
C699   H700    1.111   .     S
C699   H701    1.111   .     S
C702   H704    1.110   .     S
C702   H705    1.111   .     S
C702   H703    1.110   .     S
C702   C840    1.528   .     S
C706   O742    1.258   .     A
C706   C724    1.431   .     S
C706   O740    1.264   .     A
C707   O836    1.388   .     S
C707   C731    1.408   .     A
C707   C733    1.416   .     A
C708   H734    1.077   .     S
C708   C709    1.405   .     A
C708   C731    1.394   .     A
C709   C711    1.428   .     A
C709   C710    1.427   .     A
C710   C733    1.424   .     A
C710   C1983   1.420   .     S
C711   C715    1.413   .     A
C711   C1981   1.409   .     S
C712   C713    1.406   .     A
C712   C719    1.423   .     A
C712   C1980   1.409   1_554 S
C713   C714    1.394   .     A
C713   H735    1.076   .     S
C714   C754    1.512   .     S
C714   C1979   1.420   1_554 S
C715   H736    1.077   .     S
C715   C716    1.400   .     A
C716   C821    1.513   .     S
C716   C1987   1.418   .     S
C717   O741    1.292   .     A
C717   O743    1.271   .     A
C717   C723    1.469   .     S
C718   C720    1.423   .     A
C718   C719    1.424   .     A
C718   C1985   1.418   1_554 S
C719   C722    1.421   .     A
C720   O758    1.387   .     S
C720   C721    1.412   .     A
C721   C732    1.400   .     A
C721   O810    1.389   .     S
C722   C732    1.395   .     A
C722   O799    1.390   .     S
C723   C442    1.359   1_655 S
C723   O487    1.392   1_655 S
C725   C728    1.456   .     S
C725   C1149   1.352   .     S
C725   O1207   1.387   .     S
C726   C727    1.433   .     S
C727   O738    1.284   .     A
C727   O744    1.265   .     A
C728   O745    1.273   .     A
C728   O739    1.261   .     A
C729   C732    1.459   .     S
C729   O746    1.276   .     A
C729   O748    1.277   .     A
C730   O749    1.292   .     A
C730   C731    1.482   .     S
C730   O747    1.285   .     A
C733   O825    1.388   .     S
O737   Zn750   1.967   .     S
O737   Zn753   1.924   .     S
O737   Zn752   1.935   .     S
O737   Zn751   1.938   .     S
O738   Zn750   1.930   .     S
O739   Zn753   1.938   .     S
O740   Zn751   1.932   .     S
O741   Zn752   1.946   .     S
O742   Zn753   1.939   .     S
O743   Zn750   1.930   .     S
O744   Zn751   1.945   .     S
O745   Zn752   1.933   .     S
O746   Zn751   1.918   .     S
O747   Zn753   1.930   .     S
O748   Zn752   1.919   .     S
O749   Zn750   1.909   .     S
C754   H756    1.106   .     S
C754   H755    1.111   .     S
C754   H757    1.108   .     S
O758   C759    1.421   .     S
C759   H761    1.115   .     S
C759   H760    1.111   .     S
C759   C2031   1.538   1_554 S
C762   H764    1.108   .     S
C762   H763    1.111   .     S
C762   C2028   1.538   .     S
C762   C1752   1.523   1_655 S
C765   H768    1.108   .     S
C765   H766    1.110   .     S
C765   C1890   1.523   1_554 S
C765   H2036   1.109   1_554 S
H767   C2034   1.109   .     S
O769   C770    1.418   .     S
C770   C773    1.529   .     S
C770   H771    1.112   .     S
H772   C488    1.118   1_655 S
C773   H774    1.111   .     S
C773   C776    1.526   .     S
C773   H775    1.111   .     S
C776   H778    1.110   .     S
C776   H779    1.109   .     S
C776   H777    1.107   .     S
C780   H781    1.111   .     S
C780   H782    1.111   .     S
C780   H783    1.110   .     S
C780   C442    1.516   1_655 S
O784   C785    1.410   .     S
C785   C788    1.528   .     S
C785   H786    1.113   .     S
H787   C1208   1.115   .     S
C788   H789    1.112   .     S
C788   H790    1.112   .     S
C788   C791    1.523   .     S
C791   H792    1.107   .     S
C791   H794    1.110   .     S
C791   H511    1.109   1_655 S
C795   H797    1.111   .     S
C795   H798    1.110   .     S
C795   C1149   1.520   .     S
C795   H1219   1.112   .     S
O799   C800    1.419   .     S
C800   H801    1.110   .     S
C800   C803    1.531   .     S
C800   H802    1.114   .     S
C803   H805    1.112   .     S
C803   C806    1.527   .     S
C803   H804    1.111   .     S
C806   H807    1.111   .     S
C806   H808    1.110   .     S
C806   H809    1.111   .     S
O810   C811    1.418   .     S
C811   H812    1.110   .     S
C811   H813    1.113   .     S
C811   C814    1.532   .     S
C814   H816    1.112   .     S
C814   H815    1.110   .     S
C817   H819    1.110   .     S
C817   H818    1.110   .     S
C817   H820    1.111   .     S
C817   C1237   1.526   .     S
C821   H822    1.107   .     S
C821   H824    1.111   .     S
C821   H823    1.111   .     S
O825   C826    1.417   .     S
C826   H827    1.111   .     S
C826   H828    1.118   .     S
C826   C2521   1.529   .     S
C829   H831    1.111   .     S
C829   H830    1.112   .     S
C829   C1672   1.529   1_554 S
C829   C2101   1.525   1_554 S
C832   H833    1.109   .     S
C832   H835    1.111   .     S
C832   C2098   1.525   .     S
C832   H2103   1.110   .     S
H834   C2101   1.110   1_554 S
O836   C837    1.418   .     S
C837   H838    1.111   .     S
C837   C840    1.534   .     S
C837   H839    1.113   .     S
C840   H841    1.111   .     S
C840   H842    1.111   .     S
C843   H845    1.110   .     S
C843   H846    1.111   .     S
C843   H844    1.110   .     S
C843   C558    1.528   1_655 S
C847   O883    1.258   .     A
C847   C865    1.431   .     S
C847   O881    1.264   .     A
C848   O977    1.388   .     S
C848   C872    1.408   .     A
C848   C874    1.416   .     A
C849   H875    1.077   .     S
C849   C850    1.405   .     A
C849   C872    1.394   .     A
C850   C852    1.428   .     A
C850   C851    1.427   .     A
C851   C874    1.424   .     A
C851   C2124   1.420   .     S
C852   C856    1.413   .     A
C852   C2122   1.409   .     S
C853   C854    1.406   .     A
C853   C860    1.423   .     A
C853   C2121   1.409   1_554 S
C854   C855    1.394   .     A
C854   H876    1.076   .     S
C855   C895    1.512   .     S
C855   C2120   1.420   1_554 S
C856   H877    1.077   .     S
C856   C857    1.400   .     A
C857   C962    1.513   .     S
C857   C2128   1.418   .     S
C858   O882    1.292   .     A
C858   O884    1.271   .     A
C858   C864    1.469   .     S
C859   C861    1.423   .     A
C859   C860    1.424   .     A
C859   C2126   1.418   1_554 S
C860   C863    1.421   .     A
C861   O899    1.387   .     S
C861   C862    1.412   .     A
C862   C873    1.400   .     A
C862   O951    1.389   .     S
C863   C873    1.395   .     A
C863   O940    1.390   .     S
C864   C1006   1.359   .     S
C864   O1051   1.392   .     S
C865   C1146   1.359   1_455 S
C865   C1203   1.516   1_455 S
C866   C869    1.456   .     S
C866   C21     1.352   1_565 S
C866   O79     1.387   1_565 S
C867   C868    1.433   .     S
C868   O879    1.284   .     A
C868   O885    1.265   .     A
C869   O886    1.273   .     A
C869   O880    1.261   .     A
C870   C873    1.459   .     S
C870   O887    1.276   .     A
C870   O889    1.277   .     A
C871   O890    1.292   .     A
C871   C872    1.482   .     S
C871   O888    1.285   .     A
C874   O966    1.388   .     S
O878   Zn891   1.967   .     S
O878   Zn894   1.924   .     S
O878   Zn893   1.935   .     S
O878   Zn892   1.938   .     S
O879   Zn891   1.930   .     S
O880   Zn894   1.938   .     S
O881   Zn892   1.932   .     S
O882   Zn893   1.946   .     S
O883   Zn894   1.939   .     S
O884   Zn891   1.930   .     S
O885   Zn892   1.945   .     S
O886   Zn893   1.933   .     S
O887   Zn892   1.918   .     S
O888   Zn894   1.930   .     S
O889   Zn893   1.919   .     S
O890   Zn891   1.909   .     S
C895   H897    1.106   .     S
C895   H896    1.111   .     S
C895   H898    1.108   .     S
O899   C900    1.421   .     S
C900   H902    1.115   .     S
C900   H901    1.111   .     S
C900   C2172   1.538   1_554 S
C903   H905    1.108   .     S
C903   H904    1.111   .     S
C903   C2169   1.538   .     S
C903   C2316   1.523   .     S
C906   H909    1.108   .     S
C906   H907    1.110   .     S
C906   C2454   1.523   1_454 S
C906   H2177   1.109   1_554 S
H908   C2175   1.109   .     S
O910   C911    1.418   .     S
O910   C1146   1.392   1_455 S
C911   C914    1.529   .     S
C911   H912    1.112   .     S
C911   H1195   1.118   1_455 S
H913   C1052   1.118   .     S
C914   H915    1.111   .     S
C914   C917    1.526   .     S
C914   H916    1.111   .     S
C917   H919    1.110   .     S
C917   H920    1.109   .     S
C917   H918    1.107   .     S
C921   H922    1.111   .     S
C921   H923    1.111   .     S
C921   H924    1.110   .     S
C921   C1006   1.516   .     S
O925   C926    1.410   .     S
C926   C929    1.528   .     S
C926   H927    1.113   .     S
H928   C80     1.115   1_565 S
C929   H930    1.112   .     S
C929   H931    1.112   .     S
C929   C932    1.523   .     S
C932   H933    1.107   .     S
C932   H935    1.110   .     S
C932   H1075   1.109   .     S
H934   C1214   1.109   1_455 S
C936   H938    1.111   .     S
C936   H939    1.110   .     S
C936   C21     1.520   1_565 S
C936   H91     1.112   1_565 S
O940   C941    1.419   .     S
C941   H942    1.110   .     S
C941   C944    1.531   .     S
C941   H943    1.114   .     S
C944   H946    1.112   .     S
C944   C947    1.527   .     S
C944   H945    1.111   .     S
C947   H948    1.111   .     S
C947   H949    1.110   .     S
C947   H950    1.111   .     S
O951   C952    1.418   .     S
C952   H953    1.110   .     S
C952   H954    1.113   .     S
C952   C955    1.532   .     S
C955   H957    1.112   .     S
C955   H956    1.110   .     S
C958   H960    1.110   .     S
C958   H959    1.110   .     S
C958   H961    1.111   .     S
C958   C109    1.526   1_565 S
C962   H963    1.107   .     S
C962   H965    1.111   .     S
C962   H964    1.111   .     S
O966   C967    1.417   .     S
C967   H968    1.111   .     S
C967   H969    1.118   .     S
C967   C1393   1.529   1_565 S
C970   H972    1.111   .     S
C970   H971    1.112   .     S
C970   C1813   1.529   1_554 S
C970   C2242   1.525   1_554 S
C973   H974    1.109   .     S
C973   H976    1.111   .     S
C973   C2239   1.525   .     S
C973   H2244   1.110   .     S
H975   C2242   1.110   1_554 S
O977   C978    1.418   .     S
C978   H979    1.111   .     S
C978   C981    1.534   .     S
C978   H980    1.113   .     S
C981   H982    1.111   .     S
C981   H983    1.111   .     S
C981   C1266   1.528   1_455 S
C984   H986    1.110   .     S
C984   H987    1.111   .     S
C984   H985    1.110   .     S
C984   C1122   1.528   .     S
C988   O1024   1.258   .     A
C988   C1006   1.431   .     S
C988   O1022   1.264   .     A
C989   O1118   1.388   .     S
C989   C1013   1.408   .     A
C989   C1015   1.416   .     A
C990   H1016   1.077   .     S
C990   C991    1.405   .     A
C990   C1013   1.394   .     A
C991   C993    1.428   .     A
C991   C992    1.427   .     A
C992   C1015   1.424   .     A
C992   C2265   1.420   .     S
C993   C997    1.413   .     A
C993   C2263   1.409   .     S
C994   C995    1.406   .     A
C994   C1001   1.423   .     A
C994   C2262   1.409   1_554 S
C995   C996    1.394   .     A
C995   H1017   1.076   .     S
C996   C1036   1.512   .     S
C996   C2261   1.420   1_554 S
C997   H1018   1.077   .     S
C997   C998    1.400   .     A
C998   C1103   1.513   .     S
C998   C2269   1.418   .     S
C999   O1023   1.292   .     A
C999   O1025   1.271   .     A
C999   C1005   1.469   .     S
C1000  C1002   1.423   .     A
C1000  C1001   1.424   .     A
C1000  C2267   1.418   1_554 S
C1001  C1004   1.421   .     A
C1002  O1040   1.387   .     S
C1002  C1003   1.412   .     A
C1003  C1014   1.400   .     A
C1003  O1092   1.389   .     S
C1004  C1014   1.395   .     A
C1004  O1081   1.390   .     S
C1005  C1147   1.359   .     S
C1005  O1192   1.392   .     S
C1007  C1010   1.456   .     S
C1007  C162    1.352   1_565 S
C1007  O220    1.387   1_565 S
C1008  C1009   1.433   .     S
C1009  O1020   1.284   .     A
C1009  O1026   1.265   .     A
C1010  O1027   1.273   .     A
C1010  O1021   1.261   .     A
C1011  C1014   1.459   .     S
C1011  O1028   1.276   .     A
C1011  O1030   1.277   .     A
C1012  O1031   1.292   .     A
C1012  C1013   1.482   .     S
C1012  O1029   1.285   .     A
C1015  O1107   1.388   .     S
O1019  Zn1032  1.967   .     S
O1019  Zn1035  1.924   .     S
O1019  Zn1034  1.935   .     S
O1019  Zn1033  1.938   .     S
O1020  Zn1032  1.930   .     S
O1021  Zn1035  1.938   .     S
O1022  Zn1033  1.932   .     S
O1023  Zn1034  1.946   .     S
O1024  Zn1035  1.939   .     S
O1025  Zn1032  1.930   .     S
O1026  Zn1033  1.945   .     S
O1027  Zn1034  1.933   .     S
O1028  Zn1033  1.918   .     S
O1029  Zn1035  1.930   .     S
O1030  Zn1034  1.919   .     S
O1031  Zn1032  1.909   .     S
C1036  H1038   1.106   .     S
C1036  H1037   1.111   .     S
C1036  H1039   1.108   .     S
O1040  C1041   1.421   .     S
C1041  H1043   1.115   .     S
C1041  H1042   1.111   .     S
C1041  C2313   1.538   1_554 S
C1044  H1046   1.108   .     S
C1044  H1045   1.111   .     S
C1044  C2310   1.538   .     S
C1044  C2457   1.523   .     S
C1047  H1050   1.108   .     S
C1047  H1048   1.110   .     S
C1047  C2172   1.523   1_554 S
C1047  H2318   1.109   1_554 S
H1049  C2316   1.109   .     S
O1051  C1052   1.418   .     S
C1052  C1055   1.529   .     S
C1052  H1053   1.112   .     S
H1054  C1193   1.118   .     S
C1055  H1056   1.111   .     S
C1055  C1058   1.526   .     S
C1055  H1057   1.111   .     S
C1058  H1060   1.110   .     S
C1058  H1061   1.109   .     S
C1058  H1059   1.107   .     S
C1062  H1063   1.111   .     S
C1062  H1064   1.111   .     S
C1062  H1065   1.110   .     S
C1062  C1147   1.516   .     S
O1066  C1067   1.410   .     S
C1067  C1070   1.528   .     S
C1067  H1068   1.113   .     S
H1069  C221    1.115   1_565 S
C1070  H1071   1.112   .     S
C1070  H1072   1.112   .     S
C1070  C1073   1.523   .     S
C1073  H1074   1.107   .     S
C1073  H1076   1.110   .     S
C1073  H1216   1.109   .     S
C1077  H1079   1.111   .     S
C1077  H1080   1.110   .     S
C1077  C162    1.520   1_565 S
C1077  H232    1.112   1_565 S
O1081  C1082   1.419   .     S
C1082  H1083   1.110   .     S
C1082  C1085   1.531   .     S
C1082  H1084   1.114   .     S
C1085  H1087   1.112   .     S
C1085  C1088   1.527   .     S
C1085  H1086   1.111   .     S
C1088  H1089   1.111   .     S
C1088  H1090   1.110   .     S
C1088  H1091   1.111   .     S
O1092  C1093   1.418   .     S
C1093  H1094   1.110   .     S
C1093  H1095   1.113   .     S
C1093  C1096   1.532   .     S
C1096  H1098   1.112   .     S
C1096  H1097   1.110   .     S
C1099  H1101   1.110   .     S
C1099  H1100   1.110   .     S
C1099  H1102   1.111   .     S
C1099  C250    1.526   1_565 S
C1103  H1104   1.107   .     S
C1103  H1106   1.111   .     S
C1103  H1105   1.111   .     S
O1107  C1108   1.417   .     S
C1108  H1109   1.111   .     S
C1108  H1110   1.118   .     S
C1108  C1534   1.529   1_565 S
C1111  H1113   1.111   .     S
C1111  H1112   1.112   .     S
C1111  C1954   1.529   1_554 S
C1111  C2383   1.525   1_554 S
C1114  H1115   1.109   .     S
C1114  H1117   1.111   .     S
C1114  C2380   1.525   .     S
C1114  H2385   1.110   .     S
H1116  C2383   1.110   1_554 S
O1118  C1119   1.418   .     S
C1119  H1120   1.111   .     S
C1119  C1122   1.534   .     S
C1119  H1121   1.113   .     S
C1122  H1123   1.111   .     S
C1122  H1124   1.111   .     S
C1125  H1127   1.110   .     S
C1125  H1128   1.111   .     S
C1125  H1126   1.110   .     S
C1125  C1263   1.528   .     S
C1129  O1165   1.258   .     A
C1129  C1147   1.431   .     S
C1129  O1163   1.264   .     A
C1130  O1259   1.388   .     S
C1130  C1154   1.408   .     A
C1130  C1156   1.416   .     A
C1131  H1157   1.077   .     S
C1131  C1132   1.405   .     A
C1131  C1154   1.394   .     A
C1132  C1134   1.428   .     A
C1132  C1133   1.427   .     A
C1133  C1156   1.424   .     A
C1133  C2406   1.420   .     S
C1134  C1138   1.413   .     A
C1134  C2404   1.409   .     S
C1135  C1136   1.406   .     A
C1135  C1142   1.423   .     A
C1135  C2403   1.409   1_554 S
C1136  C1137   1.394   .     A
C1136  H1158   1.076   .     S
C1137  C1177   1.512   .     S
C1137  C2402   1.420   1_554 S
C1138  H1159   1.077   .     S
C1138  C1139   1.400   .     A
C1139  C1244   1.513   .     S
C1139  C2410   1.418   .     S
C1140  O1164   1.292   .     A
C1140  O1166   1.271   .     A
C1140  C1146   1.469   .     S
C1141  C1143   1.423   .     A
C1141  C1142   1.424   .     A
C1141  C2408   1.418   1_554 S
C1142  C1145   1.421   .     A
C1143  O1181   1.387   .     S
C1143  C1144   1.412   .     A
C1144  C1155   1.400   .     A
C1144  O1233   1.389   .     S
C1145  C1155   1.395   .     A
C1145  O1222   1.390   .     S
C1146  C865    1.359   1_655 S
C1146  O910    1.392   1_655 S
C1148  C1151   1.456   .     S
C1148  C303    1.352   1_565 S
C1148  O361    1.387   1_565 S
C1149  C1150   1.433   .     S
C1150  O1161   1.284   .     A
C1150  O1167   1.265   .     A
C1151  O1168   1.273   .     A
C1151  O1162   1.261   .     A
C1152  C1155   1.459   .     S
C1152  O1169   1.276   .     A
C1152  O1171   1.277   .     A
C1153  O1172   1.292   .     A
C1153  C1154   1.482   .     S
C1153  O1170   1.285   .     A
C1156  O1248   1.388   .     S
O1160  Zn1173  1.967   .     S
O1160  Zn1176  1.924   .     S
O1160  Zn1175  1.935   .     S
O1160  Zn1174  1.938   .     S
O1161  Zn1173  1.930   .     S
O1162  Zn1176  1.938   .     S
O1163  Zn1174  1.932   .     S
O1164  Zn1175  1.946   .     S
O1165  Zn1176  1.939   .     S
O1166  Zn1173  1.930   .     S
O1167  Zn1174  1.945   .     S
O1168  Zn1175  1.933   .     S
O1169  Zn1174  1.918   .     S
O1170  Zn1176  1.930   .     S
O1171  Zn1175  1.919   .     S
O1172  Zn1173  1.909   .     S
C1177  H1179   1.106   .     S
C1177  H1178   1.111   .     S
C1177  H1180   1.108   .     S
O1181  C1182   1.421   .     S
C1182  H1184   1.115   .     S
C1182  H1183   1.111   .     S
C1182  C2454   1.538   1_554 S
C1185  H1187   1.108   .     S
C1185  H1186   1.111   .     S
C1185  C2451   1.538   .     S
C1185  C2175   1.523   1_655 S
C1188  H1191   1.108   .     S
C1188  H1189   1.110   .     S
C1188  C2313   1.523   1_554 S
C1188  H2459   1.109   1_554 S
H1190  C2457   1.109   .     S
O1192  C1193   1.418   .     S
C1193  C1196   1.529   .     S
C1193  H1194   1.112   .     S
H1195  C911    1.118   1_655 S
C1196  H1197   1.111   .     S
C1196  C1199   1.526   .     S
C1196  H1198   1.111   .     S
C1199  H1201   1.110   .     S
C1199  H1202   1.109   .     S
C1199  H1200   1.107   .     S
C1203  H1204   1.111   .     S
C1203  H1205   1.111   .     S
C1203  H1206   1.110   .     S
C1203  C865    1.516   1_655 S
O1207  C1208   1.410   .     S
C1208  C1211   1.528   .     S
C1208  H1209   1.113   .     S
H1210  C362    1.115   1_565 S
C1211  H1212   1.112   .     S
C1211  H1213   1.112   .     S
C1211  C1214   1.523   .     S
C1214  H1215   1.107   .     S
C1214  H1217   1.110   .     S
C1214  H934    1.109   1_655 S
C1218  H1220   1.111   .     S
C1218  H1221   1.110   .     S
C1218  C303    1.520   1_565 S
C1218  H373    1.112   1_565 S
O1222  C1223   1.419   .     S
C1223  H1224   1.110   .     S
C1223  C1226   1.531   .     S
C1223  H1225   1.114   .     S
C1226  H1228   1.112   .     S
C1226  C1229   1.527   .     S
C1226  H1227   1.111   .     S
C1229  H1230   1.111   .     S
C1229  H1231   1.110   .     S
C1229  H1232   1.111   .     S
O1233  C1234   1.418   .     S
C1234  H1235   1.110   .     S
C1234  H1236   1.113   .     S
C1234  C1237   1.532   .     S
C1237  H1239   1.112   .     S
C1237  H1238   1.110   .     S
C1240  H1242   1.110   .     S
C1240  H1241   1.110   .     S
C1240  H1243   1.111   .     S
C1240  C391    1.526   1_565 S
C1244  H1245   1.107   .     S
C1244  H1247   1.111   .     S
C1244  H1246   1.111   .     S
O1248  C1249   1.417   .     S
C1249  H1250   1.111   .     S
C1249  H1251   1.118   .     S
C1249  C1675   1.529   1_565 S
C1252  H1254   1.111   .     S
C1252  H1253   1.112   .     S
C1252  C2095   1.529   1_554 S
C1252  C2524   1.525   1_554 S
C1255  H1256   1.109   .     S
C1255  H1258   1.111   .     S
C1255  C2521   1.525   .     S
C1255  H2526   1.110   .     S
H1257  C2524   1.110   1_554 S
O1259  C1260   1.418   .     S
C1260  H1261   1.111   .     S
C1260  C1263   1.534   .     S
C1260  H1262   1.113   .     S
C1263  H1264   1.111   .     S
C1263  H1265   1.111   .     S
C1266  H1268   1.110   .     S
C1266  H1269   1.111   .     S
C1266  H1267   1.110   .     S
C1266  C981    1.528   1_655 S
C1270  O1306   1.258   .     A
C1270  C1288   1.431   .     S
C1270  O1304   1.264   .     A
C1271  O1400   1.388   .     S
C1271  C1295   1.408   .     A
C1271  C1297   1.416   .     A
C1272  H1298   1.077   .     S
C1272  C1273   1.405   .     A
C1272  C1295   1.394   .     A
C1273  C1275   1.428   .     A
C1273  C1274   1.427   .     A
C1274  C1297   1.424   .     A
C1274  C9      1.420   1_556 S
C1275  C1279   1.413   .     A
C1275  C7      1.409   1_556 S
C1276  C1277   1.406   .     A
C1276  C1283   1.423   .     A
C1277  C1278   1.394   .     A
C1277  H1299   1.076   .     S
C1278  C1318   1.512   .     S
C1279  H1300   1.077   .     S
C1279  C1280   1.400   .     A
C1280  C1385   1.513   .     S
C1280  C13     1.418   1_556 S
C1281  O1305   1.292   .     A
C1281  O1307   1.271   .     A
C1281  C1287   1.469   .     S
C1282  C1284   1.423   .     A
C1282  C1283   1.424   .     A
C1283  C1286   1.421   .     A
C1284  O1322   1.387   .     S
C1284  C1285   1.412   .     A
C1285  C1296   1.400   .     A
C1285  O1374   1.389   .     S
C1286  C1296   1.395   .     A
C1286  O1363   1.390   .     S
C1287  C1429   1.359   .     S
C1287  O1474   1.392   .     S
C1288  C1569   1.359   1_455 S
C1288  C1626   1.516   1_455 S
C1289  C1292   1.456   .     S
C1289  C1713   1.352   .     S
C1289  O1771   1.387   .     S
C1290  C1291   1.433   .     S
C1290  C2135   1.352   1_545 S
C1290  C2205   1.520   1_545 S
C1291  O1302   1.284   .     A
C1291  O1308   1.265   .     A
C1292  O1309   1.273   .     A
C1292  O1303   1.261   .     A
C1293  C1296   1.459   .     S
C1293  O1310   1.276   .     A
C1293  O1312   1.277   .     A
C1294  O1313   1.292   .     A
C1294  C1295   1.482   .     S
C1294  O1311   1.285   .     A
C1297  O1389   1.388   .     S
O1301  Zn1314  1.967   .     S
O1301  Zn1317  1.924   .     S
O1301  Zn1316  1.935   .     S
O1301  Zn1315  1.938   .     S
O1302  Zn1314  1.930   .     S
O1303  Zn1317  1.938   .     S
O1304  Zn1315  1.932   .     S
O1305  Zn1316  1.946   .     S
O1306  Zn1317  1.939   .     S
O1307  Zn1314  1.930   .     S
O1308  Zn1315  1.945   .     S
O1309  Zn1316  1.933   .     S
O1310  Zn1315  1.918   .     S
O1311  Zn1317  1.930   .     S
O1312  Zn1316  1.919   .     S
O1313  Zn1314  1.909   .     S
C1318  H1320   1.106   .     S
C1318  H1319   1.111   .     S
C1318  H1321   1.108   .     S
O1322  C1323   1.421   .     S
C1323  H1325   1.115   .     S
C1323  H1324   1.111   .     S
C1326  H1328   1.108   .     S
C1326  H1327   1.111   .     S
C1326  C54     1.538   1_556 S
C1326  C201    1.523   1_556 S
C1329  H1332   1.108   .     S
C1329  H1330   1.110   .     S
C1329  C339    1.523   1_455 S
H1331  C60     1.109   1_556 S
O1333  C1334   1.418   .     S
O1333  C1569   1.392   1_455 S
C1334  C1337   1.529   .     S
C1334  H1335   1.112   .     S
C1334  H1618   1.118   1_455 S
H1336  C1475   1.118   .     S
C1337  H1338   1.111   .     S
C1337  C1340   1.526   .     S
C1337  H1339   1.111   .     S
C1340  H1342   1.110   .     S
C1340  H1343   1.109   .     S
C1340  H1341   1.107   .     S
C1344  H1345   1.111   .     S
C1344  H1346   1.111   .     S
C1344  H1347   1.110   .     S
C1344  C1429   1.516   .     S
O1348  C1349   1.410   .     S
O1348  C2135   1.387   1_545 S
C1349  C1352   1.528   .     S
C1349  H1350   1.113   .     S
C1349  H2197   1.115   1_545 S
H1351  C1772   1.115   .     S
C1352  H1353   1.112   .     S
C1352  H1354   1.112   .     S
C1352  C1355   1.523   .     S
C1355  H1356   1.107   .     S
C1355  H1358   1.110   .     S
C1355  H1498   1.109   .     S
H1357  C1637   1.109   1_455 S
C1359  H1361   1.111   .     S
C1359  H1362   1.110   .     S
C1359  C1713   1.520   .     S
C1359  H1783   1.112   .     S
H1360  C2205   1.112   1_545 S
O1363  C1364   1.419   .     S
C1364  H1365   1.110   .     S
C1364  C1367   1.531   .     S
C1364  H1366   1.114   .     S
C1367  H1369   1.112   .     S
C1367  C1370   1.527   .     S
C1367  H1368   1.111   .     S
C1370  H1371   1.111   .     S
C1370  H1372   1.110   .     S
C1370  H1373   1.111   .     S
O1374  C1375   1.418   .     S
C1375  H1376   1.110   .     S
C1375  H1377   1.113   .     S
C1375  C1378   1.532   .     S
C1378  H1380   1.112   .     S
C1378  H1379   1.110   .     S
C1378  C2227   1.526   1_545 S
C1381  H1383   1.110   .     S
C1381  H1382   1.110   .     S
C1381  H1384   1.111   .     S
C1381  C1801   1.526   .     S
C1385  H1386   1.107   .     S
C1385  H1388   1.111   .     S
C1385  H1387   1.111   .     S
O1389  C1390   1.417   .     S
C1390  H1391   1.111   .     S
C1390  H1392   1.118   .     S
C1390  C547    1.529   1_556 S
C1393  H1395   1.111   .     S
C1393  H1394   1.112   .     S
C1393  C967    1.529   1_545 S
C1396  H1397   1.109   .     S
C1396  H1399   1.111   .     S
C1396  C124    1.525   1_556 S
C1396  H129    1.110   1_556 S
O1400  C1401   1.418   .     S
C1401  H1402   1.111   .     S
C1401  C1404   1.534   .     S
C1401  H1403   1.113   .     S
C1404  H1405   1.111   .     S
C1404  H1406   1.111   .     S
C1404  C1689   1.528   1_455 S
C1407  H1409   1.110   .     S
C1407  H1410   1.111   .     S
C1407  H1408   1.110   .     S
C1407  C1545   1.528   .     S
C1411  O1447   1.258   .     A
C1411  C1429   1.431   .     S
C1411  O1445   1.264   .     A
C1412  O1541   1.388   .     S
C1412  C1436   1.408   .     A
C1412  C1438   1.416   .     A
C1413  H1439   1.077   .     S
C1413  C1414   1.405   .     A
C1413  C1436   1.394   .     A
C1414  C1416   1.428   .     A
C1414  C1415   1.427   .     A
C1415  C1438   1.424   .     A
C1415  C150    1.420   1_556 S
C1416  C1420   1.413   .     A
C1416  C148    1.409   1_556 S
C1417  C1418   1.406   .     A
C1417  C1424   1.423   .     A
C1418  C1419   1.394   .     A
C1418  H1440   1.076   .     S
C1419  C1459   1.512   .     S
C1420  H1441   1.077   .     S
C1420  C1421   1.400   .     A
C1421  C1526   1.513   .     S
C1421  C154    1.418   1_556 S
C1422  O1446   1.292   .     A
C1422  O1448   1.271   .     A
C1422  C1428   1.469   .     S
C1423  C1425   1.423   .     A
C1423  C1424   1.424   .     A
C1424  C1427   1.421   .     A
C1425  O1463   1.387   .     S
C1425  C1426   1.412   .     A
C1426  C1437   1.400   .     A
C1426  O1515   1.389   .     S
C1427  C1437   1.395   .     A
C1427  O1504   1.390   .     S
C1428  C1570   1.359   .     S
C1428  O1615   1.392   .     S
C1430  C1433   1.456   .     S
C1430  C1854   1.352   .     S
C1430  O1912   1.387   .     S
C1431  C1432   1.433   .     S
C1431  C2276   1.352   1_545 S
C1431  C2346   1.520   1_545 S
C1432  O1443   1.284   .     A
C1432  O1449   1.265   .     A
C1433  O1450   1.273   .     A
C1433  O1444   1.261   .     A
C1434  C1437   1.459   .     S
C1434  O1451   1.276   .     A
C1434  O1453   1.277   .     A
C1435  O1454   1.292   .     A
C1435  C1436   1.482   .     S
C1435  O1452   1.285   .     A
C1438  O1530   1.388   .     S
O1442  Zn1455  1.967   .     S
O1442  Zn1458  1.924   .     S
O1442  Zn1457  1.935   .     S
O1442  Zn1456  1.938   .     S
O1443  Zn1455  1.930   .     S
O1444  Zn1458  1.938   .     S
O1445  Zn1456  1.932   .     S
O1446  Zn1457  1.946   .     S
O1447  Zn1458  1.939   .     S
O1448  Zn1455  1.930   .     S
O1449  Zn1456  1.945   .     S
O1450  Zn1457  1.933   .     S
O1451  Zn1456  1.918   .     S
O1452  Zn1458  1.930   .     S
O1453  Zn1457  1.919   .     S
O1454  Zn1455  1.909   .     S
C1459  H1461   1.106   .     S
C1459  H1460   1.111   .     S
C1459  H1462   1.108   .     S
O1463  C1464   1.421   .     S
C1464  H1466   1.115   .     S
C1464  H1465   1.111   .     S
C1467  H1469   1.108   .     S
C1467  H1468   1.111   .     S
C1467  C195    1.538   1_556 S
C1467  C342    1.523   1_556 S
C1470  H1473   1.108   .     S
C1470  H1471   1.110   .     S
H1472  C201    1.109   1_556 S
O1474  C1475   1.418   .     S
C1475  C1478   1.529   .     S
C1475  H1476   1.112   .     S
H1477  C1616   1.118   .     S
C1478  H1479   1.111   .     S
C1478  C1481   1.526   .     S
C1478  H1480   1.111   .     S
C1481  H1483   1.110   .     S
C1481  H1484   1.109   .     S
C1481  H1482   1.107   .     S
C1485  H1486   1.111   .     S
C1485  H1487   1.111   .     S
C1485  H1488   1.110   .     S
C1485  C1570   1.516   .     S
O1489  C1490   1.410   .     S
O1489  C2276   1.387   1_545 S
C1490  C1493   1.528   .     S
C1490  H1491   1.113   .     S
C1490  H2338   1.115   1_545 S
H1492  C1913   1.115   .     S
C1493  H1494   1.112   .     S
C1493  H1495   1.112   .     S
C1493  C1496   1.523   .     S
C1496  H1497   1.107   .     S
C1496  H1499   1.110   .     S
C1496  H1639   1.109   .     S
C1500  H1502   1.111   .     S
C1500  H1503   1.110   .     S
C1500  C1854   1.520   .     S
C1500  H1924   1.112   .     S
H1501  C2346   1.112   1_545 S
O1504  C1505   1.419   .     S
C1505  H1506   1.110   .     S
C1505  C1508   1.531   .     S
C1505  H1507   1.114   .     S
C1508  H1510   1.112   .     S
C1508  C1511   1.527   .     S
C1508  H1509   1.111   .     S
C1511  H1512   1.111   .     S
C1511  H1513   1.110   .     S
C1511  H1514   1.111   .     S
O1515  C1516   1.418   .     S
C1516  H1517   1.110   .     S
C1516  H1518   1.113   .     S
C1516  C1519   1.532   .     S
C1519  H1521   1.112   .     S
C1519  H1520   1.110   .     S
C1519  C2368   1.526   1_545 S
C1522  H1524   1.110   .     S
C1522  H1523   1.110   .     S
C1522  H1525   1.111   .     S
C1522  C1942   1.526   .     S
C1526  H1527   1.107   .     S
C1526  H1529   1.111   .     S
C1526  H1528   1.111   .     S
O1530  C1531   1.417   .     S
C1531  H1532   1.111   .     S
C1531  H1533   1.118   .     S
C1531  C688    1.529   1_556 S
C1534  H1536   1.111   .     S
C1534  H1535   1.112   .     S
C1534  C1108   1.529   1_545 S
C1537  H1538   1.109   .     S
C1537  H1540   1.111   .     S
C1537  C265    1.525   1_556 S
C1537  H270    1.110   1_556 S
O1541  C1542   1.418   .     S
C1542  H1543   1.111   .     S
C1542  C1545   1.534   .     S
C1542  H1544   1.113   .     S
C1545  H1546   1.111   .     S
C1545  H1547   1.111   .     S
C1548  H1550   1.110   .     S
C1548  H1551   1.111   .     S
C1548  H1549   1.110   .     S
C1548  C1686   1.528   .     S
C1552  O1588   1.258   .     A
C1552  C1570   1.431   .     S
C1552  O1586   1.264   .     A
C1553  O1682   1.388   .     S
C1553  C1577   1.408   .     A
C1553  C1579   1.416   .     A
C1554  H1580   1.077   .     S
C1554  C1555   1.405   .     A
C1554  C1577   1.394   .     A
C1555  C1557   1.428   .     A
C1555  C1556   1.427   .     A
C1556  C1579   1.424   .     A
C1556  C291    1.420   1_556 S
C1557  C1561   1.413   .     A
C1557  C289    1.409   1_556 S
C1558  C1559   1.406   .     A
C1558  C1565   1.423   .     A
C1559  C1560   1.394   .     A
C1559  H1581   1.076   .     S
C1560  C1600   1.512   .     S
C1561  H1582   1.077   .     S
C1561  C1562   1.400   .     A
C1562  C1667   1.513   .     S
C1562  C295    1.418   1_556 S
C1563  O1587   1.292   .     A
C1563  O1589   1.271   .     A
C1563  C1569   1.469   .     S
C1564  C1566   1.423   .     A
C1564  C1565   1.424   .     A
C1565  C1568   1.421   .     A
C1566  O1604   1.387   .     S
C1566  C1567   1.412   .     A
C1567  C1578   1.400   .     A
C1567  O1656   1.389   .     S
C1568  C1578   1.395   .     A
C1568  O1645   1.390   .     S
C1569  C1288   1.359   1_655 S
C1569  O1333   1.392   1_655 S
C1571  C1574   1.456   .     S
C1571  C1995   1.352   .     S
C1571  O2053   1.387   .     S
C1572  C1573   1.433   .     S
C1572  C2417   1.352   1_545 S
C1572  C2487   1.520   1_545 S
C1573  O1584   1.284   .     A
C1573  O1590   1.265   .     A
C1574  O1591   1.273   .     A
C1574  O1585   1.261   .     A
C1575  C1578   1.459   .     S
C1575  O1592   1.276   .     A
C1575  O1594   1.277   .     A
C1576  O1595   1.292   .     A
C1576  C1577   1.482   .     S
C1576  O1593   1.285   .     A
C1579  O1671   1.388   .     S
O1583  Zn1596  1.967   .     S
O1583  Zn1599  1.924   .     S
O1583  Zn1598  1.935   .     S
O1583  Zn1597  1.938   .     S
O1584  Zn1596  1.930   .     S
O1585  Zn1599  1.938   .     S
O1586  Zn1597  1.932   .     S
O1587  Zn1598  1.946   .     S
O1588  Zn1599  1.939   .     S
O1589  Zn1596  1.930   .     S
O1590  Zn1597  1.945   .     S
O1591  Zn1598  1.933   .     S
O1592  Zn1597  1.918   .     S
O1593  Zn1599  1.930   .     S
O1594  Zn1598  1.919   .     S
O1595  Zn1596  1.909   .     S
C1600  H1602   1.106   .     S
C1600  H1601   1.111   .     S
C1600  H1603   1.108   .     S
O1604  C1605   1.421   .     S
C1605  H1607   1.115   .     S
C1605  H1606   1.111   .     S
C1608  H1610   1.108   .     S
C1608  H1609   1.111   .     S
C1608  C336    1.538   1_556 S
C1608  C60     1.523   1_656 S
C1611  H1614   1.108   .     S
C1611  H1612   1.110   .     S
H1613  C342    1.109   1_556 S
O1615  C1616   1.418   .     S
C1616  C1619   1.529   .     S
C1616  H1617   1.112   .     S
H1618  C1334   1.118   1_655 S
C1619  H1620   1.111   .     S
C1619  C1622   1.526   .     S
C1619  H1621   1.111   .     S
C1622  H1624   1.110   .     S
C1622  H1625   1.109   .     S
C1622  H1623   1.107   .     S
C1626  H1627   1.111   .     S
C1626  H1628   1.111   .     S
C1626  H1629   1.110   .     S
C1626  C1288   1.516   1_655 S
O1630  C1631   1.410   .     S
O1630  C2417   1.387   1_545 S
C1631  C1634   1.528   .     S
C1631  H1632   1.113   .     S
C1631  H2479   1.115   1_545 S
H1633  C2054   1.115   .     S
C1634  H1635   1.112   .     S
C1634  H1636   1.112   .     S
C1634  C1637   1.523   .     S
C1637  H1638   1.107   .     S
C1637  H1640   1.110   .     S
C1637  H1357   1.109   1_655 S
C1641  H1643   1.111   .     S
C1641  H1644   1.110   .     S
C1641  C1995   1.520   .     S
C1641  H2065   1.112   .     S
H1642  C2487   1.112   1_545 S
O1645  C1646   1.419   .     S
C1646  H1647   1.110   .     S
C1646  C1649   1.531   .     S
C1646  H1648   1.114   .     S
C1649  H1651   1.112   .     S
C1649  C1652   1.527   .     S
C1649  H1650   1.111   .     S
C1652  H1653   1.111   .     S
C1652  H1654   1.110   .     S
C1652  H1655   1.111   .     S
O1656  C1657   1.418   .     S
C1657  H1658   1.110   .     S
C1657  H1659   1.113   .     S
C1657  C1660   1.532   .     S
C1660  H1662   1.112   .     S
C1660  H1661   1.110   .     S
C1660  C2509   1.526   1_545 S
C1663  H1665   1.110   .     S
C1663  H1664   1.110   .     S
C1663  H1666   1.111   .     S
C1663  C2083   1.526   .     S
C1667  H1668   1.107   .     S
C1667  H1670   1.111   .     S
C1667  H1669   1.111   .     S
O1671  C1672   1.417   .     S
C1672  H1673   1.111   .     S
C1672  H1674   1.118   .     S
C1672  C829    1.529   1_556 S
C1675  H1677   1.111   .     S
C1675  H1676   1.112   .     S
C1675  C1249   1.529   1_545 S
C1678  H1679   1.109   .     S
C1678  H1681   1.111   .     S
C1678  C406    1.525   1_556 S
C1678  H411    1.110   1_556 S
O1682  C1683   1.418   .     S
C1683  H1684   1.111   .     S
C1683  C1686   1.534   .     S
C1683  H1685   1.113   .     S
C1686  H1687   1.111   .     S
C1686  H1688   1.111   .     S
C1689  H1691   1.110   .     S
C1689  H1692   1.111   .     S
C1689  H1690   1.110   .     S
C1689  C1404   1.528   1_655 S
C1693  O1729   1.258   .     A
C1693  C1711   1.431   .     S
C1693  O1727   1.264   .     A
C1694  O1823   1.388   .     S
C1694  C1718   1.408   .     A
C1694  C1720   1.416   .     A
C1695  H1721   1.077   .     S
C1695  C1696   1.405   .     A
C1695  C1718   1.394   .     A
C1696  C1698   1.428   .     A
C1696  C1697   1.427   .     A
C1697  C1720   1.424   .     A
C1697  C432    1.420   1_556 S
C1698  C1702   1.413   .     A
C1698  C430    1.409   1_556 S
C1699  C1700   1.406   .     A
C1699  C1706   1.423   .     A
C1700  C1701   1.394   .     A
C1700  H1722   1.076   .     S
C1701  C1741   1.512   .     S
C1702  H1723   1.077   .     S
C1702  C1703   1.400   .     A
C1703  C1808   1.513   .     S
C1703  C436    1.418   1_556 S
C1704  O1728   1.292   .     A
C1704  O1730   1.271   .     A
C1704  C1710   1.469   .     S
C1705  C1707   1.423   .     A
C1705  C1706   1.424   .     A
C1706  C1709   1.421   .     A
C1707  O1745   1.387   .     S
C1707  C1708   1.412   .     A
C1708  C1719   1.400   .     A
C1708  O1797   1.389   .     S
C1709  C1719   1.395   .     A
C1709  O1786   1.390   .     S
C1710  C1852   1.359   .     S
C1710  O1897   1.392   .     S
C1711  C1992   1.359   1_455 S
C1711  C2049   1.516   1_455 S
C1712  C1715   1.456   .     S
C1712  C2136   1.352   .     S
C1712  O2194   1.387   .     S
C1713  C1714   1.433   .     S
C1714  O1725   1.284   .     A
C1714  O1731   1.265   .     A
C1715  O1732   1.273   .     A
C1715  O1726   1.261   .     A
C1716  C1719   1.459   .     S
C1716  O1733   1.276   .     A
C1716  O1735   1.277   .     A
C1717  O1736   1.292   .     A
C1717  C1718   1.482   .     S
C1717  O1734   1.285   .     A
C1720  O1812   1.388   .     S
O1724  Zn1737  1.967   .     S
O1724  Zn1740  1.924   .     S
O1724  Zn1739  1.935   .     S
O1724  Zn1738  1.938   .     S
O1725  Zn1737  1.930   .     S
O1726  Zn1740  1.938   .     S
O1727  Zn1738  1.932   .     S
O1728  Zn1739  1.946   .     S
O1729  Zn1740  1.939   .     S
O1730  Zn1737  1.930   .     S
O1731  Zn1738  1.945   .     S
O1732  Zn1739  1.933   .     S
O1733  Zn1738  1.918   .     S
O1734  Zn1740  1.930   .     S
O1735  Zn1739  1.919   .     S
O1736  Zn1737  1.909   .     S
C1741  H1743   1.106   .     S
C1741  H1742   1.111   .     S
C1741  H1744   1.108   .     S
O1745  C1746   1.421   .     S
C1746  H1748   1.115   .     S
C1746  H1747   1.111   .     S
C1749  H1751   1.108   .     S
C1749  H1750   1.111   .     S
C1749  C477    1.538   1_556 S
C1749  C624    1.523   1_556 S
C1752  H1755   1.108   .     S
C1752  H1753   1.110   .     S
C1752  C762    1.523   1_455 S
H1754  C483    1.109   1_556 S
O1756  C1757   1.418   .     S
O1756  C1992   1.392   1_455 S
C1757  C1760   1.529   .     S
C1757  H1758   1.112   .     S
C1757  H2041   1.118   1_455 S
H1759  C1898   1.118   .     S
C1760  H1761   1.111   .     S
C1760  C1763   1.526   .     S
C1760  H1762   1.111   .     S
C1763  H1765   1.110   .     S
C1763  H1766   1.109   .     S
C1763  H1764   1.107   .     S
C1767  H1768   1.111   .     S
C1767  H1769   1.111   .     S
C1767  H1770   1.110   .     S
C1767  C1852   1.516   .     S
O1771  C1772   1.410   .     S
C1772  C1775   1.528   .     S
C1772  H1773   1.113   .     S
H1774  C2195   1.115   .     S
C1775  H1776   1.112   .     S
C1775  H1777   1.112   .     S
C1775  C1778   1.523   .     S
C1778  H1779   1.107   .     S
C1778  H1781   1.110   .     S
C1778  H1921   1.109   .     S
H1780  C2060   1.109   1_455 S
C1782  H1784   1.111   .     S
C1782  H1785   1.110   .     S
C1782  C2136   1.520   .     S
C1782  H2206   1.112   .     S
O1786  C1787   1.419   .     S
C1787  H1788   1.110   .     S
C1787  C1790   1.531   .     S
C1787  H1789   1.114   .     S
C1790  H1792   1.112   .     S
C1790  C1793   1.527   .     S
C1790  H1791   1.111   .     S
C1793  H1794   1.111   .     S
C1793  H1795   1.110   .     S
C1793  H1796   1.111   .     S
O1797  C1798   1.418   .     S
C1798  H1799   1.110   .     S
C1798  H1800   1.113   .     S
C1798  C1801   1.532   .     S
C1801  H1803   1.112   .     S
C1801  H1802   1.110   .     S
C1804  H1806   1.110   .     S
C1804  H1805   1.110   .     S
C1804  H1807   1.111   .     S
C1804  C2224   1.526   .     S
C1808  H1809   1.107   .     S
C1808  H1811   1.111   .     S
C1808  H1810   1.111   .     S
O1812  C1813   1.417   .     S
C1813  H1814   1.111   .     S
C1813  H1815   1.118   .     S
C1813  C970    1.529   1_556 S
C1816  H1818   1.111   .     S
C1816  H1817   1.112   .     S
C1819  H1820   1.109   .     S
C1819  H1822   1.111   .     S
C1819  C547    1.525   1_556 S
C1819  H552    1.110   1_556 S
O1823  C1824   1.418   .     S
C1824  H1825   1.111   .     S
C1824  C1827   1.534   .     S
C1824  H1826   1.113   .     S
C1827  H1828   1.111   .     S
C1827  H1829   1.111   .     S
C1827  C2112   1.528   1_455 S
C1830  H1832   1.110   .     S
C1830  H1833   1.111   .     S
C1830  H1831   1.110   .     S
C1830  C1968   1.528   .     S
C1834  O1870   1.258   .     A
C1834  C1852   1.431   .     S
C1834  O1868   1.264   .     A
C1835  O1964   1.388   .     S
C1835  C1859   1.408   .     A
C1835  C1861   1.416   .     A
C1836  H1862   1.077   .     S
C1836  C1837   1.405   .     A
C1836  C1859   1.394   .     A
C1837  C1839   1.428   .     A
C1837  C1838   1.427   .     A
C1838  C1861   1.424   .     A
C1838  C573    1.420   1_556 S
C1839  C1843   1.413   .     A
C1839  C571    1.409   1_556 S
C1840  C1841   1.406   .     A
C1840  C1847   1.423   .     A
C1841  C1842   1.394   .     A
C1841  H1863   1.076   .     S
C1842  C1882   1.512   .     S
C1843  H1864   1.077   .     S
C1843  C1844   1.400   .     A
C1844  C1949   1.513   .     S
C1844  C577    1.418   1_556 S
C1845  O1869   1.292   .     A
C1845  O1871   1.271   .     A
C1845  C1851   1.469   .     S
C1846  C1848   1.423   .     A
C1846  C1847   1.424   .     A
C1847  C1850   1.421   .     A
C1848  O1886   1.387   .     S
C1848  C1849   1.412   .     A
C1849  C1860   1.400   .     A
C1849  O1938   1.389   .     S
C1850  C1860   1.395   .     A
C1850  O1927   1.390   .     S
C1851  C1993   1.359   .     S
C1851  O2038   1.392   .     S
C1853  C1856   1.456   .     S
C1853  C2277   1.352   .     S
C1853  O2335   1.387   .     S
C1854  C1855   1.433   .     S
C1855  O1866   1.284   .     A
C1855  O1872   1.265   .     A
C1856  O1873   1.273   .     A
C1856  O1867   1.261   .     A
C1857  C1860   1.459   .     S
C1857  O1874   1.276   .     A
C1857  O1876   1.277   .     A
C1858  O1877   1.292   .     A
C1858  C1859   1.482   .     S
C1858  O1875   1.285   .     A
C1861  O1953   1.388   .     S
O1865  Zn1878  1.967   .     S
O1865  Zn1881  1.924   .     S
O1865  Zn1880  1.935   .     S
O1865  Zn1879  1.938   .     S
O1866  Zn1878  1.930   .     S
O1867  Zn1881  1.938   .     S
O1868  Zn1879  1.932   .     S
O1869  Zn1880  1.946   .     S
O1870  Zn1881  1.939   .     S
O1871  Zn1878  1.930   .     S
O1872  Zn1879  1.945   .     S
O1873  Zn1880  1.933   .     S
O1874  Zn1879  1.918   .     S
O1875  Zn1881  1.930   .     S
O1876  Zn1880  1.919   .     S
O1877  Zn1878  1.909   .     S
C1882  H1884   1.106   .     S
C1882  H1883   1.111   .     S
C1882  H1885   1.108   .     S
O1886  C1887   1.421   .     S
C1887  H1889   1.115   .     S
C1887  H1888   1.111   .     S
C1890  H1892   1.108   .     S
C1890  H1891   1.111   .     S
C1890  C618    1.538   1_556 S
C1890  C765    1.523   1_556 S
C1893  H1896   1.108   .     S
C1893  H1894   1.110   .     S
H1895  C624    1.109   1_556 S
O1897  C1898   1.418   .     S
C1898  C1901   1.529   .     S
C1898  H1899   1.112   .     S
H1900  C2039   1.118   .     S
C1901  H1902   1.111   .     S
C1901  C1904   1.526   .     S
C1901  H1903   1.111   .     S
C1904  H1906   1.110   .     S
C1904  H1907   1.109   .     S
C1904  H1905   1.107   .     S
C1908  H1909   1.111   .     S
C1908  H1910   1.111   .     S
C1908  H1911   1.110   .     S
C1908  C1993   1.516   .     S
O1912  C1913   1.410   .     S
C1913  C1916   1.528   .     S
C1913  H1914   1.113   .     S
H1915  C2336   1.115   .     S
C1916  H1917   1.112   .     S
C1916  H1918   1.112   .     S
C1916  C1919   1.523   .     S
C1919  H1920   1.107   .     S
C1919  H1922   1.110   .     S
C1919  H2062   1.109   .     S
C1923  H1925   1.111   .     S
C1923  H1926   1.110   .     S
C1923  C2277   1.520   .     S
C1923  H2347   1.112   .     S
O1927  C1928   1.419   .     S
C1928  H1929   1.110   .     S
C1928  C1931   1.531   .     S
C1928  H1930   1.114   .     S
C1931  H1933   1.112   .     S
C1931  C1934   1.527   .     S
C1931  H1932   1.111   .     S
C1934  H1935   1.111   .     S
C1934  H1936   1.110   .     S
C1934  H1937   1.111   .     S
O1938  C1939   1.418   .     S
C1939  H1940   1.110   .     S
C1939  H1941   1.113   .     S
C1939  C1942   1.532   .     S
C1942  H1944   1.112   .     S
C1942  H1943   1.110   .     S
C1945  H1947   1.110   .     S
C1945  H1946   1.110   .     S
C1945  H1948   1.111   .     S
C1945  C2365   1.526   .     S
C1949  H1950   1.107   .     S
C1949  H1952   1.111   .     S
C1949  H1951   1.111   .     S
O1953  C1954   1.417   .     S
C1954  H1955   1.111   .     S
C1954  H1956   1.118   .     S
C1954  C1111   1.529   1_556 S
C1957  H1959   1.111   .     S
C1957  H1958   1.112   .     S
C1960  H1961   1.109   .     S
C1960  H1963   1.111   .     S
C1960  C688    1.525   1_556 S
C1960  H693    1.110   1_556 S
O1964  C1965   1.418   .     S
C1965  H1966   1.111   .     S
C1965  C1968   1.534   .     S
C1965  H1967   1.113   .     S
C1968  H1969   1.111   .     S
C1968  H1970   1.111   .     S
C1971  H1973   1.110   .     S
C1971  H1974   1.111   .     S
C1971  H1972   1.110   .     S
C1971  C2109   1.528   .     S
C1975  O2011   1.258   .     A
C1975  C1993   1.431   .     S
C1975  O2009   1.264   .     A
C1976  O2105   1.388   .     S
C1976  C2000   1.408   .     A
C1976  C2002   1.416   .     A
C1977  H2003   1.077   .     S
C1977  C1978   1.405   .     A
C1977  C2000   1.394   .     A
C1978  C1980   1.428   .     A
C1978  C1979   1.427   .     A
C1979  C2002   1.424   .     A
C1979  C714    1.420   1_556 S
C1980  C1984   1.413   .     A
C1980  C712    1.409   1_556 S
C1981  C1982   1.406   .     A
C1981  C1988   1.423   .     A
C1982  C1983   1.394   .     A
C1982  H2004   1.076   .     S
C1983  C2023   1.512   .     S
C1984  H2005   1.077   .     S
C1984  C1985   1.400   .     A
C1985  C2090   1.513   .     S
C1985  C718    1.418   1_556 S
C1986  O2010   1.292   .     A
C1986  O2012   1.271   .     A
C1986  C1992   1.469   .     S
C1987  C1989   1.423   .     A
C1987  C1988   1.424   .     A
C1988  C1991   1.421   .     A
C1989  O2027   1.387   .     S
C1989  C1990   1.412   .     A
C1990  C2001   1.400   .     A
C1990  O2079   1.389   .     S
C1991  C2001   1.395   .     A
C1991  O2068   1.390   .     S
C1992  C1711   1.359   1_655 S
C1992  O1756   1.392   1_655 S
C1994  C1997   1.456   .     S
C1994  C2418   1.352   .     S
C1994  O2476   1.387   .     S
C1995  C1996   1.433   .     S
C1996  O2007   1.284   .     A
C1996  O2013   1.265   .     A
C1997  O2014   1.273   .     A
C1997  O2008   1.261   .     A
C1998  C2001   1.459   .     S
C1998  O2015   1.276   .     A
C1998  O2017   1.277   .     A
C1999  O2018   1.292   .     A
C1999  C2000   1.482   .     S
C1999  O2016   1.285   .     A
C2002  O2094   1.388   .     S
O2006  Zn2019  1.967   .     S
O2006  Zn2022  1.924   .     S
O2006  Zn2021  1.935   .     S
O2006  Zn2020  1.938   .     S
O2007  Zn2019  1.930   .     S
O2008  Zn2022  1.938   .     S
O2009  Zn2020  1.932   .     S
O2010  Zn2021  1.946   .     S
O2011  Zn2022  1.939   .     S
O2012  Zn2019  1.930   .     S
O2013  Zn2020  1.945   .     S
O2014  Zn2021  1.933   .     S
O2015  Zn2020  1.918   .     S
O2016  Zn2022  1.930   .     S
O2017  Zn2021  1.919   .     S
O2018  Zn2019  1.909   .     S
C2023  H2025   1.106   .     S
C2023  H2024   1.111   .     S
C2023  H2026   1.108   .     S
O2027  C2028   1.421   .     S
C2028  H2030   1.115   .     S
C2028  H2029   1.111   .     S
C2031  H2033   1.108   .     S
C2031  H2032   1.111   .     S
C2031  C759    1.538   1_556 S
C2031  C483    1.523   1_656 S
C2034  H2037   1.108   .     S
C2034  H2035   1.110   .     S
H2036  C765    1.109   1_556 S
O2038  C2039   1.418   .     S
C2039  C2042   1.529   .     S
C2039  H2040   1.112   .     S
H2041  C1757   1.118   1_655 S
C2042  H2043   1.111   .     S
C2042  C2045   1.526   .     S
C2042  H2044   1.111   .     S
C2045  H2047   1.110   .     S
C2045  H2048   1.109   .     S
C2045  H2046   1.107   .     S
C2049  H2050   1.111   .     S
C2049  H2051   1.111   .     S
C2049  H2052   1.110   .     S
C2049  C1711   1.516   1_655 S
O2053  C2054   1.410   .     S
C2054  C2057   1.528   .     S
C2054  H2055   1.113   .     S
H2056  C2477   1.115   .     S
C2057  H2058   1.112   .     S
C2057  H2059   1.112   .     S
C2057  C2060   1.523   .     S
C2060  H2061   1.107   .     S
C2060  H2063   1.110   .     S
C2060  H1780   1.109   1_655 S
C2064  H2066   1.111   .     S
C2064  H2067   1.110   .     S
C2064  C2418   1.520   .     S
C2064  H2488   1.112   .     S
O2068  C2069   1.419   .     S
C2069  H2070   1.110   .     S
C2069  C2072   1.531   .     S
C2069  H2071   1.114   .     S
C2072  H2074   1.112   .     S
C2072  C2075   1.527   .     S
C2072  H2073   1.111   .     S
C2075  H2076   1.111   .     S
C2075  H2077   1.110   .     S
C2075  H2078   1.111   .     S
O2079  C2080   1.418   .     S
C2080  H2081   1.110   .     S
C2080  H2082   1.113   .     S
C2080  C2083   1.532   .     S
C2083  H2085   1.112   .     S
C2083  H2084   1.110   .     S
C2086  H2088   1.110   .     S
C2086  H2087   1.110   .     S
C2086  H2089   1.111   .     S
C2086  C2506   1.526   .     S
C2090  H2091   1.107   .     S
C2090  H2093   1.111   .     S
C2090  H2092   1.111   .     S
O2094  C2095   1.417   .     S
C2095  H2096   1.111   .     S
C2095  H2097   1.118   .     S
C2095  C1252   1.529   1_556 S
C2098  H2100   1.111   .     S
C2098  H2099   1.112   .     S
C2101  H2102   1.109   .     S
C2101  H2104   1.111   .     S
C2101  C829    1.525   1_556 S
C2101  H834    1.110   1_556 S
O2105  C2106   1.418   .     S
C2106  H2107   1.111   .     S
C2106  C2109   1.534   .     S
C2106  H2108   1.113   .     S
C2109  H2110   1.111   .     S
C2109  H2111   1.111   .     S
C2112  H2114   1.110   .     S
C2112  H2115   1.111   .     S
C2112  H2113   1.110   .     S
C2112  C1827   1.528   1_655 S
C2116  O2152   1.258   .     A
C2116  C2134   1.431   .     S
C2116  O2150   1.264   .     A
C2117  O2246   1.388   .     S
C2117  C2141   1.408   .     A
C2117  C2143   1.416   .     A
C2118  H2144   1.077   .     S
C2118  C2119   1.405   .     A
C2118  C2141   1.394   .     A
C2119  C2121   1.428   .     A
C2119  C2120   1.427   .     A
C2120  C2143   1.424   .     A
C2120  C855    1.420   1_556 S
C2121  C2125   1.413   .     A
C2121  C853    1.409   1_556 S
C2122  C2123   1.406   .     A
C2122  C2129   1.423   .     A
C2123  C2124   1.394   .     A
C2123  H2145   1.076   .     S
C2124  C2164   1.512   .     S
C2125  H2146   1.077   .     S
C2125  C2126   1.400   .     A
C2126  C2231   1.513   .     S
C2126  C859    1.418   1_556 S
C2127  O2151   1.292   .     A
C2127  O2153   1.271   .     A
C2127  C2133   1.469   .     S
C2128  C2130   1.423   .     A
C2128  C2129   1.424   .     A
C2129  C2132   1.421   .     A
C2130  O2168   1.387   .     S
C2130  C2131   1.412   .     A
C2131  C2142   1.400   .     A
C2131  O2220   1.389   .     S
C2132  C2142   1.395   .     A
C2132  O2209   1.390   .     S
C2133  C2275   1.359   .     S
C2133  O2320   1.392   .     S
C2134  C2415   1.359   1_455 S
C2134  C2472   1.516   1_455 S
C2135  C2138   1.456   .     S
C2135  C1290   1.352   1_565 S
C2135  O1348   1.387   1_565 S
C2136  C2137   1.433   .     S
C2137  O2148   1.284   .     A
C2137  O2154   1.265   .     A
C2138  O2155   1.273   .     A
C2138  O2149   1.261   .     A
C2139  C2142   1.459   .     S
C2139  O2156   1.276   .     A
C2139  O2158   1.277   .     A
C2140  O2159   1.292   .     A
C2140  C2141   1.482   .     S
C2140  O2157   1.285   .     A
C2143  O2235   1.388   .     S
O2147  Zn2160  1.967   .     S
O2147  Zn2163  1.924   .     S
O2147  Zn2162  1.935   .     S
O2147  Zn2161  1.938   .     S
O2148  Zn2160  1.930   .     S
O2149  Zn2163  1.938   .     S
O2150  Zn2161  1.932   .     S
O2151  Zn2162  1.946   .     S
O2152  Zn2163  1.939   .     S
O2153  Zn2160  1.930   .     S
O2154  Zn2161  1.945   .     S
O2155  Zn2162  1.933   .     S
O2156  Zn2161  1.918   .     S
O2157  Zn2163  1.930   .     S
O2158  Zn2162  1.919   .     S
O2159  Zn2160  1.909   .     S
C2164  H2166   1.106   .     S
C2164  H2165   1.111   .     S
C2164  H2167   1.108   .     S
O2168  C2169   1.421   .     S
C2169  H2171   1.115   .     S
C2169  H2170   1.111   .     S
C2172  H2174   1.108   .     S
C2172  H2173   1.111   .     S
C2172  C900    1.538   1_556 S
C2172  C1047   1.523   1_556 S
C2175  H2178   1.108   .     S
C2175  H2176   1.110   .     S
C2175  C1185   1.523   1_455 S
H2177  C906    1.109   1_556 S
O2179  C2180   1.418   .     S
O2179  C2415   1.392   1_455 S
C2180  C2183   1.529   .     S
C2180  H2181   1.112   .     S
C2180  H2464   1.118   1_455 S
H2182  C2321   1.118   .     S
C2183  H2184   1.111   .     S
C2183  C2186   1.526   .     S
C2183  H2185   1.111   .     S
C2186  H2188   1.110   .     S
C2186  H2189   1.109   .     S
C2186  H2187   1.107   .     S
C2190  H2191   1.111   .     S
C2190  H2192   1.111   .     S
C2190  H2193   1.110   .     S
C2190  C2275   1.516   .     S
O2194  C2195   1.410   .     S
C2195  C2198   1.528   .     S
C2195  H2196   1.113   .     S
H2197  C1349   1.115   1_565 S
C2198  H2199   1.112   .     S
C2198  H2200   1.112   .     S
C2198  C2201   1.523   .     S
C2201  H2202   1.107   .     S
C2201  H2204   1.110   .     S
C2201  H2344   1.109   .     S
H2203  C2483   1.109   1_455 S
C2205  H2207   1.111   .     S
C2205  H2208   1.110   .     S
C2205  C1290   1.520   1_565 S
C2205  H1360   1.112   1_565 S
O2209  C2210   1.419   .     S
C2210  H2211   1.110   .     S
C2210  C2213   1.531   .     S
C2210  H2212   1.114   .     S
C2213  H2215   1.112   .     S
C2213  C2216   1.527   .     S
C2213  H2214   1.111   .     S
C2216  H2217   1.111   .     S
C2216  H2218   1.110   .     S
C2216  H2219   1.111   .     S
O2220  C2221   1.418   .     S
C2221  H2222   1.110   .     S
C2221  H2223   1.113   .     S
C2221  C2224   1.532   .     S
C2224  H2226   1.112   .     S
C2224  H2225   1.110   .     S
C2227  H2229   1.110   .     S
C2227  H2228   1.110   .     S
C2227  H2230   1.111   .     S
C2227  C1378   1.526   1_565 S
C2231  H2232   1.107   .     S
C2231  H2234   1.111   .     S
C2231  H2233   1.111   .     S
O2235  C2236   1.417   .     S
C2236  H2237   1.111   .     S
C2236  H2238   1.118   .     S
C2236  C124    1.529   1_566 S
C2239  H2241   1.111   .     S
C2239  H2240   1.112   .     S
C2242  H2243   1.109   .     S
C2242  H2245   1.111   .     S
C2242  C970    1.525   1_556 S
C2242  H975    1.110   1_556 S
O2246  C2247   1.418   .     S
C2247  H2248   1.111   .     S
C2247  C2250   1.534   .     S
C2247  H2249   1.113   .     S
C2250  H2251   1.111   .     S
C2250  H2252   1.111   .     S
C2250  C2535   1.528   1_455 S
C2253  H2255   1.110   .     S
C2253  H2256   1.111   .     S
C2253  H2254   1.110   .     S
C2253  C2391   1.528   .     S
C2257  O2293   1.258   .     A
C2257  C2275   1.431   .     S
C2257  O2291   1.264   .     A
C2258  O2387   1.388   .     S
C2258  C2282   1.408   .     A
C2258  C2284   1.416   .     A
C2259  H2285   1.077   .     S
C2259  C2260   1.405   .     A
C2259  C2282   1.394   .     A
C2260  C2262   1.428   .     A
C2260  C2261   1.427   .     A
C2261  C2284   1.424   .     A
C2261  C996    1.420   1_556 S
C2262  C2266   1.413   .     A
C2262  C994    1.409   1_556 S
C2263  C2264   1.406   .     A
C2263  C2270   1.423   .     A
C2264  C2265   1.394   .     A
C2264  H2286   1.076   .     S
C2265  C2305   1.512   .     S
C2266  H2287   1.077   .     S
C2266  C2267   1.400   .     A
C2267  C2372   1.513   .     S
C2267  C1000   1.418   1_556 S
C2268  O2292   1.292   .     A
C2268  O2294   1.271   .     A
C2268  C2274   1.469   .     S
C2269  C2271   1.423   .     A
C2269  C2270   1.424   .     A
C2270  C2273   1.421   .     A
C2271  O2309   1.387   .     S
C2271  C2272   1.412   .     A
C2272  C2283   1.400   .     A
C2272  O2361   1.389   .     S
C2273  C2283   1.395   .     A
C2273  O2350   1.390   .     S
C2274  C2416   1.359   .     S
C2274  O2461   1.392   .     S
C2276  C2279   1.456   .     S
C2276  C1431   1.352   1_565 S
C2276  O1489   1.387   1_565 S
C2277  C2278   1.433   .     S
C2278  O2289   1.284   .     A
C2278  O2295   1.265   .     A
C2279  O2296   1.273   .     A
C2279  O2290   1.261   .     A
C2280  C2283   1.459   .     S
C2280  O2297   1.276   .     A
C2280  O2299   1.277   .     A
C2281  O2300   1.292   .     A
C2281  C2282   1.482   .     S
C2281  O2298   1.285   .     A
C2284  O2376   1.388   .     S
O2288  Zn2301  1.967   .     S
O2288  Zn2304  1.924   .     S
O2288  Zn2303  1.935   .     S
O2288  Zn2302  1.938   .     S
O2289  Zn2301  1.930   .     S
O2290  Zn2304  1.938   .     S
O2291  Zn2302  1.932   .     S
O2292  Zn2303  1.946   .     S
O2293  Zn2304  1.939   .     S
O2294  Zn2301  1.930   .     S
O2295  Zn2302  1.945   .     S
O2296  Zn2303  1.933   .     S
O2297  Zn2302  1.918   .     S
O2298  Zn2304  1.930   .     S
O2299  Zn2303  1.919   .     S
O2300  Zn2301  1.909   .     S
C2305  H2307   1.106   .     S
C2305  H2306   1.111   .     S
C2305  H2308   1.108   .     S
O2309  C2310   1.421   .     S
C2310  H2312   1.115   .     S
C2310  H2311   1.111   .     S
C2313  H2315   1.108   .     S
C2313  H2314   1.111   .     S
C2313  C1041   1.538   1_556 S
C2313  C1188   1.523   1_556 S
C2316  H2319   1.108   .     S
C2316  H2317   1.110   .     S
H2318  C1047   1.109   1_556 S
O2320  C2321   1.418   .     S
C2321  C2324   1.529   .     S
C2321  H2322   1.112   .     S
H2323  C2462   1.118   .     S
C2324  H2325   1.111   .     S
C2324  C2327   1.526   .     S
C2324  H2326   1.111   .     S
C2327  H2329   1.110   .     S
C2327  H2330   1.109   .     S
C2327  H2328   1.107   .     S
C2331  H2332   1.111   .     S
C2331  H2333   1.111   .     S
C2331  H2334   1.110   .     S
C2331  C2416   1.516   .     S
O2335  C2336   1.410   .     S
C2336  C2339   1.528   .     S
C2336  H2337   1.113   .     S
H2338  C1490   1.115   1_565 S
C2339  H2340   1.112   .     S
C2339  H2341   1.112   .     S
C2339  C2342   1.523   .     S
C2342  H2343   1.107   .     S
C2342  H2345   1.110   .     S
C2342  H2485   1.109   .     S
C2346  H2348   1.111   .     S
C2346  H2349   1.110   .     S
C2346  C1431   1.520   1_565 S
C2346  H1501   1.112   1_565 S
O2350  C2351   1.419   .     S
C2351  H2352   1.110   .     S
C2351  C2354   1.531   .     S
C2351  H2353   1.114   .     S
C2354  H2356   1.112   .     S
C2354  C2357   1.527   .     S
C2354  H2355   1.111   .     S
C2357  H2358   1.111   .     S
C2357  H2359   1.110   .     S
C2357  H2360   1.111   .     S
O2361  C2362   1.418   .     S
C2362  H2363   1.110   .     S
C2362  H2364   1.113   .     S
C2362  C2365   1.532   .     S
C2365  H2367   1.112   .     S
C2365  H2366   1.110   .     S
C2368  H2370   1.110   .     S
C2368  H2369   1.110   .     S
C2368  H2371   1.111   .     S
C2368  C1519   1.526   1_565 S
C2372  H2373   1.107   .     S
C2372  H2375   1.111   .     S
C2372  H2374   1.111   .     S
O2376  C2377   1.417   .     S
C2377  H2378   1.111   .     S
C2377  H2379   1.118   .     S
C2377  C265    1.529   1_566 S
C2380  H2382   1.111   .     S
C2380  H2381   1.112   .     S
C2383  H2384   1.109   .     S
C2383  H2386   1.111   .     S
C2383  C1111   1.525   1_556 S
C2383  H1116   1.110   1_556 S
O2387  C2388   1.418   .     S
C2388  H2389   1.111   .     S
C2388  C2391   1.534   .     S
C2388  H2390   1.113   .     S
C2391  H2392   1.111   .     S
C2391  H2393   1.111   .     S
C2394  H2396   1.110   .     S
C2394  H2397   1.111   .     S
C2394  H2395   1.110   .     S
C2394  C2532   1.528   .     S
C2398  O2434   1.258   .     A
C2398  C2416   1.431   .     S
C2398  O2432   1.264   .     A
C2399  O2528   1.388   .     S
C2399  C2423   1.408   .     A
C2399  C2425   1.416   .     A
C2400  H2426   1.077   .     S
C2400  C2401   1.405   .     A
C2400  C2423   1.394   .     A
C2401  C2403   1.428   .     A
C2401  C2402   1.427   .     A
C2402  C2425   1.424   .     A
C2402  C1137   1.420   1_556 S
C2403  C2407   1.413   .     A
C2403  C1135   1.409   1_556 S
C2404  C2405   1.406   .     A
C2404  C2411   1.423   .     A
C2405  C2406   1.394   .     A
C2405  H2427   1.076   .     S
C2406  C2446   1.512   .     S
C2407  H2428   1.077   .     S
C2407  C2408   1.400   .     A
C2408  C2513   1.513   .     S
C2408  C1141   1.418   1_556 S
C2409  O2433   1.292   .     A
C2409  O2435   1.271   .     A
C2409  C2415   1.469   .     S
C2410  C2412   1.423   .     A
C2410  C2411   1.424   .     A
C2411  C2414   1.421   .     A
C2412  O2450   1.387   .     S
C2412  C2413   1.412   .     A
C2413  C2424   1.400   .     A
C2413  O2502   1.389   .     S
C2414  C2424   1.395   .     A
C2414  O2491   1.390   .     S
C2415  C2134   1.359   1_655 S
C2415  O2179   1.392   1_655 S
C2417  C2420   1.456   .     S
C2417  C1572   1.352   1_565 S
C2417  O1630   1.387   1_565 S
C2418  C2419   1.433   .     S
C2419  O2430   1.284   .     A
C2419  O2436   1.265   .     A
C2420  O2437   1.273   .     A
C2420  O2431   1.261   .     A
C2421  C2424   1.459   .     S
C2421  O2438   1.276   .     A
C2421  O2440   1.277   .     A
C2422  O2441   1.292   .     A
C2422  C2423   1.482   .     S
C2422  O2439   1.285   .     A
C2425  O2517   1.388   .     S
O2429  Zn2442  1.967   .     S
O2429  Zn2445  1.924   .     S
O2429  Zn2444  1.935   .     S
O2429  Zn2443  1.938   .     S
O2430  Zn2442  1.930   .     S
O2431  Zn2445  1.938   .     S
O2432  Zn2443  1.932   .     S
O2433  Zn2444  1.946   .     S
O2434  Zn2445  1.939   .     S
O2435  Zn2442  1.930   .     S
O2436  Zn2443  1.945   .     S
O2437  Zn2444  1.933   .     S
O2438  Zn2443  1.918   .     S
O2439  Zn2445  1.930   .     S
O2440  Zn2444  1.919   .     S
O2441  Zn2442  1.909   .     S
C2446  H2448   1.106   .     S
C2446  H2447   1.111   .     S
C2446  H2449   1.108   .     S
O2450  C2451   1.421   .     S
C2451  H2453   1.115   .     S
C2451  H2452   1.111   .     S
C2454  H2456   1.108   .     S
C2454  H2455   1.111   .     S
C2454  C1182   1.538   1_556 S
C2454  C906    1.523   1_656 S
C2457  H2460   1.108   .     S
C2457  H2458   1.110   .     S
H2459  C1188   1.109   1_556 S
O2461  C2462   1.418   .     S
C2462  C2465   1.529   .     S
C2462  H2463   1.112   .     S
H2464  C2180   1.118   1_655 S
C2465  H2466   1.111   .     S
C2465  C2468   1.526   .     S
C2465  H2467   1.111   .     S
C2468  H2470   1.110   .     S
C2468  H2471   1.109   .     S
C2468  H2469   1.107   .     S
C2472  H2473   1.111   .     S
C2472  H2474   1.111   .     S
C2472  H2475   1.110   .     S
C2472  C2134   1.516   1_655 S
O2476  C2477   1.410   .     S
C2477  C2480   1.528   .     S
C2477  H2478   1.113   .     S
H2479  C1631   1.115   1_565 S
C2480  H2481   1.112   .     S
C2480  H2482   1.112   .     S
C2480  C2483   1.523   .     S
C2483  H2484   1.107   .     S
C2483  H2486   1.110   .     S
C2483  H2203   1.109   1_655 S
C2487  H2489   1.111   .     S
C2487  H2490   1.110   .     S
C2487  C1572   1.520   1_565 S
C2487  H1642   1.112   1_565 S
O2491  C2492   1.419   .     S
C2492  H2493   1.110   .     S
C2492  C2495   1.531   .     S
C2492  H2494   1.114   .     S
C2495  H2497   1.112   .     S
C2495  C2498   1.527   .     S
C2495  H2496   1.111   .     S
C2498  H2499   1.111   .     S
C2498  H2500   1.110   .     S
C2498  H2501   1.111   .     S
O2502  C2503   1.418   .     S
C2503  H2504   1.110   .     S
C2503  H2505   1.113   .     S
C2503  C2506   1.532   .     S
C2506  H2508   1.112   .     S
C2506  H2507   1.110   .     S
C2509  H2511   1.110   .     S
C2509  H2510   1.110   .     S
C2509  H2512   1.111   .     S
C2509  C1660   1.526   1_565 S
C2513  H2514   1.107   .     S
C2513  H2516   1.111   .     S
C2513  H2515   1.111   .     S
O2517  C2518   1.417   .     S
C2518  H2519   1.111   .     S
C2518  H2520   1.118   .     S
C2518  C406    1.529   1_566 S
C2521  H2523   1.111   .     S
C2521  H2522   1.112   .     S
C2524  H2525   1.109   .     S
C2524  H2527   1.111   .     S
C2524  C1252   1.525   1_556 S
C2524  H1257   1.110   1_556 S
O2528  C2529   1.418   .     S
C2529  H2530   1.111   .     S
C2529  C2532   1.534   .     S
C2529  H2531   1.113   .     S
C2532  H2533   1.111   .     S
C2532  H2534   1.111   .     S
C2535  H2537   1.110   .     S
C2535  H2538   1.111   .     S
C2535  H2536   1.110   .     S
C2535  C2250   1.528   1_655 S
