data_str_m3_o1_o18_pcu_sym.43
_audit_creation_date              2020-01-03
_audit_creation_method            'Materials Studio'
_symmetry_space_group_name_H-M    'P1'
_symmetry_Int_Tables_number       1
_symmetry_cell_setting            triclinic
loop_
_symmetry_equiv_pos_as_xyz
  x,y,z
_cell_length_a                    29.7114
_cell_length_b                    32.1315
_cell_length_c                    30.8965
_cell_angle_alpha                 90.0849
_cell_angle_beta                  70.3084
_cell_angle_gamma                 89.9329
loop_
_atom_site_label
_atom_site_type_symbol
_atom_site_fract_x
_atom_site_fract_y
_atom_site_fract_z
_atom_site_U_iso_or_equiv
_atom_site_adp_type
_atom_site_occupancy
C1     C     0.16661   0.24664   0.25015   0.00000  Uiso   1.00
C2     C     0.12935   0.31202   0.24165   0.00000  Uiso   1.00
C3     C     0.16683   0.04249   0.24969   0.00000  Uiso   1.00
C4     C     0.16666   0.29081   0.25001   0.00000  Uiso   1.00
C5     C     0.31891   0.13938   0.22310   0.00000  Uiso   1.00
C6     C     0.01449   0.19416   0.27664   0.00000  Uiso   1.00
C7     C     0.03337   0.13936   0.22320   0.00000  Uiso   1.00
C8     C     0.29999   0.19404   0.27671   0.00000  Uiso   1.00
C9     C     0.13715   0.16814   0.33765   0.00000  Uiso   1.00
C10    C     0.19591   0.16952   0.16261   0.00000  Uiso   1.00
C11    C     0.11937   0.17699   0.38698   0.00000  Uiso   1.00
C12    C     0.16672   0.08669   0.24987   0.00000  Uiso   1.00
C13    C     0.21085   0.18526   0.11556   0.00000  Uiso   1.00
C14    C     0.05667   0.20101   0.45515   0.00000  Uiso   1.00
C15    C     0.25833   0.23256   0.05633   0.00000  Uiso   1.00
C16    C     0.07057   0.18597   0.41007   0.00000  Uiso   1.00
C17    C     0.25071   0.21182   0.09826   0.00000  Uiso   1.00
C18    C     0.15253   0.18301   0.40966   0.00000  Uiso   1.00
C19    C     0.17807   0.18182   0.09236   0.00000  Uiso   1.00
C20    C     0.13704   0.19405   0.45611   0.00000  Uiso   1.00
C21    C     0.18630   0.20122   0.05028   0.00000  Uiso   1.00
C22    C     0.08774   0.19756   0.48020   0.00000  Uiso   1.00
C23    C     0.10313   0.19727   0.05193   0.00000  Uiso   1.00
C24    C     0.22957   0.22255   0.02950   0.00000  Uiso   1.00
C25    C     0.16903   0.20283   0.47945   0.00000  Uiso   1.00
C26    C     0.15268   0.19915   0.02766   0.00000  Uiso   1.00
C27    C     0.27436   0.25428   0.14630   0.00000  Uiso   1.00
C28    C     0.00359   0.15712   0.40278   0.00000  Uiso   1.00
C29    C     0.03601   0.26828   0.45351   0.00000  Uiso   1.00
C30    C     0.27043   0.30241   0.04864   0.00000  Uiso   1.00
C31    C     0.21479   0.21942   0.45701   0.00000  Uiso   1.00
C32    C     0.07092   0.20012   0.02817   0.00000  Uiso   1.00
C33    C     0.24273   0.23265   0.48268   0.00000  Uiso   1.00
C34    C     0.20416   0.31198   0.25801   0.00000  Uiso   1.00
C35    C     0.12944   0.02132   0.24148   0.00000  Uiso   1.00
C36    C     0.20425   0.02127   0.25783   0.00000  Uiso   1.00
F37    F     0.30609   0.11203   0.19594   0.00000  Uiso   1.00
F38    F     0.02749   0.22203   0.30317   0.00000  Uiso   1.00
H39    H     0.03299   0.20227   0.04715   0.00000  Uiso   1.00
H40    H     0.10036   0.29583   0.23503   0.00000  Uiso   1.00
H41    H     0.05896   0.11749   0.20170   0.00000  Uiso   1.00
H42    H     0.27442   0.21599   0.29813   0.00000  Uiso   1.00
H43    H     0.28533   0.25045   0.17701   0.00000  Uiso   1.00
H44    H     0.23607   0.26397   0.15866   0.00000  Uiso   1.00
H45    H     0.29690   0.27928   0.12512   0.00000  Uiso   1.00
H46    H     0.02017   0.12562   0.39883   0.00000  Uiso   1.00
H47    H     0.31288   0.15782   0.38203   0.00000  Uiso   1.00
H48    H     0.31450   0.16274   0.43921   0.00000  Uiso   1.00
H49    H     0.05391   0.26893   0.41551   0.00000  Uiso   1.00
H50    H     0.27514   0.24918   0.46515   0.00000  Uiso   1.00
H51    H     0.06075   0.27999   0.47095   0.00000  Uiso   1.00
H52    H     0.00585   0.29051   0.46123   0.00000  Uiso   1.00
H53    H     0.29796   0.32677   0.04458   0.00000  Uiso   1.00
H54    H     0.24311   0.30642   0.08341   0.00000  Uiso   1.00
H55    H     0.25386   0.30782   0.02182   0.00000  Uiso   1.00
H56    H     0.14648   0.16276   0.10670   0.00000  Uiso   1.00
H57    H     0.19024   0.17806   0.39142   0.00000  Uiso   1.00
H58    H     0.08911   0.19771   0.08912   0.00000  Uiso   1.00
H59    H     0.22715   0.22614   0.42057   0.00000  Uiso   1.00
H60    H     0.23315   0.29575   0.26465   0.00000  Uiso   1.00
H61    H     0.10049   0.03755   0.23476   0.00000  Uiso   1.00
H62    H     0.23328   0.03746   0.26440   0.00000  Uiso   1.00
N63    N     0.04759   0.16668   0.25001   0.00000  Uiso   1.00
N64    N     0.28574   0.16666   0.24999   0.00000  Uiso   1.00
O65    O     0.12846   0.22775   0.25001   0.00000  Uiso   1.00
O66    O     0.03856   0.18830   0.38635   0.00000  Uiso   1.00
O67    O     0.01865   0.22804   0.46973   0.00000  Uiso   1.00
O68    O     0.29297   0.26304   0.04320   0.00000  Uiso   1.00
O69    O     0.20488   0.10558   0.25000   0.00000  Uiso   1.00
O70    O     0.20490   0.22774   0.25000   0.00000  Uiso   1.00
O71    O     0.12843   0.10559   0.25000   0.00000  Uiso   1.00
O72    O     0.10661   0.16667   0.31613   0.00000  Uiso   1.00
O73    O     0.22672   0.16666   0.18388   0.00000  Uiso   1.00
O74    O     0.18305   0.16666   0.31612   0.00000  Uiso   1.00
O75    O     0.15028   0.16667   0.18388   0.00000  Uiso   1.00
O76    O     0.28290   0.21641   0.12159   0.00000  Uiso   1.00
Zn77   Zn    0.11562   0.16667   0.25000   0.00000  Uiso   1.00
Zn78   Zn    0.21771   0.16666   0.25000   0.00000  Uiso   1.00
C79    C     0.49994   0.24664   0.25015   0.00000  Uiso   1.00
C80    C     0.46268   0.31202   0.24165   0.00000  Uiso   1.00
C81    C     0.50016   0.04249   0.24969   0.00000  Uiso   1.00
C82    C     0.49999   0.29081   0.25001   0.00000  Uiso   1.00
C83    C     0.65225   0.13938   0.22310   0.00000  Uiso   1.00
C84    C     0.34782   0.19416   0.27664   0.00000  Uiso   1.00
C85    C     0.36670   0.13936   0.22320   0.00000  Uiso   1.00
C86    C     0.63332   0.19404   0.27671   0.00000  Uiso   1.00
C87    C     0.47048   0.16814   0.33765   0.00000  Uiso   1.00
C88    C     0.52924   0.16952   0.16261   0.00000  Uiso   1.00
C89    C     0.45271   0.17699   0.38698   0.00000  Uiso   1.00
C90    C     0.50005   0.08669   0.24987   0.00000  Uiso   1.00
C91    C     0.54418   0.18526   0.11556   0.00000  Uiso   1.00
C92    C     0.39001   0.20101   0.45515   0.00000  Uiso   1.00
C93    C     0.59166   0.23256   0.05633   0.00000  Uiso   1.00
C94    C     0.40390   0.18597   0.41007   0.00000  Uiso   1.00
C95    C     0.58404   0.21182   0.09826   0.00000  Uiso   1.00
C96    C     0.48586   0.18301   0.40966   0.00000  Uiso   1.00
C97    C     0.51140   0.18182   0.09236   0.00000  Uiso   1.00
C98    C     0.47038   0.19405   0.45611   0.00000  Uiso   1.00
C99    C     0.51964   0.20122   0.05028   0.00000  Uiso   1.00
C100   C     0.42107   0.19756   0.48020   0.00000  Uiso   1.00
C101   C     0.43646   0.19727   0.05193   0.00000  Uiso   1.00
C102   C     0.56290   0.22255   0.02950   0.00000  Uiso   1.00
C103   C     0.50237   0.20283   0.47945   0.00000  Uiso   1.00
C104   C     0.48602   0.19915   0.02766   0.00000  Uiso   1.00
C105   C     0.60770   0.25428   0.14630   0.00000  Uiso   1.00
C106   C     0.33693   0.15712   0.40278   0.00000  Uiso   1.00
C107   C     0.36934   0.26828   0.45351   0.00000  Uiso   1.00
C108   C     0.60376   0.30241   0.04864   0.00000  Uiso   1.00
C109   C     0.54812   0.21942   0.45701   0.00000  Uiso   1.00
C110   C     0.40425   0.20012   0.02817   0.00000  Uiso   1.00
C111   C     0.57607   0.23265   0.48268   0.00000  Uiso   1.00
C112   C     0.53749   0.31198   0.25801   0.00000  Uiso   1.00
C113   C     0.46277   0.02132   0.24148   0.00000  Uiso   1.00
C114   C     0.53759   0.02127   0.25783   0.00000  Uiso   1.00
F115   F     0.63943   0.11203   0.19594   0.00000  Uiso   1.00
F116   F     0.36082   0.22203   0.30317   0.00000  Uiso   1.00
H117   H     0.36633   0.20227   0.04715   0.00000  Uiso   1.00
H118   H     0.43369   0.29583   0.23503   0.00000  Uiso   1.00
H119   H     0.39230   0.11749   0.20170   0.00000  Uiso   1.00
H120   H     0.60775   0.21599   0.29813   0.00000  Uiso   1.00
H121   H     0.61867   0.25045   0.17701   0.00000  Uiso   1.00
H122   H     0.56940   0.26397   0.15866   0.00000  Uiso   1.00
H123   H     0.63023   0.27928   0.12512   0.00000  Uiso   1.00
H124   H     0.35350   0.12562   0.39883   0.00000  Uiso   1.00
H125   H     0.64621   0.15782   0.38203   0.00000  Uiso   1.00
H126   H     0.64783   0.16274   0.43921   0.00000  Uiso   1.00
H127   H     0.38724   0.26893   0.41551   0.00000  Uiso   1.00
H128   H     0.60847   0.24918   0.46515   0.00000  Uiso   1.00
H129   H     0.39408   0.27999   0.47095   0.00000  Uiso   1.00
H130   H     0.33918   0.29051   0.46123   0.00000  Uiso   1.00
H131   H     0.63129   0.32677   0.04458   0.00000  Uiso   1.00
H132   H     0.57644   0.30642   0.08341   0.00000  Uiso   1.00
H133   H     0.58720   0.30782   0.02182   0.00000  Uiso   1.00
H134   H     0.47981   0.16276   0.10670   0.00000  Uiso   1.00
H135   H     0.52358   0.17806   0.39142   0.00000  Uiso   1.00
H136   H     0.42244   0.19771   0.08912   0.00000  Uiso   1.00
H137   H     0.56048   0.22614   0.42057   0.00000  Uiso   1.00
H138   H     0.56648   0.29575   0.26465   0.00000  Uiso   1.00
H139   H     0.43383   0.03755   0.23476   0.00000  Uiso   1.00
H140   H     0.56662   0.03746   0.26440   0.00000  Uiso   1.00
N141   N     0.38093   0.16668   0.25001   0.00000  Uiso   1.00
N142   N     0.61907   0.16666   0.24999   0.00000  Uiso   1.00
O143   O     0.46179   0.22775   0.25001   0.00000  Uiso   1.00
O144   O     0.37189   0.18830   0.38635   0.00000  Uiso   1.00
O145   O     0.35198   0.22804   0.46973   0.00000  Uiso   1.00
O146   O     0.62630   0.26304   0.04320   0.00000  Uiso   1.00
O147   O     0.53821   0.10558   0.25000   0.00000  Uiso   1.00
O148   O     0.53823   0.22774   0.25000   0.00000  Uiso   1.00
O149   O     0.46177   0.10559   0.25000   0.00000  Uiso   1.00
O150   O     0.43994   0.16667   0.31613   0.00000  Uiso   1.00
O151   O     0.56006   0.16666   0.18388   0.00000  Uiso   1.00
O152   O     0.51639   0.16666   0.31612   0.00000  Uiso   1.00
O153   O     0.48361   0.16667   0.18388   0.00000  Uiso   1.00
O154   O     0.61623   0.21641   0.12159   0.00000  Uiso   1.00
Zn155  Zn    0.44896   0.16667   0.25000   0.00000  Uiso   1.00
Zn156  Zn    0.55104   0.16666   0.25000   0.00000  Uiso   1.00
C157   C     0.83328   0.24664   0.25015   0.00000  Uiso   1.00
C158   C     0.79602   0.31202   0.24165   0.00000  Uiso   1.00
C159   C     0.83349   0.04249   0.24969   0.00000  Uiso   1.00
C160   C     0.83332   0.29081   0.25001   0.00000  Uiso   1.00
C161   C     0.98558   0.13938   0.22310   0.00000  Uiso   1.00
C162   C     0.68116   0.19416   0.27664   0.00000  Uiso   1.00
C163   C     0.70003   0.13936   0.22320   0.00000  Uiso   1.00
C164   C     0.96666   0.19404   0.27671   0.00000  Uiso   1.00
C165   C     0.80382   0.16814   0.33765   0.00000  Uiso   1.00
C166   C     0.86258   0.16952   0.16261   0.00000  Uiso   1.00
C167   C     0.78604   0.17699   0.38698   0.00000  Uiso   1.00
C168   C     0.83339   0.08669   0.24987   0.00000  Uiso   1.00
C169   C     0.87751   0.18526   0.11556   0.00000  Uiso   1.00
C170   C     0.72334   0.20101   0.45515   0.00000  Uiso   1.00
C171   C     0.92499   0.23256   0.05633   0.00000  Uiso   1.00
C172   C     0.73723   0.18597   0.41007   0.00000  Uiso   1.00
C173   C     0.91738   0.21182   0.09826   0.00000  Uiso   1.00
C174   C     0.81920   0.18301   0.40966   0.00000  Uiso   1.00
C175   C     0.84474   0.18182   0.09236   0.00000  Uiso   1.00
C176   C     0.80371   0.19405   0.45611   0.00000  Uiso   1.00
C177   C     0.85297   0.20122   0.05028   0.00000  Uiso   1.00
C178   C     0.75440   0.19756   0.48020   0.00000  Uiso   1.00
C179   C     0.76980   0.19727   0.05193   0.00000  Uiso   1.00
C180   C     0.89624   0.22255   0.02950   0.00000  Uiso   1.00
C181   C     0.83570   0.20283   0.47945   0.00000  Uiso   1.00
C182   C     0.81935   0.19915   0.02766   0.00000  Uiso   1.00
C183   C     0.94103   0.25428   0.14630   0.00000  Uiso   1.00
C184   C     0.67026   0.15712   0.40278   0.00000  Uiso   1.00
C185   C     0.70268   0.26828   0.45351   0.00000  Uiso   1.00
C186   C     0.93709   0.30241   0.04864   0.00000  Uiso   1.00
C187   C     0.88145   0.21942   0.45701   0.00000  Uiso   1.00
C188   C     0.73759   0.20012   0.02817   0.00000  Uiso   1.00
C189   C     0.90940   0.23265   0.48268   0.00000  Uiso   1.00
C190   C     0.87082   0.31198   0.25801   0.00000  Uiso   1.00
C191   C     0.79611   0.02132   0.24148   0.00000  Uiso   1.00
C192   C     0.87092   0.02127   0.25783   0.00000  Uiso   1.00
F193   F     0.97276   0.11203   0.19594   0.00000  Uiso   1.00
F194   F     0.69416   0.22203   0.30317   0.00000  Uiso   1.00
H195   H     0.69966   0.20227   0.04715   0.00000  Uiso   1.00
H196   H     0.76702   0.29583   0.23503   0.00000  Uiso   1.00
H197   H     0.72563   0.11749   0.20170   0.00000  Uiso   1.00
H198   H     0.94109   0.21599   0.29813   0.00000  Uiso   1.00
H199   H     0.95200   0.25045   0.17701   0.00000  Uiso   1.00
H200   H     0.90274   0.26397   0.15866   0.00000  Uiso   1.00
H201   H     0.96356   0.27928   0.12512   0.00000  Uiso   1.00
H202   H     0.68684   0.12562   0.39883   0.00000  Uiso   1.00
H203   H     0.97955   0.15782   0.38203   0.00000  Uiso   1.00
H204   H     0.98117   0.16274   0.43921   0.00000  Uiso   1.00
H205   H     0.72058   0.26893   0.41551   0.00000  Uiso   1.00
H206   H     0.94181   0.24918   0.46515   0.00000  Uiso   1.00
H207   H     0.72741   0.27999   0.47095   0.00000  Uiso   1.00
H208   H     0.67252   0.29051   0.46123   0.00000  Uiso   1.00
H209   H     0.96463   0.32677   0.04458   0.00000  Uiso   1.00
H210   H     0.90978   0.30642   0.08341   0.00000  Uiso   1.00
H211   H     0.92053   0.30782   0.02182   0.00000  Uiso   1.00
H212   H     0.81314   0.16276   0.10670   0.00000  Uiso   1.00
H213   H     0.85691   0.17806   0.39142   0.00000  Uiso   1.00
H214   H     0.75578   0.19771   0.08912   0.00000  Uiso   1.00
H215   H     0.89382   0.22614   0.42057   0.00000  Uiso   1.00
H216   H     0.89981   0.29575   0.26465   0.00000  Uiso   1.00
H217   H     0.76716   0.03755   0.23476   0.00000  Uiso   1.00
H218   H     0.89995   0.03746   0.26440   0.00000  Uiso   1.00
N219   N     0.71426   0.16668   0.25001   0.00000  Uiso   1.00
N220   N     0.95241   0.16666   0.24999   0.00000  Uiso   1.00
O221   O     0.79512   0.22775   0.25001   0.00000  Uiso   1.00
O222   O     0.70522   0.18830   0.38635   0.00000  Uiso   1.00
O223   O     0.68532   0.22804   0.46973   0.00000  Uiso   1.00
O224   O     0.95963   0.26304   0.04320   0.00000  Uiso   1.00
O225   O     0.87154   0.10558   0.25000   0.00000  Uiso   1.00
O226   O     0.87157   0.22774   0.25000   0.00000  Uiso   1.00
O227   O     0.79510   0.10559   0.25000   0.00000  Uiso   1.00
O228   O     0.77328   0.16667   0.31613   0.00000  Uiso   1.00
O229   O     0.89339   0.16666   0.18388   0.00000  Uiso   1.00
O230   O     0.84972   0.16666   0.31612   0.00000  Uiso   1.00
O231   O     0.81695   0.16667   0.18388   0.00000  Uiso   1.00
O232   O     0.94956   0.21641   0.12159   0.00000  Uiso   1.00
Zn233  Zn    0.78229   0.16667   0.25000   0.00000  Uiso   1.00
Zn234  Zn    0.88438   0.16666   0.25000   0.00000  Uiso   1.00
C235   C     0.16661   0.57997   0.25015   0.00000  Uiso   1.00
C236   C     0.12935   0.64536   0.24165   0.00000  Uiso   1.00
C237   C     0.16683   0.37583   0.24969   0.00000  Uiso   1.00
C238   C     0.16666   0.62415   0.25001   0.00000  Uiso   1.00
C239   C     0.31891   0.47272   0.22310   0.00000  Uiso   1.00
C240   C     0.01449   0.52749   0.27664   0.00000  Uiso   1.00
C241   C     0.03337   0.47270   0.22320   0.00000  Uiso   1.00
C242   C     0.29999   0.52738   0.27671   0.00000  Uiso   1.00
C243   C     0.13715   0.50147   0.33765   0.00000  Uiso   1.00
C244   C     0.19591   0.50286   0.16261   0.00000  Uiso   1.00
C245   C     0.11937   0.51033   0.38698   0.00000  Uiso   1.00
C246   C     0.16672   0.42002   0.24987   0.00000  Uiso   1.00
C247   C     0.21085   0.51859   0.11556   0.00000  Uiso   1.00
C248   C     0.05667   0.53435   0.45515   0.00000  Uiso   1.00
C249   C     0.25833   0.56590   0.05633   0.00000  Uiso   1.00
C250   C     0.07057   0.51930   0.41007   0.00000  Uiso   1.00
C251   C     0.25071   0.54515   0.09826   0.00000  Uiso   1.00
C252   C     0.15253   0.51634   0.40966   0.00000  Uiso   1.00
C253   C     0.17807   0.51516   0.09236   0.00000  Uiso   1.00
C254   C     0.13704   0.52738   0.45611   0.00000  Uiso   1.00
C255   C     0.18630   0.53455   0.05028   0.00000  Uiso   1.00
C256   C     0.08774   0.53090   0.48020   0.00000  Uiso   1.00
C257   C     0.10313   0.53061   0.05193   0.00000  Uiso   1.00
C258   C     0.22957   0.55588   0.02950   0.00000  Uiso   1.00
C259   C     0.16903   0.53616   0.47945   0.00000  Uiso   1.00
C260   C     0.15268   0.53248   0.02766   0.00000  Uiso   1.00
C261   C     0.27436   0.58761   0.14630   0.00000  Uiso   1.00
C262   C     0.00359   0.49046   0.40278   0.00000  Uiso   1.00
C263   C     0.03601   0.60161   0.45351   0.00000  Uiso   1.00
C264   C     0.27043   0.63574   0.04864   0.00000  Uiso   1.00
C265   C     0.21479   0.55276   0.45701   0.00000  Uiso   1.00
C266   C     0.07092   0.53346   0.02817   0.00000  Uiso   1.00
C267   C     0.24273   0.56598   0.48268   0.00000  Uiso   1.00
C268   C     0.20416   0.64532   0.25801   0.00000  Uiso   1.00
C269   C     0.12944   0.35465   0.24148   0.00000  Uiso   1.00
C270   C     0.20425   0.35460   0.25783   0.00000  Uiso   1.00
F271   F     0.30609   0.44537   0.19594   0.00000  Uiso   1.00
F272   F     0.02749   0.55537   0.30317   0.00000  Uiso   1.00
H273   H     0.03299   0.53560   0.04715   0.00000  Uiso   1.00
H274   H     0.10036   0.62916   0.23503   0.00000  Uiso   1.00
H275   H     0.05896   0.45082   0.20170   0.00000  Uiso   1.00
H276   H     0.27442   0.54932   0.29813   0.00000  Uiso   1.00
H277   H     0.28533   0.58378   0.17701   0.00000  Uiso   1.00
H278   H     0.23607   0.59731   0.15866   0.00000  Uiso   1.00
H279   H     0.29690   0.61262   0.12512   0.00000  Uiso   1.00
H280   H     0.02017   0.45895   0.39883   0.00000  Uiso   1.00
H281   H     0.31288   0.49115   0.38203   0.00000  Uiso   1.00
H282   H     0.31450   0.49608   0.43921   0.00000  Uiso   1.00
H283   H     0.05391   0.60226   0.41551   0.00000  Uiso   1.00
H284   H     0.27514   0.58251   0.46515   0.00000  Uiso   1.00
H285   H     0.06075   0.61332   0.47095   0.00000  Uiso   1.00
H286   H     0.00585   0.62384   0.46123   0.00000  Uiso   1.00
H287   H     0.29796   0.66010   0.04458   0.00000  Uiso   1.00
H288   H     0.24311   0.63975   0.08341   0.00000  Uiso   1.00
H289   H     0.25386   0.64115   0.02182   0.00000  Uiso   1.00
H290   H     0.14648   0.49609   0.10670   0.00000  Uiso   1.00
H291   H     0.19024   0.51139   0.39142   0.00000  Uiso   1.00
H292   H     0.08911   0.53105   0.08912   0.00000  Uiso   1.00
H293   H     0.22715   0.55947   0.42057   0.00000  Uiso   1.00
H294   H     0.23315   0.62909   0.26465   0.00000  Uiso   1.00
H295   H     0.10049   0.37088   0.23476   0.00000  Uiso   1.00
H296   H     0.23328   0.37079   0.26440   0.00000  Uiso   1.00
N297   N     0.04759   0.50001   0.25001   0.00000  Uiso   1.00
N298   N     0.28574   0.49999   0.24999   0.00000  Uiso   1.00
O299   O     0.12846   0.56108   0.25001   0.00000  Uiso   1.00
O300   O     0.03856   0.52163   0.38635   0.00000  Uiso   1.00
O301   O     0.01865   0.56138   0.46973   0.00000  Uiso   1.00
O302   O     0.29297   0.59637   0.04320   0.00000  Uiso   1.00
O303   O     0.20488   0.43892   0.25000   0.00000  Uiso   1.00
O304   O     0.20490   0.56107   0.25000   0.00000  Uiso   1.00
O305   O     0.12843   0.43893   0.25000   0.00000  Uiso   1.00
O306   O     0.10661   0.50001   0.31613   0.00000  Uiso   1.00
O307   O     0.22672   0.49999   0.18388   0.00000  Uiso   1.00
O308   O     0.18305   0.50000   0.31612   0.00000  Uiso   1.00
O309   O     0.15028   0.50000   0.18388   0.00000  Uiso   1.00
O310   O     0.28290   0.54974   0.12159   0.00000  Uiso   1.00
Zn311  Zn    0.11562   0.50001   0.25000   0.00000  Uiso   1.00
Zn312  Zn    0.21771   0.49999   0.25000   0.00000  Uiso   1.00
C313   C     0.49994   0.57997   0.25015   0.00000  Uiso   1.00
C314   C     0.46268   0.64536   0.24165   0.00000  Uiso   1.00
C315   C     0.50016   0.37583   0.24969   0.00000  Uiso   1.00
C316   C     0.49999   0.62415   0.25001   0.00000  Uiso   1.00
C317   C     0.65225   0.47272   0.22310   0.00000  Uiso   1.00
C318   C     0.34782   0.52749   0.27664   0.00000  Uiso   1.00
C319   C     0.36670   0.47270   0.22320   0.00000  Uiso   1.00
C320   C     0.63332   0.52738   0.27671   0.00000  Uiso   1.00
C321   C     0.47048   0.50147   0.33765   0.00000  Uiso   1.00
C322   C     0.52924   0.50286   0.16261   0.00000  Uiso   1.00
C323   C     0.45271   0.51033   0.38698   0.00000  Uiso   1.00
C324   C     0.50005   0.42002   0.24987   0.00000  Uiso   1.00
C325   C     0.54418   0.51859   0.11556   0.00000  Uiso   1.00
C326   C     0.39001   0.53435   0.45515   0.00000  Uiso   1.00
C327   C     0.59166   0.56590   0.05633   0.00000  Uiso   1.00
C328   C     0.40390   0.51930   0.41007   0.00000  Uiso   1.00
C329   C     0.58404   0.54515   0.09826   0.00000  Uiso   1.00
C330   C     0.48586   0.51634   0.40966   0.00000  Uiso   1.00
C331   C     0.51140   0.51516   0.09236   0.00000  Uiso   1.00
C332   C     0.47038   0.52738   0.45611   0.00000  Uiso   1.00
C333   C     0.51964   0.53455   0.05028   0.00000  Uiso   1.00
C334   C     0.42107   0.53090   0.48020   0.00000  Uiso   1.00
C335   C     0.43646   0.53061   0.05193   0.00000  Uiso   1.00
C336   C     0.56290   0.55588   0.02950   0.00000  Uiso   1.00
C337   C     0.50237   0.53616   0.47945   0.00000  Uiso   1.00
C338   C     0.48602   0.53248   0.02766   0.00000  Uiso   1.00
C339   C     0.60770   0.58761   0.14630   0.00000  Uiso   1.00
C340   C     0.33693   0.49046   0.40278   0.00000  Uiso   1.00
C341   C     0.36934   0.60161   0.45351   0.00000  Uiso   1.00
C342   C     0.60376   0.63574   0.04864   0.00000  Uiso   1.00
C343   C     0.54812   0.55276   0.45701   0.00000  Uiso   1.00
C344   C     0.40425   0.53346   0.02817   0.00000  Uiso   1.00
C345   C     0.57607   0.56598   0.48268   0.00000  Uiso   1.00
C346   C     0.53749   0.64532   0.25801   0.00000  Uiso   1.00
C347   C     0.46277   0.35465   0.24148   0.00000  Uiso   1.00
C348   C     0.53759   0.35460   0.25783   0.00000  Uiso   1.00
F349   F     0.63943   0.44537   0.19594   0.00000  Uiso   1.00
F350   F     0.36082   0.55537   0.30317   0.00000  Uiso   1.00
H351   H     0.36633   0.53560   0.04715   0.00000  Uiso   1.00
H352   H     0.43369   0.62916   0.23503   0.00000  Uiso   1.00
H353   H     0.39230   0.45082   0.20170   0.00000  Uiso   1.00
H354   H     0.60775   0.54932   0.29813   0.00000  Uiso   1.00
H355   H     0.61867   0.58378   0.17701   0.00000  Uiso   1.00
H356   H     0.56940   0.59731   0.15866   0.00000  Uiso   1.00
H357   H     0.63023   0.61262   0.12512   0.00000  Uiso   1.00
H358   H     0.35350   0.45895   0.39883   0.00000  Uiso   1.00
H359   H     0.64621   0.49115   0.38203   0.00000  Uiso   1.00
H360   H     0.64783   0.49608   0.43921   0.00000  Uiso   1.00
H361   H     0.38724   0.60226   0.41551   0.00000  Uiso   1.00
H362   H     0.60847   0.58251   0.46515   0.00000  Uiso   1.00
H363   H     0.39408   0.61332   0.47095   0.00000  Uiso   1.00
H364   H     0.33918   0.62384   0.46123   0.00000  Uiso   1.00
H365   H     0.63129   0.66010   0.04458   0.00000  Uiso   1.00
H366   H     0.57644   0.63975   0.08341   0.00000  Uiso   1.00
H367   H     0.58720   0.64115   0.02182   0.00000  Uiso   1.00
H368   H     0.47981   0.49609   0.10670   0.00000  Uiso   1.00
H369   H     0.52358   0.51139   0.39142   0.00000  Uiso   1.00
H370   H     0.42244   0.53105   0.08912   0.00000  Uiso   1.00
H371   H     0.56048   0.55947   0.42057   0.00000  Uiso   1.00
H372   H     0.56648   0.62909   0.26465   0.00000  Uiso   1.00
H373   H     0.43383   0.37088   0.23476   0.00000  Uiso   1.00
H374   H     0.56662   0.37079   0.26440   0.00000  Uiso   1.00
N375   N     0.38093   0.50001   0.25001   0.00000  Uiso   1.00
N376   N     0.61907   0.49999   0.24999   0.00000  Uiso   1.00
O377   O     0.46179   0.56108   0.25001   0.00000  Uiso   1.00
O378   O     0.37189   0.52163   0.38635   0.00000  Uiso   1.00
O379   O     0.35198   0.56138   0.46973   0.00000  Uiso   1.00
O380   O     0.62630   0.59637   0.04320   0.00000  Uiso   1.00
O381   O     0.53821   0.43892   0.25000   0.00000  Uiso   1.00
O382   O     0.53823   0.56107   0.25000   0.00000  Uiso   1.00
O383   O     0.46177   0.43893   0.25000   0.00000  Uiso   1.00
O384   O     0.43994   0.50001   0.31613   0.00000  Uiso   1.00
O385   O     0.56006   0.49999   0.18388   0.00000  Uiso   1.00
O386   O     0.51639   0.50000   0.31612   0.00000  Uiso   1.00
O387   O     0.48361   0.50000   0.18388   0.00000  Uiso   1.00
O388   O     0.61623   0.54974   0.12159   0.00000  Uiso   1.00
Zn389  Zn    0.44896   0.50001   0.25000   0.00000  Uiso   1.00
Zn390  Zn    0.55104   0.49999   0.25000   0.00000  Uiso   1.00
C391   C     0.83328   0.57997   0.25015   0.00000  Uiso   1.00
C392   C     0.79602   0.64536   0.24165   0.00000  Uiso   1.00
C393   C     0.83349   0.37583   0.24969   0.00000  Uiso   1.00
C394   C     0.83332   0.62415   0.25001   0.00000  Uiso   1.00
C395   C     0.98558   0.47272   0.22310   0.00000  Uiso   1.00
C396   C     0.68116   0.52749   0.27664   0.00000  Uiso   1.00
C397   C     0.70003   0.47270   0.22320   0.00000  Uiso   1.00
C398   C     0.96666   0.52738   0.27671   0.00000  Uiso   1.00
C399   C     0.80382   0.50147   0.33765   0.00000  Uiso   1.00
C400   C     0.86258   0.50286   0.16261   0.00000  Uiso   1.00
C401   C     0.78604   0.51033   0.38698   0.00000  Uiso   1.00
C402   C     0.83339   0.42002   0.24987   0.00000  Uiso   1.00
C403   C     0.87751   0.51859   0.11556   0.00000  Uiso   1.00
C404   C     0.72334   0.53435   0.45515   0.00000  Uiso   1.00
C405   C     0.92499   0.56590   0.05633   0.00000  Uiso   1.00
C406   C     0.73723   0.51930   0.41007   0.00000  Uiso   1.00
C407   C     0.91738   0.54515   0.09826   0.00000  Uiso   1.00
C408   C     0.81920   0.51634   0.40966   0.00000  Uiso   1.00
C409   C     0.84474   0.51516   0.09236   0.00000  Uiso   1.00
C410   C     0.80371   0.52738   0.45611   0.00000  Uiso   1.00
C411   C     0.85297   0.53455   0.05028   0.00000  Uiso   1.00
C412   C     0.75440   0.53090   0.48020   0.00000  Uiso   1.00
C413   C     0.76980   0.53061   0.05193   0.00000  Uiso   1.00
C414   C     0.89624   0.55588   0.02950   0.00000  Uiso   1.00
C415   C     0.83570   0.53616   0.47945   0.00000  Uiso   1.00
C416   C     0.81935   0.53248   0.02766   0.00000  Uiso   1.00
C417   C     0.94103   0.58761   0.14630   0.00000  Uiso   1.00
C418   C     0.67026   0.49046   0.40278   0.00000  Uiso   1.00
C419   C     0.70268   0.60161   0.45351   0.00000  Uiso   1.00
C420   C     0.93709   0.63574   0.04864   0.00000  Uiso   1.00
C421   C     0.88145   0.55276   0.45701   0.00000  Uiso   1.00
C422   C     0.73759   0.53346   0.02817   0.00000  Uiso   1.00
C423   C     0.90940   0.56598   0.48268   0.00000  Uiso   1.00
C424   C     0.87082   0.64532   0.25801   0.00000  Uiso   1.00
C425   C     0.79611   0.35465   0.24148   0.00000  Uiso   1.00
C426   C     0.87092   0.35460   0.25783   0.00000  Uiso   1.00
F427   F     0.97276   0.44537   0.19594   0.00000  Uiso   1.00
F428   F     0.69416   0.55537   0.30317   0.00000  Uiso   1.00
H429   H     0.69966   0.53560   0.04715   0.00000  Uiso   1.00
H430   H     0.76702   0.62916   0.23503   0.00000  Uiso   1.00
H431   H     0.72563   0.45082   0.20170   0.00000  Uiso   1.00
H432   H     0.94109   0.54932   0.29813   0.00000  Uiso   1.00
H433   H     0.95200   0.58378   0.17701   0.00000  Uiso   1.00
H434   H     0.90274   0.59731   0.15866   0.00000  Uiso   1.00
H435   H     0.96356   0.61262   0.12512   0.00000  Uiso   1.00
H436   H     0.68684   0.45895   0.39883   0.00000  Uiso   1.00
H437   H     0.97955   0.49115   0.38203   0.00000  Uiso   1.00
H438   H     0.98117   0.49608   0.43921   0.00000  Uiso   1.00
H439   H     0.72058   0.60226   0.41551   0.00000  Uiso   1.00
H440   H     0.94181   0.58251   0.46515   0.00000  Uiso   1.00
H441   H     0.72741   0.61332   0.47095   0.00000  Uiso   1.00
H442   H     0.67252   0.62384   0.46123   0.00000  Uiso   1.00
H443   H     0.96463   0.66010   0.04458   0.00000  Uiso   1.00
H444   H     0.90978   0.63975   0.08341   0.00000  Uiso   1.00
H445   H     0.92053   0.64115   0.02182   0.00000  Uiso   1.00
H446   H     0.81314   0.49609   0.10670   0.00000  Uiso   1.00
H447   H     0.85691   0.51139   0.39142   0.00000  Uiso   1.00
H448   H     0.75578   0.53105   0.08912   0.00000  Uiso   1.00
H449   H     0.89382   0.55947   0.42057   0.00000  Uiso   1.00
H450   H     0.89981   0.62909   0.26465   0.00000  Uiso   1.00
H451   H     0.76716   0.37088   0.23476   0.00000  Uiso   1.00
H452   H     0.89995   0.37079   0.26440   0.00000  Uiso   1.00
N453   N     0.71426   0.50001   0.25001   0.00000  Uiso   1.00
N454   N     0.95241   0.49999   0.24999   0.00000  Uiso   1.00
O455   O     0.79512   0.56108   0.25001   0.00000  Uiso   1.00
O456   O     0.70522   0.52163   0.38635   0.00000  Uiso   1.00
O457   O     0.68532   0.56138   0.46973   0.00000  Uiso   1.00
O458   O     0.95963   0.59637   0.04320   0.00000  Uiso   1.00
O459   O     0.87154   0.43892   0.25000   0.00000  Uiso   1.00
O460   O     0.87157   0.56107   0.25000   0.00000  Uiso   1.00
O461   O     0.79510   0.43893   0.25000   0.00000  Uiso   1.00
O462   O     0.77328   0.50001   0.31613   0.00000  Uiso   1.00
O463   O     0.89339   0.49999   0.18388   0.00000  Uiso   1.00
O464   O     0.84972   0.50000   0.31612   0.00000  Uiso   1.00
O465   O     0.81695   0.50000   0.18388   0.00000  Uiso   1.00
O466   O     0.94956   0.54974   0.12159   0.00000  Uiso   1.00
Zn467  Zn    0.78229   0.50001   0.25000   0.00000  Uiso   1.00
Zn468  Zn    0.88438   0.49999   0.25000   0.00000  Uiso   1.00
C469   C     0.16661   0.91330   0.25015   0.00000  Uiso   1.00
C470   C     0.12935   0.97869   0.24165   0.00000  Uiso   1.00
C471   C     0.16683   0.70916   0.24969   0.00000  Uiso   1.00
C472   C     0.16666   0.95748   0.25001   0.00000  Uiso   1.00
C473   C     0.31891   0.80605   0.22310   0.00000  Uiso   1.00
C474   C     0.01449   0.86082   0.27664   0.00000  Uiso   1.00
C475   C     0.03337   0.80603   0.22320   0.00000  Uiso   1.00
C476   C     0.29999   0.86071   0.27671   0.00000  Uiso   1.00
C477   C     0.13715   0.83480   0.33765   0.00000  Uiso   1.00
C478   C     0.19591   0.83619   0.16261   0.00000  Uiso   1.00
C479   C     0.11937   0.84366   0.38698   0.00000  Uiso   1.00
C480   C     0.16672   0.75335   0.24987   0.00000  Uiso   1.00
C481   C     0.21085   0.85193   0.11556   0.00000  Uiso   1.00
C482   C     0.05667   0.86768   0.45515   0.00000  Uiso   1.00
C483   C     0.25833   0.89923   0.05633   0.00000  Uiso   1.00
C484   C     0.07057   0.85263   0.41007   0.00000  Uiso   1.00
C485   C     0.25071   0.87849   0.09826   0.00000  Uiso   1.00
C486   C     0.15253   0.84968   0.40966   0.00000  Uiso   1.00
C487   C     0.17807   0.84849   0.09236   0.00000  Uiso   1.00
C488   C     0.13704   0.86071   0.45611   0.00000  Uiso   1.00
C489   C     0.18630   0.86789   0.05028   0.00000  Uiso   1.00
C490   C     0.08774   0.86423   0.48020   0.00000  Uiso   1.00
C491   C     0.10313   0.86394   0.05193   0.00000  Uiso   1.00
C492   C     0.22957   0.88921   0.02950   0.00000  Uiso   1.00
C493   C     0.16903   0.86950   0.47945   0.00000  Uiso   1.00
C494   C     0.15268   0.86581   0.02766   0.00000  Uiso   1.00
C495   C     0.27436   0.92094   0.14630   0.00000  Uiso   1.00
C496   C     0.00359   0.82379   0.40278   0.00000  Uiso   1.00
C497   C     0.03601   0.93494   0.45351   0.00000  Uiso   1.00
C498   C     0.27043   0.96908   0.04864   0.00000  Uiso   1.00
C499   C     0.21479   0.88609   0.45701   0.00000  Uiso   1.00
C500   C     0.07092   0.86679   0.02817   0.00000  Uiso   1.00
C501   C     0.24273   0.89932   0.48268   0.00000  Uiso   1.00
C502   C     0.20416   0.97865   0.25801   0.00000  Uiso   1.00
C503   C     0.12944   0.68798   0.24148   0.00000  Uiso   1.00
C504   C     0.20425   0.68794   0.25783   0.00000  Uiso   1.00
F505   F     0.30609   0.77870   0.19594   0.00000  Uiso   1.00
F506   F     0.02749   0.88870   0.30317   0.00000  Uiso   1.00
H507   H     0.03299   0.86893   0.04715   0.00000  Uiso   1.00
H508   H     0.10036   0.96249   0.23503   0.00000  Uiso   1.00
H509   H     0.05896   0.78416   0.20170   0.00000  Uiso   1.00
H510   H     0.27442   0.88265   0.29813   0.00000  Uiso   1.00
H511   H     0.28533   0.91711   0.17701   0.00000  Uiso   1.00
H512   H     0.23607   0.93064   0.15866   0.00000  Uiso   1.00
H513   H     0.29690   0.94595   0.12512   0.00000  Uiso   1.00
H514   H     0.02017   0.79229   0.39883   0.00000  Uiso   1.00
H515   H     0.31288   0.82448   0.38203   0.00000  Uiso   1.00
H516   H     0.31450   0.82941   0.43921   0.00000  Uiso   1.00
H517   H     0.05391   0.93560   0.41551   0.00000  Uiso   1.00
H518   H     0.27514   0.91585   0.46515   0.00000  Uiso   1.00
H519   H     0.06075   0.94665   0.47095   0.00000  Uiso   1.00
H520   H     0.00585   0.95717   0.46123   0.00000  Uiso   1.00
H521   H     0.29796   0.99344   0.04458   0.00000  Uiso   1.00
H522   H     0.24311   0.97308   0.08341   0.00000  Uiso   1.00
H523   H     0.25386   0.97448   0.02182   0.00000  Uiso   1.00
H524   H     0.14648   0.82943   0.10670   0.00000  Uiso   1.00
H525   H     0.19024   0.84473   0.39142   0.00000  Uiso   1.00
H526   H     0.08911   0.86438   0.08912   0.00000  Uiso   1.00
H527   H     0.22715   0.89280   0.42057   0.00000  Uiso   1.00
H528   H     0.23315   0.96242   0.26465   0.00000  Uiso   1.00
H529   H     0.10049   0.70421   0.23476   0.00000  Uiso   1.00
H530   H     0.23328   0.70412   0.26440   0.00000  Uiso   1.00
N531   N     0.04759   0.83334   0.25001   0.00000  Uiso   1.00
N532   N     0.28574   0.83332   0.24999   0.00000  Uiso   1.00
O533   O     0.12846   0.89442   0.25001   0.00000  Uiso   1.00
O534   O     0.03856   0.85496   0.38635   0.00000  Uiso   1.00
O535   O     0.01865   0.89471   0.46973   0.00000  Uiso   1.00
O536   O     0.29297   0.92971   0.04320   0.00000  Uiso   1.00
O537   O     0.20488   0.77225   0.25000   0.00000  Uiso   1.00
O538   O     0.20490   0.89441   0.25000   0.00000  Uiso   1.00
O539   O     0.12843   0.77226   0.25000   0.00000  Uiso   1.00
O540   O     0.10661   0.83334   0.31613   0.00000  Uiso   1.00
O541   O     0.22672   0.83333   0.18388   0.00000  Uiso   1.00
O542   O     0.18305   0.83333   0.31612   0.00000  Uiso   1.00
O543   O     0.15028   0.83334   0.18388   0.00000  Uiso   1.00
O544   O     0.28290   0.88308   0.12159   0.00000  Uiso   1.00
Zn545  Zn    0.11562   0.83334   0.25000   0.00000  Uiso   1.00
Zn546  Zn    0.21771   0.83333   0.25000   0.00000  Uiso   1.00
C547   C     0.49994   0.91330   0.25015   0.00000  Uiso   1.00
C548   C     0.46268   0.97869   0.24165   0.00000  Uiso   1.00
C549   C     0.50016   0.70916   0.24969   0.00000  Uiso   1.00
C550   C     0.49999   0.95748   0.25001   0.00000  Uiso   1.00
C551   C     0.65225   0.80605   0.22310   0.00000  Uiso   1.00
C552   C     0.34782   0.86082   0.27664   0.00000  Uiso   1.00
C553   C     0.36670   0.80603   0.22320   0.00000  Uiso   1.00
C554   C     0.63332   0.86071   0.27671   0.00000  Uiso   1.00
C555   C     0.47048   0.83480   0.33765   0.00000  Uiso   1.00
C556   C     0.52924   0.83619   0.16261   0.00000  Uiso   1.00
C557   C     0.45271   0.84366   0.38698   0.00000  Uiso   1.00
C558   C     0.50005   0.75335   0.24987   0.00000  Uiso   1.00
C559   C     0.54418   0.85193   0.11556   0.00000  Uiso   1.00
C560   C     0.39001   0.86768   0.45515   0.00000  Uiso   1.00
C561   C     0.59166   0.89923   0.05633   0.00000  Uiso   1.00
C562   C     0.40390   0.85263   0.41007   0.00000  Uiso   1.00
C563   C     0.58404   0.87849   0.09826   0.00000  Uiso   1.00
C564   C     0.48586   0.84968   0.40966   0.00000  Uiso   1.00
C565   C     0.51140   0.84849   0.09236   0.00000  Uiso   1.00
C566   C     0.47038   0.86071   0.45611   0.00000  Uiso   1.00
C567   C     0.51964   0.86789   0.05028   0.00000  Uiso   1.00
C568   C     0.42107   0.86423   0.48020   0.00000  Uiso   1.00
C569   C     0.43646   0.86394   0.05193   0.00000  Uiso   1.00
C570   C     0.56290   0.88921   0.02950   0.00000  Uiso   1.00
C571   C     0.50237   0.86950   0.47945   0.00000  Uiso   1.00
C572   C     0.48602   0.86581   0.02766   0.00000  Uiso   1.00
C573   C     0.60770   0.92094   0.14630   0.00000  Uiso   1.00
C574   C     0.33693   0.82379   0.40278   0.00000  Uiso   1.00
C575   C     0.36934   0.93494   0.45351   0.00000  Uiso   1.00
C576   C     0.60376   0.96908   0.04864   0.00000  Uiso   1.00
C577   C     0.54812   0.88609   0.45701   0.00000  Uiso   1.00
C578   C     0.40425   0.86679   0.02817   0.00000  Uiso   1.00
C579   C     0.57607   0.89932   0.48268   0.00000  Uiso   1.00
C580   C     0.53749   0.97865   0.25801   0.00000  Uiso   1.00
C581   C     0.46277   0.68798   0.24148   0.00000  Uiso   1.00
C582   C     0.53759   0.68794   0.25783   0.00000  Uiso   1.00
F583   F     0.63943   0.77870   0.19594   0.00000  Uiso   1.00
F584   F     0.36082   0.88870   0.30317   0.00000  Uiso   1.00
H585   H     0.36633   0.86893   0.04715   0.00000  Uiso   1.00
H586   H     0.43369   0.96249   0.23503   0.00000  Uiso   1.00
H587   H     0.39230   0.78416   0.20170   0.00000  Uiso   1.00
H588   H     0.60775   0.88265   0.29813   0.00000  Uiso   1.00
H589   H     0.61867   0.91711   0.17701   0.00000  Uiso   1.00
H590   H     0.56940   0.93064   0.15866   0.00000  Uiso   1.00
H591   H     0.63023   0.94595   0.12512   0.00000  Uiso   1.00
H592   H     0.35350   0.79229   0.39883   0.00000  Uiso   1.00
H593   H     0.64621   0.82448   0.38203   0.00000  Uiso   1.00
H594   H     0.64783   0.82941   0.43921   0.00000  Uiso   1.00
H595   H     0.38724   0.93560   0.41551   0.00000  Uiso   1.00
H596   H     0.60847   0.91585   0.46515   0.00000  Uiso   1.00
H597   H     0.39408   0.94665   0.47095   0.00000  Uiso   1.00
H598   H     0.33918   0.95717   0.46123   0.00000  Uiso   1.00
H599   H     0.63129   0.99344   0.04458   0.00000  Uiso   1.00
H600   H     0.57644   0.97308   0.08341   0.00000  Uiso   1.00
H601   H     0.58720   0.97448   0.02182   0.00000  Uiso   1.00
H602   H     0.47981   0.82943   0.10670   0.00000  Uiso   1.00
H603   H     0.52358   0.84473   0.39142   0.00000  Uiso   1.00
H604   H     0.42244   0.86438   0.08912   0.00000  Uiso   1.00
H605   H     0.56048   0.89280   0.42057   0.00000  Uiso   1.00
H606   H     0.56648   0.96242   0.26465   0.00000  Uiso   1.00
H607   H     0.43383   0.70421   0.23476   0.00000  Uiso   1.00
H608   H     0.56662   0.70412   0.26440   0.00000  Uiso   1.00
N609   N     0.38093   0.83334   0.25001   0.00000  Uiso   1.00
N610   N     0.61907   0.83332   0.24999   0.00000  Uiso   1.00
O611   O     0.46179   0.89442   0.25001   0.00000  Uiso   1.00
O612   O     0.37189   0.85496   0.38635   0.00000  Uiso   1.00
O613   O     0.35198   0.89471   0.46973   0.00000  Uiso   1.00
O614   O     0.62630   0.92971   0.04320   0.00000  Uiso   1.00
O615   O     0.53821   0.77225   0.25000   0.00000  Uiso   1.00
O616   O     0.53823   0.89441   0.25000   0.00000  Uiso   1.00
O617   O     0.46177   0.77226   0.25000   0.00000  Uiso   1.00
O618   O     0.43994   0.83334   0.31613   0.00000  Uiso   1.00
O619   O     0.56006   0.83333   0.18388   0.00000  Uiso   1.00
O620   O     0.51639   0.83333   0.31612   0.00000  Uiso   1.00
O621   O     0.48361   0.83334   0.18388   0.00000  Uiso   1.00
O622   O     0.61623   0.88308   0.12159   0.00000  Uiso   1.00
Zn623  Zn    0.44896   0.83334   0.25000   0.00000  Uiso   1.00
Zn624  Zn    0.55104   0.83333   0.25000   0.00000  Uiso   1.00
C625   C     0.83328   0.91330   0.25015   0.00000  Uiso   1.00
C626   C     0.79602   0.97869   0.24165   0.00000  Uiso   1.00
C627   C     0.83349   0.70916   0.24969   0.00000  Uiso   1.00
C628   C     0.83332   0.95748   0.25001   0.00000  Uiso   1.00
C629   C     0.98558   0.80605   0.22310   0.00000  Uiso   1.00
C630   C     0.68116   0.86082   0.27664   0.00000  Uiso   1.00
C631   C     0.70003   0.80603   0.22320   0.00000  Uiso   1.00
C632   C     0.96666   0.86071   0.27671   0.00000  Uiso   1.00
C633   C     0.80382   0.83480   0.33765   0.00000  Uiso   1.00
C634   C     0.86258   0.83619   0.16261   0.00000  Uiso   1.00
C635   C     0.78604   0.84366   0.38698   0.00000  Uiso   1.00
C636   C     0.83339   0.75335   0.24987   0.00000  Uiso   1.00
C637   C     0.87751   0.85193   0.11556   0.00000  Uiso   1.00
C638   C     0.72334   0.86768   0.45515   0.00000  Uiso   1.00
C639   C     0.92499   0.89923   0.05633   0.00000  Uiso   1.00
C640   C     0.73723   0.85263   0.41007   0.00000  Uiso   1.00
C641   C     0.91738   0.87849   0.09826   0.00000  Uiso   1.00
C642   C     0.81920   0.84968   0.40966   0.00000  Uiso   1.00
C643   C     0.84474   0.84849   0.09236   0.00000  Uiso   1.00
C644   C     0.80371   0.86071   0.45611   0.00000  Uiso   1.00
C645   C     0.85297   0.86789   0.05028   0.00000  Uiso   1.00
C646   C     0.75440   0.86423   0.48020   0.00000  Uiso   1.00
C647   C     0.76980   0.86394   0.05193   0.00000  Uiso   1.00
C648   C     0.89624   0.88921   0.02950   0.00000  Uiso   1.00
C649   C     0.83570   0.86950   0.47945   0.00000  Uiso   1.00
C650   C     0.81935   0.86581   0.02766   0.00000  Uiso   1.00
C651   C     0.94103   0.92094   0.14630   0.00000  Uiso   1.00
C652   C     0.67026   0.82379   0.40278   0.00000  Uiso   1.00
C653   C     0.70268   0.93494   0.45351   0.00000  Uiso   1.00
C654   C     0.93709   0.96908   0.04864   0.00000  Uiso   1.00
C655   C     0.88145   0.88609   0.45701   0.00000  Uiso   1.00
C656   C     0.73759   0.86679   0.02817   0.00000  Uiso   1.00
C657   C     0.90940   0.89932   0.48268   0.00000  Uiso   1.00
C658   C     0.87082   0.97865   0.25801   0.00000  Uiso   1.00
C659   C     0.79611   0.68798   0.24148   0.00000  Uiso   1.00
C660   C     0.87092   0.68794   0.25783   0.00000  Uiso   1.00
F661   F     0.97276   0.77870   0.19594   0.00000  Uiso   1.00
F662   F     0.69416   0.88870   0.30317   0.00000  Uiso   1.00
H663   H     0.69966   0.86893   0.04715   0.00000  Uiso   1.00
H664   H     0.76702   0.96249   0.23503   0.00000  Uiso   1.00
H665   H     0.72563   0.78416   0.20170   0.00000  Uiso   1.00
H666   H     0.94109   0.88265   0.29813   0.00000  Uiso   1.00
H667   H     0.95200   0.91711   0.17701   0.00000  Uiso   1.00
H668   H     0.90274   0.93064   0.15866   0.00000  Uiso   1.00
H669   H     0.96356   0.94595   0.12512   0.00000  Uiso   1.00
H670   H     0.68684   0.79229   0.39883   0.00000  Uiso   1.00
H671   H     0.97955   0.82448   0.38203   0.00000  Uiso   1.00
H672   H     0.98117   0.82941   0.43921   0.00000  Uiso   1.00
H673   H     0.72058   0.93560   0.41551   0.00000  Uiso   1.00
H674   H     0.94181   0.91585   0.46515   0.00000  Uiso   1.00
H675   H     0.72741   0.94665   0.47095   0.00000  Uiso   1.00
H676   H     0.67252   0.95717   0.46123   0.00000  Uiso   1.00
H677   H     0.96463   0.99344   0.04458   0.00000  Uiso   1.00
H678   H     0.90978   0.97308   0.08341   0.00000  Uiso   1.00
H679   H     0.92053   0.97448   0.02182   0.00000  Uiso   1.00
H680   H     0.81314   0.82943   0.10670   0.00000  Uiso   1.00
H681   H     0.85691   0.84473   0.39142   0.00000  Uiso   1.00
H682   H     0.75578   0.86438   0.08912   0.00000  Uiso   1.00
H683   H     0.89382   0.89280   0.42057   0.00000  Uiso   1.00
H684   H     0.89981   0.96242   0.26465   0.00000  Uiso   1.00
H685   H     0.76716   0.70421   0.23476   0.00000  Uiso   1.00
H686   H     0.89995   0.70412   0.26440   0.00000  Uiso   1.00
N687   N     0.71426   0.83334   0.25001   0.00000  Uiso   1.00
N688   N     0.95241   0.83332   0.24999   0.00000  Uiso   1.00
O689   O     0.79512   0.89442   0.25001   0.00000  Uiso   1.00
O690   O     0.70522   0.85496   0.38635   0.00000  Uiso   1.00
O691   O     0.68532   0.89471   0.46973   0.00000  Uiso   1.00
O692   O     0.95963   0.92971   0.04320   0.00000  Uiso   1.00
O693   O     0.87154   0.77225   0.25000   0.00000  Uiso   1.00
O694   O     0.87157   0.89441   0.25000   0.00000  Uiso   1.00
O695   O     0.79510   0.77226   0.25000   0.00000  Uiso   1.00
O696   O     0.77328   0.83334   0.31613   0.00000  Uiso   1.00
O697   O     0.89339   0.83333   0.18388   0.00000  Uiso   1.00
O698   O     0.84972   0.83333   0.31612   0.00000  Uiso   1.00
O699   O     0.81695   0.83334   0.18388   0.00000  Uiso   1.00
O700   O     0.94956   0.88308   0.12159   0.00000  Uiso   1.00
Zn701  Zn    0.78229   0.83334   0.25000   0.00000  Uiso   1.00
Zn702  Zn    0.88438   0.83333   0.25000   0.00000  Uiso   1.00
C703   C     0.16661   0.24664   0.75015   0.00000  Uiso   1.00
C704   C     0.12935   0.31202   0.74165   0.00000  Uiso   1.00
C705   C     0.16683   0.04249   0.74969   0.00000  Uiso   1.00
C706   C     0.16666   0.29081   0.75001   0.00000  Uiso   1.00
C707   C     0.31891   0.13938   0.72310   0.00000  Uiso   1.00
C708   C     0.01449   0.19416   0.77664   0.00000  Uiso   1.00
C709   C     0.03337   0.13936   0.72320   0.00000  Uiso   1.00
C710   C     0.29999   0.19404   0.77671   0.00000  Uiso   1.00
C711   C     0.13715   0.16814   0.83765   0.00000  Uiso   1.00
C712   C     0.19591   0.16952   0.66261   0.00000  Uiso   1.00
C713   C     0.11937   0.17699   0.88698   0.00000  Uiso   1.00
C714   C     0.16672   0.08669   0.74987   0.00000  Uiso   1.00
C715   C     0.21085   0.18526   0.61556   0.00000  Uiso   1.00
C716   C     0.05667   0.20101   0.95515   0.00000  Uiso   1.00
C717   C     0.25833   0.23256   0.55633   0.00000  Uiso   1.00
C718   C     0.07057   0.18597   0.91007   0.00000  Uiso   1.00
C719   C     0.25071   0.21182   0.59826   0.00000  Uiso   1.00
C720   C     0.15253   0.18301   0.90966   0.00000  Uiso   1.00
C721   C     0.17807   0.18182   0.59236   0.00000  Uiso   1.00
C722   C     0.13704   0.19405   0.95611   0.00000  Uiso   1.00
C723   C     0.18630   0.20122   0.55028   0.00000  Uiso   1.00
C724   C     0.08774   0.19756   0.98020   0.00000  Uiso   1.00
C725   C     0.10313   0.19727   0.55193   0.00000  Uiso   1.00
C726   C     0.22957   0.22255   0.52950   0.00000  Uiso   1.00
C727   C     0.16903   0.20283   0.97945   0.00000  Uiso   1.00
C728   C     0.15268   0.19915   0.52766   0.00000  Uiso   1.00
C729   C     0.27436   0.25428   0.64630   0.00000  Uiso   1.00
C730   C     0.00359   0.15712   0.90278   0.00000  Uiso   1.00
C731   C     0.03601   0.26828   0.95351   0.00000  Uiso   1.00
C732   C     0.27043   0.30241   0.54864   0.00000  Uiso   1.00
C733   C     0.21479   0.21942   0.95701   0.00000  Uiso   1.00
C734   C     0.07092   0.20012   0.52817   0.00000  Uiso   1.00
C735   C     0.24273   0.23265   0.98268   0.00000  Uiso   1.00
C736   C     0.20416   0.31198   0.75801   0.00000  Uiso   1.00
C737   C     0.12944   0.02132   0.74148   0.00000  Uiso   1.00
C738   C     0.20425   0.02127   0.75783   0.00000  Uiso   1.00
F739   F     0.30609   0.11203   0.69594   0.00000  Uiso   1.00
F740   F     0.02749   0.22203   0.80317   0.00000  Uiso   1.00
H741   H     0.03299   0.20227   0.54715   0.00000  Uiso   1.00
H742   H     0.10036   0.29583   0.73503   0.00000  Uiso   1.00
H743   H     0.05896   0.11749   0.70170   0.00000  Uiso   1.00
H744   H     0.27442   0.21599   0.79813   0.00000  Uiso   1.00
H745   H     0.28533   0.25045   0.67701   0.00000  Uiso   1.00
H746   H     0.23607   0.26397   0.65866   0.00000  Uiso   1.00
H747   H     0.29690   0.27928   0.62512   0.00000  Uiso   1.00
H748   H     0.02017   0.12562   0.89883   0.00000  Uiso   1.00
H749   H     0.31288   0.15782   0.88203   0.00000  Uiso   1.00
H750   H     0.31450   0.16274   0.93921   0.00000  Uiso   1.00
H751   H     0.05391   0.26893   0.91551   0.00000  Uiso   1.00
H752   H     0.27514   0.24918   0.96515   0.00000  Uiso   1.00
H753   H     0.06075   0.27999   0.97095   0.00000  Uiso   1.00
H754   H     0.00585   0.29051   0.96123   0.00000  Uiso   1.00
H755   H     0.29796   0.32677   0.54458   0.00000  Uiso   1.00
H756   H     0.24311   0.30642   0.58341   0.00000  Uiso   1.00
H757   H     0.25386   0.30782   0.52182   0.00000  Uiso   1.00
H758   H     0.14648   0.16276   0.60670   0.00000  Uiso   1.00
H759   H     0.19024   0.17806   0.89142   0.00000  Uiso   1.00
H760   H     0.08911   0.19771   0.58912   0.00000  Uiso   1.00
H761   H     0.22715   0.22614   0.92057   0.00000  Uiso   1.00
H762   H     0.23315   0.29575   0.76465   0.00000  Uiso   1.00
H763   H     0.10049   0.03755   0.73476   0.00000  Uiso   1.00
H764   H     0.23328   0.03746   0.76440   0.00000  Uiso   1.00
N765   N     0.04759   0.16668   0.75001   0.00000  Uiso   1.00
N766   N     0.28574   0.16666   0.74999   0.00000  Uiso   1.00
O767   O     0.12846   0.22775   0.75001   0.00000  Uiso   1.00
O768   O     0.03856   0.18830   0.88635   0.00000  Uiso   1.00
O769   O     0.01865   0.22804   0.96973   0.00000  Uiso   1.00
O770   O     0.29297   0.26304   0.54320   0.00000  Uiso   1.00
O771   O     0.20488   0.10558   0.75000   0.00000  Uiso   1.00
O772   O     0.20490   0.22774   0.75000   0.00000  Uiso   1.00
O773   O     0.12843   0.10559   0.75000   0.00000  Uiso   1.00
O774   O     0.10661   0.16667   0.81613   0.00000  Uiso   1.00
O775   O     0.22672   0.16666   0.68388   0.00000  Uiso   1.00
O776   O     0.18305   0.16666   0.81612   0.00000  Uiso   1.00
O777   O     0.15028   0.16667   0.68388   0.00000  Uiso   1.00
O778   O     0.28290   0.21641   0.62159   0.00000  Uiso   1.00
Zn779  Zn    0.11562   0.16667   0.75000   0.00000  Uiso   1.00
Zn780  Zn    0.21771   0.16666   0.75000   0.00000  Uiso   1.00
C781   C     0.49994   0.24664   0.75015   0.00000  Uiso   1.00
C782   C     0.46268   0.31202   0.74165   0.00000  Uiso   1.00
C783   C     0.50016   0.04249   0.74969   0.00000  Uiso   1.00
C784   C     0.49999   0.29081   0.75001   0.00000  Uiso   1.00
C785   C     0.65225   0.13938   0.72310   0.00000  Uiso   1.00
C786   C     0.34782   0.19416   0.77664   0.00000  Uiso   1.00
C787   C     0.36670   0.13936   0.72320   0.00000  Uiso   1.00
C788   C     0.63332   0.19404   0.77671   0.00000  Uiso   1.00
C789   C     0.47048   0.16814   0.83765   0.00000  Uiso   1.00
C790   C     0.52924   0.16952   0.66261   0.00000  Uiso   1.00
C791   C     0.45271   0.17699   0.88698   0.00000  Uiso   1.00
C792   C     0.50005   0.08669   0.74987   0.00000  Uiso   1.00
C793   C     0.54418   0.18526   0.61556   0.00000  Uiso   1.00
C794   C     0.39001   0.20101   0.95515   0.00000  Uiso   1.00
C795   C     0.59166   0.23256   0.55633   0.00000  Uiso   1.00
C796   C     0.40390   0.18597   0.91007   0.00000  Uiso   1.00
C797   C     0.58404   0.21182   0.59826   0.00000  Uiso   1.00
C798   C     0.48586   0.18301   0.90966   0.00000  Uiso   1.00
C799   C     0.51140   0.18182   0.59236   0.00000  Uiso   1.00
C800   C     0.47038   0.19405   0.95611   0.00000  Uiso   1.00
C801   C     0.51964   0.20122   0.55028   0.00000  Uiso   1.00
C802   C     0.42107   0.19756   0.98020   0.00000  Uiso   1.00
C803   C     0.43646   0.19727   0.55193   0.00000  Uiso   1.00
C804   C     0.56290   0.22255   0.52950   0.00000  Uiso   1.00
C805   C     0.50237   0.20283   0.97945   0.00000  Uiso   1.00
C806   C     0.48602   0.19915   0.52766   0.00000  Uiso   1.00
C807   C     0.60770   0.25428   0.64630   0.00000  Uiso   1.00
C808   C     0.33693   0.15712   0.90278   0.00000  Uiso   1.00
C809   C     0.36934   0.26828   0.95351   0.00000  Uiso   1.00
C810   C     0.60376   0.30241   0.54864   0.00000  Uiso   1.00
C811   C     0.54812   0.21942   0.95701   0.00000  Uiso   1.00
C812   C     0.40425   0.20012   0.52817   0.00000  Uiso   1.00
C813   C     0.57607   0.23265   0.98268   0.00000  Uiso   1.00
C814   C     0.53749   0.31198   0.75801   0.00000  Uiso   1.00
C815   C     0.46277   0.02132   0.74148   0.00000  Uiso   1.00
C816   C     0.53759   0.02127   0.75783   0.00000  Uiso   1.00
F817   F     0.63943   0.11203   0.69594   0.00000  Uiso   1.00
F818   F     0.36082   0.22203   0.80317   0.00000  Uiso   1.00
H819   H     0.36633   0.20227   0.54715   0.00000  Uiso   1.00
H820   H     0.43369   0.29583   0.73503   0.00000  Uiso   1.00
H821   H     0.39230   0.11749   0.70170   0.00000  Uiso   1.00
H822   H     0.60775   0.21599   0.79813   0.00000  Uiso   1.00
H823   H     0.61867   0.25045   0.67701   0.00000  Uiso   1.00
H824   H     0.56940   0.26397   0.65866   0.00000  Uiso   1.00
H825   H     0.63023   0.27928   0.62512   0.00000  Uiso   1.00
H826   H     0.35350   0.12562   0.89883   0.00000  Uiso   1.00
H827   H     0.64621   0.15782   0.88203   0.00000  Uiso   1.00
H828   H     0.64783   0.16274   0.93921   0.00000  Uiso   1.00
H829   H     0.38724   0.26893   0.91551   0.00000  Uiso   1.00
H830   H     0.60847   0.24918   0.96515   0.00000  Uiso   1.00
H831   H     0.39408   0.27999   0.97095   0.00000  Uiso   1.00
H832   H     0.33918   0.29051   0.96123   0.00000  Uiso   1.00
H833   H     0.63129   0.32677   0.54458   0.00000  Uiso   1.00
H834   H     0.57644   0.30642   0.58341   0.00000  Uiso   1.00
H835   H     0.58720   0.30782   0.52182   0.00000  Uiso   1.00
H836   H     0.47981   0.16276   0.60670   0.00000  Uiso   1.00
H837   H     0.52358   0.17806   0.89142   0.00000  Uiso   1.00
H838   H     0.42244   0.19771   0.58912   0.00000  Uiso   1.00
H839   H     0.56048   0.22614   0.92057   0.00000  Uiso   1.00
H840   H     0.56648   0.29575   0.76465   0.00000  Uiso   1.00
H841   H     0.43383   0.03755   0.73476   0.00000  Uiso   1.00
H842   H     0.56662   0.03746   0.76440   0.00000  Uiso   1.00
N843   N     0.38093   0.16668   0.75001   0.00000  Uiso   1.00
N844   N     0.61907   0.16666   0.74999   0.00000  Uiso   1.00
O845   O     0.46179   0.22775   0.75001   0.00000  Uiso   1.00
O846   O     0.37189   0.18830   0.88635   0.00000  Uiso   1.00
O847   O     0.35198   0.22804   0.96973   0.00000  Uiso   1.00
O848   O     0.62630   0.26304   0.54320   0.00000  Uiso   1.00
O849   O     0.53821   0.10558   0.75000   0.00000  Uiso   1.00
O850   O     0.53823   0.22774   0.75000   0.00000  Uiso   1.00
O851   O     0.46177   0.10559   0.75000   0.00000  Uiso   1.00
O852   O     0.43994   0.16667   0.81613   0.00000  Uiso   1.00
O853   O     0.56006   0.16666   0.68388   0.00000  Uiso   1.00
O854   O     0.51639   0.16666   0.81612   0.00000  Uiso   1.00
O855   O     0.48361   0.16667   0.68388   0.00000  Uiso   1.00
O856   O     0.61623   0.21641   0.62159   0.00000  Uiso   1.00
Zn857  Zn    0.44896   0.16667   0.75000   0.00000  Uiso   1.00
Zn858  Zn    0.55104   0.16666   0.75000   0.00000  Uiso   1.00
C859   C     0.83328   0.24664   0.75015   0.00000  Uiso   1.00
C860   C     0.79602   0.31202   0.74165   0.00000  Uiso   1.00
C861   C     0.83349   0.04249   0.74969   0.00000  Uiso   1.00
C862   C     0.83332   0.29081   0.75001   0.00000  Uiso   1.00
C863   C     0.98558   0.13938   0.72310   0.00000  Uiso   1.00
C864   C     0.68116   0.19416   0.77664   0.00000  Uiso   1.00
C865   C     0.70003   0.13936   0.72320   0.00000  Uiso   1.00
C866   C     0.96666   0.19404   0.77671   0.00000  Uiso   1.00
C867   C     0.80382   0.16814   0.83765   0.00000  Uiso   1.00
C868   C     0.86258   0.16952   0.66261   0.00000  Uiso   1.00
C869   C     0.78604   0.17699   0.88698   0.00000  Uiso   1.00
C870   C     0.83339   0.08669   0.74987   0.00000  Uiso   1.00
C871   C     0.87751   0.18526   0.61556   0.00000  Uiso   1.00
C872   C     0.72334   0.20101   0.95515   0.00000  Uiso   1.00
C873   C     0.92499   0.23256   0.55633   0.00000  Uiso   1.00
C874   C     0.73723   0.18597   0.91007   0.00000  Uiso   1.00
C875   C     0.91738   0.21182   0.59826   0.00000  Uiso   1.00
C876   C     0.81920   0.18301   0.90966   0.00000  Uiso   1.00
C877   C     0.84474   0.18182   0.59236   0.00000  Uiso   1.00
C878   C     0.80371   0.19405   0.95611   0.00000  Uiso   1.00
C879   C     0.85297   0.20122   0.55028   0.00000  Uiso   1.00
C880   C     0.75440   0.19756   0.98020   0.00000  Uiso   1.00
C881   C     0.76980   0.19727   0.55193   0.00000  Uiso   1.00
C882   C     0.89624   0.22255   0.52950   0.00000  Uiso   1.00
C883   C     0.83570   0.20283   0.97945   0.00000  Uiso   1.00
C884   C     0.81935   0.19915   0.52766   0.00000  Uiso   1.00
C885   C     0.94103   0.25428   0.64630   0.00000  Uiso   1.00
C886   C     0.67026   0.15712   0.90278   0.00000  Uiso   1.00
C887   C     0.70268   0.26828   0.95351   0.00000  Uiso   1.00
C888   C     0.93709   0.30241   0.54864   0.00000  Uiso   1.00
C889   C     0.88145   0.21942   0.95701   0.00000  Uiso   1.00
C890   C     0.73759   0.20012   0.52817   0.00000  Uiso   1.00
C891   C     0.90940   0.23265   0.98268   0.00000  Uiso   1.00
C892   C     0.87082   0.31198   0.75801   0.00000  Uiso   1.00
C893   C     0.79611   0.02132   0.74148   0.00000  Uiso   1.00
C894   C     0.87092   0.02127   0.75783   0.00000  Uiso   1.00
F895   F     0.97276   0.11203   0.69594   0.00000  Uiso   1.00
F896   F     0.69416   0.22203   0.80317   0.00000  Uiso   1.00
H897   H     0.69966   0.20227   0.54715   0.00000  Uiso   1.00
H898   H     0.76702   0.29583   0.73503   0.00000  Uiso   1.00
H899   H     0.72563   0.11749   0.70170   0.00000  Uiso   1.00
H900   H     0.94109   0.21599   0.79813   0.00000  Uiso   1.00
H901   H     0.95200   0.25045   0.67701   0.00000  Uiso   1.00
H902   H     0.90274   0.26397   0.65866   0.00000  Uiso   1.00
H903   H     0.96356   0.27928   0.62512   0.00000  Uiso   1.00
H904   H     0.68684   0.12562   0.89883   0.00000  Uiso   1.00
H905   H     0.97955   0.15782   0.88203   0.00000  Uiso   1.00
H906   H     0.98117   0.16274   0.93921   0.00000  Uiso   1.00
H907   H     0.72058   0.26893   0.91551   0.00000  Uiso   1.00
H908   H     0.94181   0.24918   0.96515   0.00000  Uiso   1.00
H909   H     0.72741   0.27999   0.97095   0.00000  Uiso   1.00
H910   H     0.67252   0.29051   0.96123   0.00000  Uiso   1.00
H911   H     0.96463   0.32677   0.54458   0.00000  Uiso   1.00
H912   H     0.90978   0.30642   0.58341   0.00000  Uiso   1.00
H913   H     0.92053   0.30782   0.52182   0.00000  Uiso   1.00
H914   H     0.81314   0.16276   0.60670   0.00000  Uiso   1.00
H915   H     0.85691   0.17806   0.89142   0.00000  Uiso   1.00
H916   H     0.75578   0.19771   0.58912   0.00000  Uiso   1.00
H917   H     0.89382   0.22614   0.92057   0.00000  Uiso   1.00
H918   H     0.89981   0.29575   0.76465   0.00000  Uiso   1.00
H919   H     0.76716   0.03755   0.73476   0.00000  Uiso   1.00
H920   H     0.89995   0.03746   0.76440   0.00000  Uiso   1.00
N921   N     0.71426   0.16668   0.75001   0.00000  Uiso   1.00
N922   N     0.95241   0.16666   0.74999   0.00000  Uiso   1.00
O923   O     0.79512   0.22775   0.75001   0.00000  Uiso   1.00
O924   O     0.70522   0.18830   0.88635   0.00000  Uiso   1.00
O925   O     0.68532   0.22804   0.96973   0.00000  Uiso   1.00
O926   O     0.95963   0.26304   0.54320   0.00000  Uiso   1.00
O927   O     0.87154   0.10558   0.75000   0.00000  Uiso   1.00
O928   O     0.87157   0.22774   0.75000   0.00000  Uiso   1.00
O929   O     0.79510   0.10559   0.75000   0.00000  Uiso   1.00
O930   O     0.77328   0.16667   0.81613   0.00000  Uiso   1.00
O931   O     0.89339   0.16666   0.68388   0.00000  Uiso   1.00
O932   O     0.84972   0.16666   0.81612   0.00000  Uiso   1.00
O933   O     0.81695   0.16667   0.68388   0.00000  Uiso   1.00
O934   O     0.94956   0.21641   0.62159   0.00000  Uiso   1.00
Zn935  Zn    0.78229   0.16667   0.75000   0.00000  Uiso   1.00
Zn936  Zn    0.88438   0.16666   0.75000   0.00000  Uiso   1.00
C937   C     0.16661   0.57997   0.75015   0.00000  Uiso   1.00
C938   C     0.12935   0.64536   0.74165   0.00000  Uiso   1.00
C939   C     0.16683   0.37583   0.74969   0.00000  Uiso   1.00
C940   C     0.16666   0.62415   0.75001   0.00000  Uiso   1.00
C941   C     0.31891   0.47272   0.72310   0.00000  Uiso   1.00
C942   C     0.01449   0.52749   0.77664   0.00000  Uiso   1.00
C943   C     0.03337   0.47270   0.72320   0.00000  Uiso   1.00
C944   C     0.29999   0.52738   0.77671   0.00000  Uiso   1.00
C945   C     0.13715   0.50147   0.83765   0.00000  Uiso   1.00
C946   C     0.19591   0.50286   0.66261   0.00000  Uiso   1.00
C947   C     0.11937   0.51033   0.88698   0.00000  Uiso   1.00
C948   C     0.16672   0.42002   0.74987   0.00000  Uiso   1.00
C949   C     0.21085   0.51859   0.61556   0.00000  Uiso   1.00
C950   C     0.05667   0.53435   0.95515   0.00000  Uiso   1.00
C951   C     0.25833   0.56590   0.55633   0.00000  Uiso   1.00
C952   C     0.07057   0.51930   0.91007   0.00000  Uiso   1.00
C953   C     0.25071   0.54515   0.59826   0.00000  Uiso   1.00
C954   C     0.15253   0.51634   0.90966   0.00000  Uiso   1.00
C955   C     0.17807   0.51516   0.59236   0.00000  Uiso   1.00
C956   C     0.13704   0.52738   0.95611   0.00000  Uiso   1.00
C957   C     0.18630   0.53455   0.55028   0.00000  Uiso   1.00
C958   C     0.08774   0.53090   0.98020   0.00000  Uiso   1.00
C959   C     0.10313   0.53061   0.55193   0.00000  Uiso   1.00
C960   C     0.22957   0.55588   0.52950   0.00000  Uiso   1.00
C961   C     0.16903   0.53616   0.97945   0.00000  Uiso   1.00
C962   C     0.15268   0.53248   0.52766   0.00000  Uiso   1.00
C963   C     0.27436   0.58761   0.64630   0.00000  Uiso   1.00
C964   C     0.00359   0.49046   0.90278   0.00000  Uiso   1.00
C965   C     0.03601   0.60161   0.95351   0.00000  Uiso   1.00
C966   C     0.27043   0.63574   0.54864   0.00000  Uiso   1.00
C967   C     0.21479   0.55276   0.95701   0.00000  Uiso   1.00
C968   C     0.07092   0.53346   0.52817   0.00000  Uiso   1.00
C969   C     0.24273   0.56598   0.98268   0.00000  Uiso   1.00
C970   C     0.20416   0.64532   0.75801   0.00000  Uiso   1.00
C971   C     0.12944   0.35465   0.74148   0.00000  Uiso   1.00
C972   C     0.20425   0.35460   0.75783   0.00000  Uiso   1.00
F973   F     0.30609   0.44537   0.69594   0.00000  Uiso   1.00
F974   F     0.02749   0.55537   0.80317   0.00000  Uiso   1.00
H975   H     0.03299   0.53560   0.54715   0.00000  Uiso   1.00
H976   H     0.10036   0.62916   0.73503   0.00000  Uiso   1.00
H977   H     0.05896   0.45082   0.70170   0.00000  Uiso   1.00
H978   H     0.27442   0.54932   0.79813   0.00000  Uiso   1.00
H979   H     0.28533   0.58378   0.67701   0.00000  Uiso   1.00
H980   H     0.23607   0.59731   0.65866   0.00000  Uiso   1.00
H981   H     0.29690   0.61262   0.62512   0.00000  Uiso   1.00
H982   H     0.02017   0.45895   0.89883   0.00000  Uiso   1.00
H983   H     0.31288   0.49115   0.88203   0.00000  Uiso   1.00
H984   H     0.31450   0.49608   0.93921   0.00000  Uiso   1.00
H985   H     0.05391   0.60226   0.91551   0.00000  Uiso   1.00
H986   H     0.27514   0.58251   0.96515   0.00000  Uiso   1.00
H987   H     0.06075   0.61332   0.97095   0.00000  Uiso   1.00
H988   H     0.00585   0.62384   0.96123   0.00000  Uiso   1.00
H989   H     0.29796   0.66010   0.54458   0.00000  Uiso   1.00
H990   H     0.24311   0.63975   0.58341   0.00000  Uiso   1.00
H991   H     0.25386   0.64115   0.52182   0.00000  Uiso   1.00
H992   H     0.14648   0.49609   0.60670   0.00000  Uiso   1.00
H993   H     0.19024   0.51139   0.89142   0.00000  Uiso   1.00
H994   H     0.08911   0.53105   0.58912   0.00000  Uiso   1.00
H995   H     0.22715   0.55947   0.92057   0.00000  Uiso   1.00
H996   H     0.23315   0.62909   0.76465   0.00000  Uiso   1.00
H997   H     0.10049   0.37088   0.73476   0.00000  Uiso   1.00
H998   H     0.23328   0.37079   0.76440   0.00000  Uiso   1.00
N999   N     0.04759   0.50001   0.75001   0.00000  Uiso   1.00
N1000  N     0.28574   0.49999   0.74999   0.00000  Uiso   1.00
O1001  O     0.12846   0.56108   0.75001   0.00000  Uiso   1.00
O1002  O     0.03856   0.52163   0.88635   0.00000  Uiso   1.00
O1003  O     0.01865   0.56138   0.96973   0.00000  Uiso   1.00
O1004  O     0.29297   0.59637   0.54320   0.00000  Uiso   1.00
O1005  O     0.20488   0.43892   0.75000   0.00000  Uiso   1.00
O1006  O     0.20490   0.56107   0.75000   0.00000  Uiso   1.00
O1007  O     0.12843   0.43893   0.75000   0.00000  Uiso   1.00
O1008  O     0.10661   0.50001   0.81613   0.00000  Uiso   1.00
O1009  O     0.22672   0.49999   0.68388   0.00000  Uiso   1.00
O1010  O     0.18305   0.50000   0.81612   0.00000  Uiso   1.00
O1011  O     0.15028   0.50000   0.68388   0.00000  Uiso   1.00
O1012  O     0.28290   0.54974   0.62159   0.00000  Uiso   1.00
Zn1013 Zn    0.11562   0.50001   0.75000   0.00000  Uiso   1.00
Zn1014 Zn    0.21771   0.49999   0.75000   0.00000  Uiso   1.00
C1015  C     0.49994   0.57997   0.75015   0.00000  Uiso   1.00
C1016  C     0.46268   0.64536   0.74165   0.00000  Uiso   1.00
C1017  C     0.50016   0.37583   0.74969   0.00000  Uiso   1.00
C1018  C     0.49999   0.62415   0.75001   0.00000  Uiso   1.00
C1019  C     0.65225   0.47272   0.72310   0.00000  Uiso   1.00
C1020  C     0.34782   0.52749   0.77664   0.00000  Uiso   1.00
C1021  C     0.36670   0.47270   0.72320   0.00000  Uiso   1.00
C1022  C     0.63332   0.52738   0.77671   0.00000  Uiso   1.00
C1023  C     0.47048   0.50147   0.83765   0.00000  Uiso   1.00
C1024  C     0.52924   0.50286   0.66261   0.00000  Uiso   1.00
C1025  C     0.45271   0.51033   0.88698   0.00000  Uiso   1.00
C1026  C     0.50005   0.42002   0.74987   0.00000  Uiso   1.00
C1027  C     0.54418   0.51859   0.61556   0.00000  Uiso   1.00
C1028  C     0.39001   0.53435   0.95515   0.00000  Uiso   1.00
C1029  C     0.59166   0.56590   0.55633   0.00000  Uiso   1.00
C1030  C     0.40390   0.51930   0.91007   0.00000  Uiso   1.00
C1031  C     0.58404   0.54515   0.59826   0.00000  Uiso   1.00
C1032  C     0.48586   0.51634   0.90966   0.00000  Uiso   1.00
C1033  C     0.51140   0.51516   0.59236   0.00000  Uiso   1.00
C1034  C     0.47038   0.52738   0.95611   0.00000  Uiso   1.00
C1035  C     0.51964   0.53455   0.55028   0.00000  Uiso   1.00
C1036  C     0.42107   0.53090   0.98020   0.00000  Uiso   1.00
C1037  C     0.43646   0.53061   0.55193   0.00000  Uiso   1.00
C1038  C     0.56290   0.55588   0.52950   0.00000  Uiso   1.00
C1039  C     0.50237   0.53616   0.97945   0.00000  Uiso   1.00
C1040  C     0.48602   0.53248   0.52766   0.00000  Uiso   1.00
C1041  C     0.60770   0.58761   0.64630   0.00000  Uiso   1.00
C1042  C     0.33693   0.49046   0.90278   0.00000  Uiso   1.00
C1043  C     0.36934   0.60161   0.95351   0.00000  Uiso   1.00
C1044  C     0.60376   0.63574   0.54864   0.00000  Uiso   1.00
C1045  C     0.54812   0.55276   0.95701   0.00000  Uiso   1.00
C1046  C     0.40425   0.53346   0.52817   0.00000  Uiso   1.00
C1047  C     0.57607   0.56598   0.98268   0.00000  Uiso   1.00
C1048  C     0.53749   0.64532   0.75801   0.00000  Uiso   1.00
C1049  C     0.46277   0.35465   0.74148   0.00000  Uiso   1.00
C1050  C     0.53759   0.35460   0.75783   0.00000  Uiso   1.00
F1051  F     0.63943   0.44537   0.69594   0.00000  Uiso   1.00
F1052  F     0.36082   0.55537   0.80317   0.00000  Uiso   1.00
H1053  H     0.36633   0.53560   0.54715   0.00000  Uiso   1.00
H1054  H     0.43369   0.62916   0.73503   0.00000  Uiso   1.00
H1055  H     0.39230   0.45082   0.70170   0.00000  Uiso   1.00
H1056  H     0.60775   0.54932   0.79813   0.00000  Uiso   1.00
H1057  H     0.61867   0.58378   0.67701   0.00000  Uiso   1.00
H1058  H     0.56940   0.59731   0.65866   0.00000  Uiso   1.00
H1059  H     0.63023   0.61262   0.62512   0.00000  Uiso   1.00
H1060  H     0.35350   0.45895   0.89883   0.00000  Uiso   1.00
H1061  H     0.64621   0.49115   0.88203   0.00000  Uiso   1.00
H1062  H     0.64783   0.49608   0.93921   0.00000  Uiso   1.00
H1063  H     0.38724   0.60226   0.91551   0.00000  Uiso   1.00
H1064  H     0.60847   0.58251   0.96515   0.00000  Uiso   1.00
H1065  H     0.39408   0.61332   0.97095   0.00000  Uiso   1.00
H1066  H     0.33918   0.62384   0.96123   0.00000  Uiso   1.00
H1067  H     0.63129   0.66010   0.54458   0.00000  Uiso   1.00
H1068  H     0.57644   0.63975   0.58341   0.00000  Uiso   1.00
H1069  H     0.58720   0.64115   0.52182   0.00000  Uiso   1.00
H1070  H     0.47981   0.49609   0.60670   0.00000  Uiso   1.00
H1071  H     0.52358   0.51139   0.89142   0.00000  Uiso   1.00
H1072  H     0.42244   0.53105   0.58912   0.00000  Uiso   1.00
H1073  H     0.56048   0.55947   0.92057   0.00000  Uiso   1.00
H1074  H     0.56648   0.62909   0.76465   0.00000  Uiso   1.00
H1075  H     0.43383   0.37088   0.73476   0.00000  Uiso   1.00
H1076  H     0.56662   0.37079   0.76440   0.00000  Uiso   1.00
N1077  N     0.38093   0.50001   0.75001   0.00000  Uiso   1.00
N1078  N     0.61907   0.49999   0.74999   0.00000  Uiso   1.00
O1079  O     0.46179   0.56108   0.75001   0.00000  Uiso   1.00
O1080  O     0.37189   0.52163   0.88635   0.00000  Uiso   1.00
O1081  O     0.35198   0.56138   0.96973   0.00000  Uiso   1.00
O1082  O     0.62630   0.59637   0.54320   0.00000  Uiso   1.00
O1083  O     0.53821   0.43892   0.75000   0.00000  Uiso   1.00
O1084  O     0.53823   0.56107   0.75000   0.00000  Uiso   1.00
O1085  O     0.46177   0.43893   0.75000   0.00000  Uiso   1.00
O1086  O     0.43994   0.50001   0.81613   0.00000  Uiso   1.00
O1087  O     0.56006   0.49999   0.68388   0.00000  Uiso   1.00
O1088  O     0.51639   0.50000   0.81612   0.00000  Uiso   1.00
O1089  O     0.48361   0.50000   0.68388   0.00000  Uiso   1.00
O1090  O     0.61623   0.54974   0.62159   0.00000  Uiso   1.00
Zn1091 Zn    0.44896   0.50001   0.75000   0.00000  Uiso   1.00
Zn1092 Zn    0.55104   0.49999   0.75000   0.00000  Uiso   1.00
C1093  C     0.83328   0.57997   0.75015   0.00000  Uiso   1.00
C1094  C     0.79602   0.64536   0.74165   0.00000  Uiso   1.00
C1095  C     0.83349   0.37583   0.74969   0.00000  Uiso   1.00
C1096  C     0.83332   0.62415   0.75001   0.00000  Uiso   1.00
C1097  C     0.98558   0.47272   0.72310   0.00000  Uiso   1.00
C1098  C     0.68116   0.52749   0.77664   0.00000  Uiso   1.00
C1099  C     0.70003   0.47270   0.72320   0.00000  Uiso   1.00
C1100  C     0.96666   0.52738   0.77671   0.00000  Uiso   1.00
C1101  C     0.80382   0.50147   0.83765   0.00000  Uiso   1.00
C1102  C     0.86258   0.50286   0.66261   0.00000  Uiso   1.00
C1103  C     0.78604   0.51033   0.88698   0.00000  Uiso   1.00
C1104  C     0.83339   0.42002   0.74987   0.00000  Uiso   1.00
C1105  C     0.87751   0.51859   0.61556   0.00000  Uiso   1.00
C1106  C     0.72334   0.53435   0.95515   0.00000  Uiso   1.00
C1107  C     0.92499   0.56590   0.55633   0.00000  Uiso   1.00
C1108  C     0.73723   0.51930   0.91007   0.00000  Uiso   1.00
C1109  C     0.91738   0.54515   0.59826   0.00000  Uiso   1.00
C1110  C     0.81920   0.51634   0.90966   0.00000  Uiso   1.00
C1111  C     0.84474   0.51516   0.59236   0.00000  Uiso   1.00
C1112  C     0.80371   0.52738   0.95611   0.00000  Uiso   1.00
C1113  C     0.85297   0.53455   0.55028   0.00000  Uiso   1.00
C1114  C     0.75440   0.53090   0.98020   0.00000  Uiso   1.00
C1115  C     0.76980   0.53061   0.55193   0.00000  Uiso   1.00
C1116  C     0.89624   0.55588   0.52950   0.00000  Uiso   1.00
C1117  C     0.83570   0.53616   0.97945   0.00000  Uiso   1.00
C1118  C     0.81935   0.53248   0.52766   0.00000  Uiso   1.00
C1119  C     0.94103   0.58761   0.64630   0.00000  Uiso   1.00
C1120  C     0.67026   0.49046   0.90278   0.00000  Uiso   1.00
C1121  C     0.70268   0.60161   0.95351   0.00000  Uiso   1.00
C1122  C     0.93709   0.63574   0.54864   0.00000  Uiso   1.00
C1123  C     0.88145   0.55276   0.95701   0.00000  Uiso   1.00
C1124  C     0.73759   0.53346   0.52817   0.00000  Uiso   1.00
C1125  C     0.90940   0.56598   0.98268   0.00000  Uiso   1.00
C1126  C     0.87082   0.64532   0.75801   0.00000  Uiso   1.00
C1127  C     0.79611   0.35465   0.74148   0.00000  Uiso   1.00
C1128  C     0.87092   0.35460   0.75783   0.00000  Uiso   1.00
F1129  F     0.97276   0.44537   0.69594   0.00000  Uiso   1.00
F1130  F     0.69416   0.55537   0.80317   0.00000  Uiso   1.00
H1131  H     0.69966   0.53560   0.54715   0.00000  Uiso   1.00
H1132  H     0.76702   0.62916   0.73503   0.00000  Uiso   1.00
H1133  H     0.72563   0.45082   0.70170   0.00000  Uiso   1.00
H1134  H     0.94109   0.54932   0.79813   0.00000  Uiso   1.00
H1135  H     0.95200   0.58378   0.67701   0.00000  Uiso   1.00
H1136  H     0.90274   0.59731   0.65866   0.00000  Uiso   1.00
H1137  H     0.96356   0.61262   0.62512   0.00000  Uiso   1.00
H1138  H     0.68684   0.45895   0.89883   0.00000  Uiso   1.00
H1139  H     0.97955   0.49115   0.88203   0.00000  Uiso   1.00
H1140  H     0.98117   0.49608   0.93921   0.00000  Uiso   1.00
H1141  H     0.72058   0.60226   0.91551   0.00000  Uiso   1.00
H1142  H     0.94181   0.58251   0.96515   0.00000  Uiso   1.00
H1143  H     0.72741   0.61332   0.97095   0.00000  Uiso   1.00
H1144  H     0.67252   0.62384   0.96123   0.00000  Uiso   1.00
H1145  H     0.96463   0.66010   0.54458   0.00000  Uiso   1.00
H1146  H     0.90978   0.63975   0.58341   0.00000  Uiso   1.00
H1147  H     0.92053   0.64115   0.52182   0.00000  Uiso   1.00
H1148  H     0.81314   0.49609   0.60670   0.00000  Uiso   1.00
H1149  H     0.85691   0.51139   0.89142   0.00000  Uiso   1.00
H1150  H     0.75578   0.53105   0.58912   0.00000  Uiso   1.00
H1151  H     0.89382   0.55947   0.92057   0.00000  Uiso   1.00
H1152  H     0.89981   0.62909   0.76465   0.00000  Uiso   1.00
H1153  H     0.76716   0.37088   0.73476   0.00000  Uiso   1.00
H1154  H     0.89995   0.37079   0.76440   0.00000  Uiso   1.00
N1155  N     0.71426   0.50001   0.75001   0.00000  Uiso   1.00
N1156  N     0.95241   0.49999   0.74999   0.00000  Uiso   1.00
O1157  O     0.79512   0.56108   0.75001   0.00000  Uiso   1.00
O1158  O     0.70522   0.52163   0.88635   0.00000  Uiso   1.00
O1159  O     0.68532   0.56138   0.96973   0.00000  Uiso   1.00
O1160  O     0.95963   0.59637   0.54320   0.00000  Uiso   1.00
O1161  O     0.87154   0.43892   0.75000   0.00000  Uiso   1.00
O1162  O     0.87157   0.56107   0.75000   0.00000  Uiso   1.00
O1163  O     0.79510   0.43893   0.75000   0.00000  Uiso   1.00
O1164  O     0.77328   0.50001   0.81613   0.00000  Uiso   1.00
O1165  O     0.89339   0.49999   0.68388   0.00000  Uiso   1.00
O1166  O     0.84972   0.50000   0.81612   0.00000  Uiso   1.00
O1167  O     0.81695   0.50000   0.68388   0.00000  Uiso   1.00
O1168  O     0.94956   0.54974   0.62159   0.00000  Uiso   1.00
Zn1169 Zn    0.78229   0.50001   0.75000   0.00000  Uiso   1.00
Zn1170 Zn    0.88438   0.49999   0.75000   0.00000  Uiso   1.00
C1171  C     0.16661   0.91330   0.75015   0.00000  Uiso   1.00
C1172  C     0.12935   0.97869   0.74165   0.00000  Uiso   1.00
C1173  C     0.16683   0.70916   0.74969   0.00000  Uiso   1.00
C1174  C     0.16666   0.95748   0.75001   0.00000  Uiso   1.00
C1175  C     0.31891   0.80605   0.72310   0.00000  Uiso   1.00
C1176  C     0.01449   0.86082   0.77664   0.00000  Uiso   1.00
C1177  C     0.03337   0.80603   0.72320   0.00000  Uiso   1.00
C1178  C     0.29999   0.86071   0.77671   0.00000  Uiso   1.00
C1179  C     0.13715   0.83480   0.83765   0.00000  Uiso   1.00
C1180  C     0.19591   0.83619   0.66261   0.00000  Uiso   1.00
C1181  C     0.11937   0.84366   0.88698   0.00000  Uiso   1.00
C1182  C     0.16672   0.75335   0.74987   0.00000  Uiso   1.00
C1183  C     0.21085   0.85193   0.61556   0.00000  Uiso   1.00
C1184  C     0.05667   0.86768   0.95515   0.00000  Uiso   1.00
C1185  C     0.25833   0.89923   0.55633   0.00000  Uiso   1.00
C1186  C     0.07057   0.85263   0.91007   0.00000  Uiso   1.00
C1187  C     0.25071   0.87849   0.59826   0.00000  Uiso   1.00
C1188  C     0.15253   0.84968   0.90966   0.00000  Uiso   1.00
C1189  C     0.17807   0.84849   0.59236   0.00000  Uiso   1.00
C1190  C     0.13704   0.86071   0.95611   0.00000  Uiso   1.00
C1191  C     0.18630   0.86789   0.55028   0.00000  Uiso   1.00
C1192  C     0.08774   0.86423   0.98020   0.00000  Uiso   1.00
C1193  C     0.10313   0.86394   0.55193   0.00000  Uiso   1.00
C1194  C     0.22957   0.88921   0.52950   0.00000  Uiso   1.00
C1195  C     0.16903   0.86950   0.97945   0.00000  Uiso   1.00
C1196  C     0.15268   0.86581   0.52766   0.00000  Uiso   1.00
C1197  C     0.27436   0.92094   0.64630   0.00000  Uiso   1.00
C1198  C     0.00359   0.82379   0.90278   0.00000  Uiso   1.00
C1199  C     0.03601   0.93494   0.95351   0.00000  Uiso   1.00
C1200  C     0.27043   0.96908   0.54864   0.00000  Uiso   1.00
C1201  C     0.21479   0.88609   0.95701   0.00000  Uiso   1.00
C1202  C     0.07092   0.86679   0.52817   0.00000  Uiso   1.00
C1203  C     0.24273   0.89932   0.98268   0.00000  Uiso   1.00
C1204  C     0.20416   0.97865   0.75801   0.00000  Uiso   1.00
C1205  C     0.12944   0.68798   0.74148   0.00000  Uiso   1.00
C1206  C     0.20425   0.68794   0.75783   0.00000  Uiso   1.00
F1207  F     0.30609   0.77870   0.69594   0.00000  Uiso   1.00
F1208  F     0.02749   0.88870   0.80317   0.00000  Uiso   1.00
H1209  H     0.03299   0.86893   0.54715   0.00000  Uiso   1.00
H1210  H     0.10036   0.96249   0.73503   0.00000  Uiso   1.00
H1211  H     0.05896   0.78416   0.70170   0.00000  Uiso   1.00
H1212  H     0.27442   0.88265   0.79813   0.00000  Uiso   1.00
H1213  H     0.28533   0.91711   0.67701   0.00000  Uiso   1.00
H1214  H     0.23607   0.93064   0.65866   0.00000  Uiso   1.00
H1215  H     0.29690   0.94595   0.62512   0.00000  Uiso   1.00
H1216  H     0.02017   0.79229   0.89883   0.00000  Uiso   1.00
H1217  H     0.31288   0.82448   0.88203   0.00000  Uiso   1.00
H1218  H     0.31450   0.82941   0.93921   0.00000  Uiso   1.00
H1219  H     0.05391   0.93560   0.91551   0.00000  Uiso   1.00
H1220  H     0.27514   0.91585   0.96515   0.00000  Uiso   1.00
H1221  H     0.06075   0.94665   0.97095   0.00000  Uiso   1.00
H1222  H     0.00585   0.95717   0.96123   0.00000  Uiso   1.00
H1223  H     0.29796   0.99344   0.54458   0.00000  Uiso   1.00
H1224  H     0.24311   0.97308   0.58341   0.00000  Uiso   1.00
H1225  H     0.25386   0.97448   0.52182   0.00000  Uiso   1.00
H1226  H     0.14648   0.82943   0.60670   0.00000  Uiso   1.00
H1227  H     0.19024   0.84473   0.89142   0.00000  Uiso   1.00
H1228  H     0.08911   0.86438   0.58912   0.00000  Uiso   1.00
H1229  H     0.22715   0.89280   0.92057   0.00000  Uiso   1.00
H1230  H     0.23315   0.96242   0.76465   0.00000  Uiso   1.00
H1231  H     0.10049   0.70421   0.73476   0.00000  Uiso   1.00
H1232  H     0.23328   0.70412   0.76440   0.00000  Uiso   1.00
N1233  N     0.04759   0.83334   0.75001   0.00000  Uiso   1.00
N1234  N     0.28574   0.83332   0.74999   0.00000  Uiso   1.00
O1235  O     0.12846   0.89442   0.75001   0.00000  Uiso   1.00
O1236  O     0.03856   0.85496   0.88635   0.00000  Uiso   1.00
O1237  O     0.01865   0.89471   0.96973   0.00000  Uiso   1.00
O1238  O     0.29297   0.92971   0.54320   0.00000  Uiso   1.00
O1239  O     0.20488   0.77225   0.75000   0.00000  Uiso   1.00
O1240  O     0.20490   0.89441   0.75000   0.00000  Uiso   1.00
O1241  O     0.12843   0.77226   0.75000   0.00000  Uiso   1.00
O1242  O     0.10661   0.83334   0.81613   0.00000  Uiso   1.00
O1243  O     0.22672   0.83333   0.68388   0.00000  Uiso   1.00
O1244  O     0.18305   0.83333   0.81612   0.00000  Uiso   1.00
O1245  O     0.15028   0.83334   0.68388   0.00000  Uiso   1.00
O1246  O     0.28290   0.88308   0.62159   0.00000  Uiso   1.00
Zn1247 Zn    0.11562   0.83334   0.75000   0.00000  Uiso   1.00
Zn1248 Zn    0.21771   0.83333   0.75000   0.00000  Uiso   1.00
C1249  C     0.49994   0.91330   0.75015   0.00000  Uiso   1.00
C1250  C     0.46268   0.97869   0.74165   0.00000  Uiso   1.00
C1251  C     0.50016   0.70916   0.74969   0.00000  Uiso   1.00
C1252  C     0.49999   0.95748   0.75001   0.00000  Uiso   1.00
C1253  C     0.65225   0.80605   0.72310   0.00000  Uiso   1.00
C1254  C     0.34782   0.86082   0.77664   0.00000  Uiso   1.00
C1255  C     0.36670   0.80603   0.72320   0.00000  Uiso   1.00
C1256  C     0.63332   0.86071   0.77671   0.00000  Uiso   1.00
C1257  C     0.47048   0.83480   0.83765   0.00000  Uiso   1.00
C1258  C     0.52924   0.83619   0.66261   0.00000  Uiso   1.00
C1259  C     0.45271   0.84366   0.88698   0.00000  Uiso   1.00
C1260  C     0.50005   0.75335   0.74987   0.00000  Uiso   1.00
C1261  C     0.54418   0.85193   0.61556   0.00000  Uiso   1.00
C1262  C     0.39001   0.86768   0.95515   0.00000  Uiso   1.00
C1263  C     0.59166   0.89923   0.55633   0.00000  Uiso   1.00
C1264  C     0.40390   0.85263   0.91007   0.00000  Uiso   1.00
C1265  C     0.58404   0.87849   0.59826   0.00000  Uiso   1.00
C1266  C     0.48586   0.84968   0.90966   0.00000  Uiso   1.00
C1267  C     0.51140   0.84849   0.59236   0.00000  Uiso   1.00
C1268  C     0.47038   0.86071   0.95611   0.00000  Uiso   1.00
C1269  C     0.51964   0.86789   0.55028   0.00000  Uiso   1.00
C1270  C     0.42107   0.86423   0.98020   0.00000  Uiso   1.00
C1271  C     0.43646   0.86394   0.55193   0.00000  Uiso   1.00
C1272  C     0.56290   0.88921   0.52950   0.00000  Uiso   1.00
C1273  C     0.50237   0.86950   0.97945   0.00000  Uiso   1.00
C1274  C     0.48602   0.86581   0.52766   0.00000  Uiso   1.00
C1275  C     0.60770   0.92094   0.64630   0.00000  Uiso   1.00
C1276  C     0.33693   0.82379   0.90278   0.00000  Uiso   1.00
C1277  C     0.36934   0.93494   0.95351   0.00000  Uiso   1.00
C1278  C     0.60376   0.96908   0.54864   0.00000  Uiso   1.00
C1279  C     0.54812   0.88609   0.95701   0.00000  Uiso   1.00
C1280  C     0.40425   0.86679   0.52817   0.00000  Uiso   1.00
C1281  C     0.57607   0.89932   0.98268   0.00000  Uiso   1.00
C1282  C     0.53749   0.97865   0.75801   0.00000  Uiso   1.00
C1283  C     0.46277   0.68798   0.74148   0.00000  Uiso   1.00
C1284  C     0.53759   0.68794   0.75783   0.00000  Uiso   1.00
F1285  F     0.63943   0.77870   0.69594   0.00000  Uiso   1.00
F1286  F     0.36082   0.88870   0.80317   0.00000  Uiso   1.00
H1287  H     0.36633   0.86893   0.54715   0.00000  Uiso   1.00
H1288  H     0.43369   0.96249   0.73503   0.00000  Uiso   1.00
H1289  H     0.39230   0.78416   0.70170   0.00000  Uiso   1.00
H1290  H     0.60775   0.88265   0.79813   0.00000  Uiso   1.00
H1291  H     0.61867   0.91711   0.67701   0.00000  Uiso   1.00
H1292  H     0.56940   0.93064   0.65866   0.00000  Uiso   1.00
H1293  H     0.63023   0.94595   0.62512   0.00000  Uiso   1.00
H1294  H     0.35350   0.79229   0.89883   0.00000  Uiso   1.00
H1295  H     0.64621   0.82448   0.88203   0.00000  Uiso   1.00
H1296  H     0.64783   0.82941   0.93921   0.00000  Uiso   1.00
H1297  H     0.38724   0.93560   0.91551   0.00000  Uiso   1.00
H1298  H     0.60847   0.91585   0.96515   0.00000  Uiso   1.00
H1299  H     0.39408   0.94665   0.97095   0.00000  Uiso   1.00
H1300  H     0.33918   0.95717   0.96123   0.00000  Uiso   1.00
H1301  H     0.63129   0.99344   0.54458   0.00000  Uiso   1.00
H1302  H     0.57644   0.97308   0.58341   0.00000  Uiso   1.00
H1303  H     0.58720   0.97448   0.52182   0.00000  Uiso   1.00
H1304  H     0.47981   0.82943   0.60670   0.00000  Uiso   1.00
H1305  H     0.52358   0.84473   0.89142   0.00000  Uiso   1.00
H1306  H     0.42244   0.86438   0.58912   0.00000  Uiso   1.00
H1307  H     0.56048   0.89280   0.92057   0.00000  Uiso   1.00
H1308  H     0.56648   0.96242   0.76465   0.00000  Uiso   1.00
H1309  H     0.43383   0.70421   0.73476   0.00000  Uiso   1.00
H1310  H     0.56662   0.70412   0.76440   0.00000  Uiso   1.00
N1311  N     0.38093   0.83334   0.75001   0.00000  Uiso   1.00
N1312  N     0.61907   0.83332   0.74999   0.00000  Uiso   1.00
O1313  O     0.46179   0.89442   0.75001   0.00000  Uiso   1.00
O1314  O     0.37189   0.85496   0.88635   0.00000  Uiso   1.00
O1315  O     0.35198   0.89471   0.96973   0.00000  Uiso   1.00
O1316  O     0.62630   0.92971   0.54320   0.00000  Uiso   1.00
O1317  O     0.53821   0.77225   0.75000   0.00000  Uiso   1.00
O1318  O     0.53823   0.89441   0.75000   0.00000  Uiso   1.00
O1319  O     0.46177   0.77226   0.75000   0.00000  Uiso   1.00
O1320  O     0.43994   0.83334   0.81613   0.00000  Uiso   1.00
O1321  O     0.56006   0.83333   0.68388   0.00000  Uiso   1.00
O1322  O     0.51639   0.83333   0.81612   0.00000  Uiso   1.00
O1323  O     0.48361   0.83334   0.68388   0.00000  Uiso   1.00
O1324  O     0.61623   0.88308   0.62159   0.00000  Uiso   1.00
Zn1325 Zn    0.44896   0.83334   0.75000   0.00000  Uiso   1.00
Zn1326 Zn    0.55104   0.83333   0.75000   0.00000  Uiso   1.00
C1327  C     0.83328   0.91330   0.75015   0.00000  Uiso   1.00
C1328  C     0.79602   0.97869   0.74165   0.00000  Uiso   1.00
C1329  C     0.83349   0.70916   0.74969   0.00000  Uiso   1.00
C1330  C     0.83332   0.95748   0.75001   0.00000  Uiso   1.00
C1331  C     0.98558   0.80605   0.72310   0.00000  Uiso   1.00
C1332  C     0.68116   0.86082   0.77664   0.00000  Uiso   1.00
C1333  C     0.70003   0.80603   0.72320   0.00000  Uiso   1.00
C1334  C     0.96666   0.86071   0.77671   0.00000  Uiso   1.00
C1335  C     0.80382   0.83480   0.83765   0.00000  Uiso   1.00
C1336  C     0.86258   0.83619   0.66261   0.00000  Uiso   1.00
C1337  C     0.78604   0.84366   0.88698   0.00000  Uiso   1.00
C1338  C     0.83339   0.75335   0.74987   0.00000  Uiso   1.00
C1339  C     0.87751   0.85193   0.61556   0.00000  Uiso   1.00
C1340  C     0.72334   0.86768   0.95515   0.00000  Uiso   1.00
C1341  C     0.92499   0.89923   0.55633   0.00000  Uiso   1.00
C1342  C     0.73723   0.85263   0.91007   0.00000  Uiso   1.00
C1343  C     0.91738   0.87849   0.59826   0.00000  Uiso   1.00
C1344  C     0.81920   0.84968   0.90966   0.00000  Uiso   1.00
C1345  C     0.84474   0.84849   0.59236   0.00000  Uiso   1.00
C1346  C     0.80371   0.86071   0.95611   0.00000  Uiso   1.00
C1347  C     0.85297   0.86789   0.55028   0.00000  Uiso   1.00
C1348  C     0.75440   0.86423   0.98020   0.00000  Uiso   1.00
C1349  C     0.76980   0.86394   0.55193   0.00000  Uiso   1.00
C1350  C     0.89624   0.88921   0.52950   0.00000  Uiso   1.00
C1351  C     0.83570   0.86950   0.97945   0.00000  Uiso   1.00
C1352  C     0.81935   0.86581   0.52766   0.00000  Uiso   1.00
C1353  C     0.94103   0.92094   0.64630   0.00000  Uiso   1.00
C1354  C     0.67026   0.82379   0.90278   0.00000  Uiso   1.00
C1355  C     0.70268   0.93494   0.95351   0.00000  Uiso   1.00
C1356  C     0.93709   0.96908   0.54864   0.00000  Uiso   1.00
C1357  C     0.88145   0.88609   0.95701   0.00000  Uiso   1.00
C1358  C     0.73759   0.86679   0.52817   0.00000  Uiso   1.00
C1359  C     0.90940   0.89932   0.98268   0.00000  Uiso   1.00
C1360  C     0.87082   0.97865   0.75801   0.00000  Uiso   1.00
C1361  C     0.79611   0.68798   0.74148   0.00000  Uiso   1.00
C1362  C     0.87092   0.68794   0.75783   0.00000  Uiso   1.00
F1363  F     0.97276   0.77870   0.69594   0.00000  Uiso   1.00
F1364  F     0.69416   0.88870   0.80317   0.00000  Uiso   1.00
H1365  H     0.69966   0.86893   0.54715   0.00000  Uiso   1.00
H1366  H     0.76702   0.96249   0.73503   0.00000  Uiso   1.00
H1367  H     0.72563   0.78416   0.70170   0.00000  Uiso   1.00
H1368  H     0.94109   0.88265   0.79813   0.00000  Uiso   1.00
H1369  H     0.95200   0.91711   0.67701   0.00000  Uiso   1.00
H1370  H     0.90274   0.93064   0.65866   0.00000  Uiso   1.00
H1371  H     0.96356   0.94595   0.62512   0.00000  Uiso   1.00
H1372  H     0.68684   0.79229   0.89883   0.00000  Uiso   1.00
H1373  H     0.97955   0.82448   0.88203   0.00000  Uiso   1.00
H1374  H     0.98117   0.82941   0.93921   0.00000  Uiso   1.00
H1375  H     0.72058   0.93560   0.91551   0.00000  Uiso   1.00
H1376  H     0.94181   0.91585   0.96515   0.00000  Uiso   1.00
H1377  H     0.72741   0.94665   0.97095   0.00000  Uiso   1.00
H1378  H     0.67252   0.95717   0.96123   0.00000  Uiso   1.00
H1379  H     0.96463   0.99344   0.54458   0.00000  Uiso   1.00
H1380  H     0.90978   0.97308   0.58341   0.00000  Uiso   1.00
H1381  H     0.92053   0.97448   0.52182   0.00000  Uiso   1.00
H1382  H     0.81314   0.82943   0.60670   0.00000  Uiso   1.00
H1383  H     0.85691   0.84473   0.89142   0.00000  Uiso   1.00
H1384  H     0.75578   0.86438   0.58912   0.00000  Uiso   1.00
H1385  H     0.89382   0.89280   0.92057   0.00000  Uiso   1.00
H1386  H     0.89981   0.96242   0.76465   0.00000  Uiso   1.00
H1387  H     0.76716   0.70421   0.73476   0.00000  Uiso   1.00
H1388  H     0.89995   0.70412   0.76440   0.00000  Uiso   1.00
N1389  N     0.71426   0.83334   0.75001   0.00000  Uiso   1.00
N1390  N     0.95241   0.83332   0.74999   0.00000  Uiso   1.00
O1391  O     0.79512   0.89442   0.75001   0.00000  Uiso   1.00
O1392  O     0.70522   0.85496   0.88635   0.00000  Uiso   1.00
O1393  O     0.68532   0.89471   0.96973   0.00000  Uiso   1.00
O1394  O     0.95963   0.92971   0.54320   0.00000  Uiso   1.00
O1395  O     0.87154   0.77225   0.75000   0.00000  Uiso   1.00
O1396  O     0.87157   0.89441   0.75000   0.00000  Uiso   1.00
O1397  O     0.79510   0.77226   0.75000   0.00000  Uiso   1.00
O1398  O     0.77328   0.83334   0.81613   0.00000  Uiso   1.00
O1399  O     0.89339   0.83333   0.68388   0.00000  Uiso   1.00
O1400  O     0.84972   0.83333   0.81612   0.00000  Uiso   1.00
O1401  O     0.81695   0.83334   0.68388   0.00000  Uiso   1.00
O1402  O     0.94956   0.88308   0.62159   0.00000  Uiso   1.00
Zn1403 Zn    0.78229   0.83334   0.75000   0.00000  Uiso   1.00
Zn1404 Zn    0.88438   0.83333   0.75000   0.00000  Uiso   1.00
loop_
_geom_bond_atom_site_label_1
_geom_bond_atom_site_label_2
_geom_bond_distance
_geom_bond_site_symmetry_2
_ccdc_geom_bond_type
C1     O65     1.288   .     A
C1     O70     1.288   .     A
C1     C4      1.419   .     S
C2     C4      1.397   .     A
C2     H40     1.084   .     S
C2     C269    1.370   .     S
C3     C12     1.420   .     S
C3     C35     1.397   .     A
C3     C36     1.397   .     A
C4     C34     1.397   .     A
C5     F37     1.355   .     S
C5     N64     1.369   .     A
C5     C85     1.421   .     S
C6     F38     1.355   .     S
C6     N63     1.369   .     A
C6     C164    1.421   1_455 S
C7     N63     1.367   .     A
C7     H41     1.082   .     S
C7     C161    1.421   1_455 S
C8     H42     1.082   .     S
C8     N64     1.367   .     A
C8     C84     1.421   .     S
C9     O72     1.294   .     A
C9     C11     1.462   .     S
C9     O74     1.301   .     A
C10    O73     1.297   .     A
C10    O75     1.295   .     A
C10    C13     1.461   .     S
C11    C18     1.401   .     A
C11    C16     1.413   .     A
C12    O69     1.288   .     A
C12    O71     1.288   .     A
C13    C19     1.395   .     A
C13    C17     1.412   .     A
C14    O67     1.374   .     S
C14    C16     1.398   .     A
C14    C22     1.394   .     A
C15    C24     1.414   .     A
C15    C17     1.407   .     A
C15    O68     1.380   .     S
C16    O66     1.385   .     S
C17    O76     1.386   .     S
C18    C20     1.397   .     A
C18    H57     1.083   .     S
C19    H56     1.084   .     S
C19    C21     1.388   .     A
C20    C25     1.402   .     A
C20    C22     1.406   .     A
C21    C26     1.400   .     A
C21    C24     1.408   .     A
C22    C734    1.398   .     S
C23    H58     1.082   .     S
C23    C26     1.411   .     A
C23    C32     1.392   .     A
C24    C735    1.404   1_554 S
C25    C31     1.407   .     A
C25    C728    1.408   .     S
C26    C727    1.408   1_554 S
C27    H44     1.115   .     S
C27    H45     1.109   .     S
C27    H43     1.109   .     S
C27    O76     1.412   .     S
C28    H46     1.114   .     S
C28    O66     1.410   .     S
C28    H203    1.110   1_455 S
C28    H204    1.112   1_455 S
C29    H49     1.114   .     S
C29    O67     1.421   .     S
C29    H51     1.113   .     S
C29    H52     1.106   .     S
C30    H54     1.114   .     S
C30    H53     1.109   .     S
C30    H55     1.111   .     S
C30    O68     1.414   .     S
C31    H59     1.082   .     S
C31    C33     1.394   .     A
C32    H39     1.083   .     S
C32    C724    1.398   1_554 S
C33    H50     1.074   .     S
C33    C726    1.404   .     S
C34    H60     1.084   .     S
C34    C270    1.370   .     S
C35    H61     1.084   .     S
C35    C470    1.370   1_545 S
C36    H62     1.084   .     S
C36    C502    1.370   1_545 S
H47    C106    1.110   .     S
H48    C106    1.112   .     S
N63    Zn77    2.021   .     S
N64    Zn78    2.021   .     S
O65    Zn77    2.000   .     S
O69    Zn78    2.000   .     S
O70    Zn78    1.999   .     S
O71    Zn77    1.999   .     S
O72    Zn77    1.969   .     S
O73    Zn78    1.969   .     S
O74    Zn78    1.953   .     S
O75    Zn77    1.953   .     S
C79    O143    1.288   .     A
C79    O148    1.288   .     A
C79    C82     1.419   .     S
C80    C82     1.397   .     A
C80    H118    1.084   .     S
C80    C347    1.370   .     S
C81    C90     1.420   .     S
C81    C113    1.397   .     A
C81    C114    1.397   .     A
C82    C112    1.397   .     A
C83    F115    1.355   .     S
C83    N142    1.369   .     A
C83    C163    1.421   .     S
C84    F116    1.355   .     S
C84    N141    1.369   .     A
C85    N141    1.367   .     A
C85    H119    1.082   .     S
C86    H120    1.082   .     S
C86    N142    1.367   .     A
C86    C162    1.421   .     S
C87    O150    1.294   .     A
C87    C89     1.462   .     S
C87    O152    1.301   .     A
C88    O151    1.297   .     A
C88    O153    1.295   .     A
C88    C91     1.461   .     S
C89    C96     1.401   .     A
C89    C94     1.413   .     A
C90    O147    1.288   .     A
C90    O149    1.288   .     A
C91    C97     1.395   .     A
C91    C95     1.412   .     A
C92    O145    1.374   .     S
C92    C94     1.398   .     A
C92    C100    1.394   .     A
C93    C102    1.414   .     A
C93    C95     1.407   .     A
C93    O146    1.380   .     S
C94    O144    1.385   .     S
C95    O154    1.386   .     S
C96    C98     1.397   .     A
C96    H135    1.083   .     S
C97    H134    1.084   .     S
C97    C99     1.388   .     A
C98    C103    1.402   .     A
C98    C100    1.406   .     A
C99    C104    1.400   .     A
C99    C102    1.408   .     A
C100   C812    1.398   .     S
C101   H136    1.082   .     S
C101   C104    1.411   .     A
C101   C110    1.392   .     A
C102   C813    1.404   1_554 S
C103   C109    1.407   .     A
C103   C806    1.408   .     S
C104   C805    1.408   1_554 S
C105   H122    1.115   .     S
C105   H123    1.109   .     S
C105   H121    1.109   .     S
C105   O154    1.412   .     S
C106   H124    1.114   .     S
C106   O144    1.410   .     S
C107   H127    1.114   .     S
C107   O145    1.421   .     S
C107   H129    1.113   .     S
C107   H130    1.106   .     S
C108   H132    1.114   .     S
C108   H131    1.109   .     S
C108   H133    1.111   .     S
C108   O146    1.414   .     S
C109   H137    1.082   .     S
C109   C111    1.394   .     A
C110   H117    1.083   .     S
C110   C802    1.398   1_554 S
C111   H128    1.074   .     S
C111   C804    1.404   .     S
C112   H138    1.084   .     S
C112   C348    1.370   .     S
C113   H139    1.084   .     S
C113   C548    1.370   1_545 S
C114   H140    1.084   .     S
C114   C580    1.370   1_545 S
H125   C184    1.110   .     S
H126   C184    1.112   .     S
N141   Zn155   2.021   .     S
N142   Zn156   2.021   .     S
O143   Zn155   2.000   .     S
O147   Zn156   2.000   .     S
O148   Zn156   1.999   .     S
O149   Zn155   1.999   .     S
O150   Zn155   1.969   .     S
O151   Zn156   1.969   .     S
O152   Zn156   1.953   .     S
O153   Zn155   1.953   .     S
C157   O221    1.288   .     A
C157   O226    1.288   .     A
C157   C160    1.419   .     S
C158   C160    1.397   .     A
C158   H196    1.084   .     S
C158   C425    1.370   .     S
C159   C168    1.420   .     S
C159   C191    1.397   .     A
C159   C192    1.397   .     A
C160   C190    1.397   .     A
C161   F193    1.355   .     S
C161   N220    1.369   .     A
C161   C7      1.421   1_655 S
C162   F194    1.355   .     S
C162   N219    1.369   .     A
C163   N219    1.367   .     A
C163   H197    1.082   .     S
C164   H198    1.082   .     S
C164   N220    1.367   .     A
C164   C6      1.421   1_655 S
C165   O228    1.294   .     A
C165   C167    1.462   .     S
C165   O230    1.301   .     A
C166   O229    1.297   .     A
C166   O231    1.295   .     A
C166   C169    1.461   .     S
C167   C174    1.401   .     A
C167   C172    1.413   .     A
C168   O225    1.288   .     A
C168   O227    1.288   .     A
C169   C175    1.395   .     A
C169   C173    1.412   .     A
C170   O223    1.374   .     S
C170   C172    1.398   .     A
C170   C178    1.394   .     A
C171   C180    1.414   .     A
C171   C173    1.407   .     A
C171   O224    1.380   .     S
C172   O222    1.385   .     S
C173   O232    1.386   .     S
C174   C176    1.397   .     A
C174   H213    1.083   .     S
C175   H212    1.084   .     S
C175   C177    1.388   .     A
C176   C181    1.402   .     A
C176   C178    1.406   .     A
C177   C182    1.400   .     A
C177   C180    1.408   .     A
C178   C890    1.398   .     S
C179   H214    1.082   .     S
C179   C182    1.411   .     A
C179   C188    1.392   .     A
C180   C891    1.404   1_554 S
C181   C187    1.407   .     A
C181   C884    1.408   .     S
C182   C883    1.408   1_554 S
C183   H200    1.115   .     S
C183   H201    1.109   .     S
C183   H199    1.109   .     S
C183   O232    1.412   .     S
C184   H202    1.114   .     S
C184   O222    1.410   .     S
C185   H205    1.114   .     S
C185   O223    1.421   .     S
C185   H207    1.113   .     S
C185   H208    1.106   .     S
C186   H210    1.114   .     S
C186   H209    1.109   .     S
C186   H211    1.111   .     S
C186   O224    1.414   .     S
C187   H215    1.082   .     S
C187   C189    1.394   .     A
C188   H195    1.083   .     S
C188   C880    1.398   1_554 S
C189   H206    1.074   .     S
C189   C882    1.404   .     S
C190   H216    1.084   .     S
C190   C426    1.370   .     S
C191   H217    1.084   .     S
C191   C626    1.370   1_545 S
C192   H218    1.084   .     S
C192   C658    1.370   1_545 S
H203   C28     1.110   1_655 S
H204   C28     1.112   1_655 S
N219   Zn233   2.021   .     S
N220   Zn234   2.021   .     S
O221   Zn233   2.000   .     S
O225   Zn234   2.000   .     S
O226   Zn234   1.999   .     S
O227   Zn233   1.999   .     S
O228   Zn233   1.969   .     S
O229   Zn234   1.969   .     S
O230   Zn234   1.953   .     S
O231   Zn233   1.953   .     S
C235   O299    1.288   .     A
C235   O304    1.288   .     A
C235   C238    1.419   .     S
C236   C238    1.397   .     A
C236   H274    1.084   .     S
C236   C503    1.370   .     S
C237   C246    1.420   .     S
C237   C269    1.397   .     A
C237   C270    1.397   .     A
C238   C268    1.397   .     A
C239   F271    1.355   .     S
C239   N298    1.369   .     A
C239   C319    1.421   .     S
C240   F272    1.355   .     S
C240   N297    1.369   .     A
C240   C398    1.421   1_455 S
C241   N297    1.367   .     A
C241   H275    1.082   .     S
C241   C395    1.421   1_455 S
C242   H276    1.082   .     S
C242   N298    1.367   .     A
C242   C318    1.421   .     S
C243   O306    1.294   .     A
C243   C245    1.462   .     S
C243   O308    1.301   .     A
C244   O307    1.297   .     A
C244   O309    1.295   .     A
C244   C247    1.461   .     S
C245   C252    1.401   .     A
C245   C250    1.413   .     A
C246   O303    1.288   .     A
C246   O305    1.288   .     A
C247   C253    1.395   .     A
C247   C251    1.412   .     A
C248   O301    1.374   .     S
C248   C250    1.398   .     A
C248   C256    1.394   .     A
C249   C258    1.414   .     A
C249   C251    1.407   .     A
C249   O302    1.380   .     S
C250   O300    1.385   .     S
C251   O310    1.386   .     S
C252   C254    1.397   .     A
C252   H291    1.083   .     S
C253   H290    1.084   .     S
C253   C255    1.388   .     A
C254   C259    1.402   .     A
C254   C256    1.406   .     A
C255   C260    1.400   .     A
C255   C258    1.408   .     A
C256   C968    1.398   .     S
C257   H292    1.082   .     S
C257   C260    1.411   .     A
C257   C266    1.392   .     A
C258   C969    1.404   1_554 S
C259   C265    1.407   .     A
C259   C962    1.408   .     S
C260   C961    1.408   1_554 S
C261   H278    1.115   .     S
C261   H279    1.109   .     S
C261   H277    1.109   .     S
C261   O310    1.412   .     S
C262   H280    1.114   .     S
C262   O300    1.410   .     S
C262   H437    1.110   1_455 S
C262   H438    1.112   1_455 S
C263   H283    1.114   .     S
C263   O301    1.421   .     S
C263   H285    1.113   .     S
C263   H286    1.106   .     S
C264   H288    1.114   .     S
C264   H287    1.109   .     S
C264   H289    1.111   .     S
C264   O302    1.414   .     S
C265   H293    1.082   .     S
C265   C267    1.394   .     A
C266   H273    1.083   .     S
C266   C958    1.398   1_554 S
C267   H284    1.074   .     S
C267   C960    1.404   .     S
C268   H294    1.084   .     S
C268   C504    1.370   .     S
C269   H295    1.084   .     S
C270   H296    1.084   .     S
H281   C340    1.110   .     S
H282   C340    1.112   .     S
N297   Zn311   2.021   .     S
N298   Zn312   2.021   .     S
O299   Zn311   2.000   .     S
O303   Zn312   2.000   .     S
O304   Zn312   1.999   .     S
O305   Zn311   1.999   .     S
O306   Zn311   1.969   .     S
O307   Zn312   1.969   .     S
O308   Zn312   1.953   .     S
O309   Zn311   1.953   .     S
C313   O377    1.288   .     A
C313   O382    1.288   .     A
C313   C316    1.419   .     S
C314   C316    1.397   .     A
C314   H352    1.084   .     S
C314   C581    1.370   .     S
C315   C324    1.420   .     S
C315   C347    1.397   .     A
C315   C348    1.397   .     A
C316   C346    1.397   .     A
C317   F349    1.355   .     S
C317   N376    1.369   .     A
C317   C397    1.421   .     S
C318   F350    1.355   .     S
C318   N375    1.369   .     A
C319   N375    1.367   .     A
C319   H353    1.082   .     S
C320   H354    1.082   .     S
C320   N376    1.367   .     A
C320   C396    1.421   .     S
C321   O384    1.294   .     A
C321   C323    1.462   .     S
C321   O386    1.301   .     A
C322   O385    1.297   .     A
C322   O387    1.295   .     A
C322   C325    1.461   .     S
C323   C330    1.401   .     A
C323   C328    1.413   .     A
C324   O381    1.288   .     A
C324   O383    1.288   .     A
C325   C331    1.395   .     A
C325   C329    1.412   .     A
C326   O379    1.374   .     S
C326   C328    1.398   .     A
C326   C334    1.394   .     A
C327   C336    1.414   .     A
C327   C329    1.407   .     A
C327   O380    1.380   .     S
C328   O378    1.385   .     S
C329   O388    1.386   .     S
C330   C332    1.397   .     A
C330   H369    1.083   .     S
C331   H368    1.084   .     S
C331   C333    1.388   .     A
C332   C337    1.402   .     A
C332   C334    1.406   .     A
C333   C338    1.400   .     A
C333   C336    1.408   .     A
C334   C1046   1.398   .     S
C335   H370    1.082   .     S
C335   C338    1.411   .     A
C335   C344    1.392   .     A
C336   C1047   1.404   1_554 S
C337   C343    1.407   .     A
C337   C1040   1.408   .     S
C338   C1039   1.408   1_554 S
C339   H356    1.115   .     S
C339   H357    1.109   .     S
C339   H355    1.109   .     S
C339   O388    1.412   .     S
C340   H358    1.114   .     S
C340   O378    1.410   .     S
C341   H361    1.114   .     S
C341   O379    1.421   .     S
C341   H363    1.113   .     S
C341   H364    1.106   .     S
C342   H366    1.114   .     S
C342   H365    1.109   .     S
C342   H367    1.111   .     S
C342   O380    1.414   .     S
C343   H371    1.082   .     S
C343   C345    1.394   .     A
C344   H351    1.083   .     S
C344   C1036   1.398   1_554 S
C345   H362    1.074   .     S
C345   C1038   1.404   .     S
C346   H372    1.084   .     S
C346   C582    1.370   .     S
C347   H373    1.084   .     S
C348   H374    1.084   .     S
H359   C418    1.110   .     S
H360   C418    1.112   .     S
N375   Zn389   2.021   .     S
N376   Zn390   2.021   .     S
O377   Zn389   2.000   .     S
O381   Zn390   2.000   .     S
O382   Zn390   1.999   .     S
O383   Zn389   1.999   .     S
O384   Zn389   1.969   .     S
O385   Zn390   1.969   .     S
O386   Zn390   1.953   .     S
O387   Zn389   1.953   .     S
C391   O455    1.288   .     A
C391   O460    1.288   .     A
C391   C394    1.419   .     S
C392   C394    1.397   .     A
C392   H430    1.084   .     S
C392   C659    1.370   .     S
C393   C402    1.420   .     S
C393   C425    1.397   .     A
C393   C426    1.397   .     A
C394   C424    1.397   .     A
C395   F427    1.355   .     S
C395   N454    1.369   .     A
C395   C241    1.421   1_655 S
C396   F428    1.355   .     S
C396   N453    1.369   .     A
C397   N453    1.367   .     A
C397   H431    1.082   .     S
C398   H432    1.082   .     S
C398   N454    1.367   .     A
C398   C240    1.421   1_655 S
C399   O462    1.294   .     A
C399   C401    1.462   .     S
C399   O464    1.301   .     A
C400   O463    1.297   .     A
C400   O465    1.295   .     A
C400   C403    1.461   .     S
C401   C408    1.401   .     A
C401   C406    1.413   .     A
C402   O459    1.288   .     A
C402   O461    1.288   .     A
C403   C409    1.395   .     A
C403   C407    1.412   .     A
C404   O457    1.374   .     S
C404   C406    1.398   .     A
C404   C412    1.394   .     A
C405   C414    1.414   .     A
C405   C407    1.407   .     A
C405   O458    1.380   .     S
C406   O456    1.385   .     S
C407   O466    1.386   .     S
C408   C410    1.397   .     A
C408   H447    1.083   .     S
C409   H446    1.084   .     S
C409   C411    1.388   .     A
C410   C415    1.402   .     A
C410   C412    1.406   .     A
C411   C416    1.400   .     A
C411   C414    1.408   .     A
C412   C1124   1.398   .     S
C413   H448    1.082   .     S
C413   C416    1.411   .     A
C413   C422    1.392   .     A
C414   C1125   1.404   1_554 S
C415   C421    1.407   .     A
C415   C1118   1.408   .     S
C416   C1117   1.408   1_554 S
C417   H434    1.115   .     S
C417   H435    1.109   .     S
C417   H433    1.109   .     S
C417   O466    1.412   .     S
C418   H436    1.114   .     S
C418   O456    1.410   .     S
C419   H439    1.114   .     S
C419   O457    1.421   .     S
C419   H441    1.113   .     S
C419   H442    1.106   .     S
C420   H444    1.114   .     S
C420   H443    1.109   .     S
C420   H445    1.111   .     S
C420   O458    1.414   .     S
C421   H449    1.082   .     S
C421   C423    1.394   .     A
C422   H429    1.083   .     S
C422   C1114   1.398   1_554 S
C423   H440    1.074   .     S
C423   C1116   1.404   .     S
C424   H450    1.084   .     S
C424   C660    1.370   .     S
C425   H451    1.084   .     S
C426   H452    1.084   .     S
H437   C262    1.110   1_655 S
H438   C262    1.112   1_655 S
N453   Zn467   2.021   .     S
N454   Zn468   2.021   .     S
O455   Zn467   2.000   .     S
O459   Zn468   2.000   .     S
O460   Zn468   1.999   .     S
O461   Zn467   1.999   .     S
O462   Zn467   1.969   .     S
O463   Zn468   1.969   .     S
O464   Zn468   1.953   .     S
O465   Zn467   1.953   .     S
C469   O533    1.288   .     A
C469   O538    1.288   .     A
C469   C472    1.419   .     S
C470   C472    1.397   .     A
C470   H508    1.084   .     S
C470   C35     1.370   1_565 S
C471   C480    1.420   .     S
C471   C503    1.397   .     A
C471   C504    1.397   .     A
C472   C502    1.397   .     A
C473   F505    1.355   .     S
C473   N532    1.369   .     A
C473   C553    1.421   .     S
C474   F506    1.355   .     S
C474   N531    1.369   .     A
C474   C632    1.421   1_455 S
C475   N531    1.367   .     A
C475   H509    1.082   .     S
C475   C629    1.421   1_455 S
C476   H510    1.082   .     S
C476   N532    1.367   .     A
C476   C552    1.421   .     S
C477   O540    1.294   .     A
C477   C479    1.462   .     S
C477   O542    1.301   .     A
C478   O541    1.297   .     A
C478   O543    1.295   .     A
C478   C481    1.461   .     S
C479   C486    1.401   .     A
C479   C484    1.413   .     A
C480   O537    1.288   .     A
C480   O539    1.288   .     A
C481   C487    1.395   .     A
C481   C485    1.412   .     A
C482   O535    1.374   .     S
C482   C484    1.398   .     A
C482   C490    1.394   .     A
C483   C492    1.414   .     A
C483   C485    1.407   .     A
C483   O536    1.380   .     S
C484   O534    1.385   .     S
C485   O544    1.386   .     S
C486   C488    1.397   .     A
C486   H525    1.083   .     S
C487   H524    1.084   .     S
C487   C489    1.388   .     A
C488   C493    1.402   .     A
C488   C490    1.406   .     A
C489   C494    1.400   .     A
C489   C492    1.408   .     A
C490   C1202   1.398   .     S
C491   H526    1.082   .     S
C491   C494    1.411   .     A
C491   C500    1.392   .     A
C492   C1203   1.404   1_554 S
C493   C499    1.407   .     A
C493   C1196   1.408   .     S
C494   C1195   1.408   1_554 S
C495   H512    1.115   .     S
C495   H513    1.109   .     S
C495   H511    1.109   .     S
C495   O544    1.412   .     S
C496   H514    1.114   .     S
C496   O534    1.410   .     S
C496   H671    1.110   1_455 S
C496   H672    1.112   1_455 S
C497   H517    1.114   .     S
C497   O535    1.421   .     S
C497   H519    1.113   .     S
C497   H520    1.106   .     S
C498   H522    1.114   .     S
C498   H521    1.109   .     S
C498   H523    1.111   .     S
C498   O536    1.414   .     S
C499   H527    1.082   .     S
C499   C501    1.394   .     A
C500   H507    1.083   .     S
C500   C1192   1.398   1_554 S
C501   H518    1.074   .     S
C501   C1194   1.404   .     S
C502   H528    1.084   .     S
C502   C36     1.370   1_565 S
C503   H529    1.084   .     S
C504   H530    1.084   .     S
H515   C574    1.110   .     S
H516   C574    1.112   .     S
N531   Zn545   2.021   .     S
N532   Zn546   2.021   .     S
O533   Zn545   2.000   .     S
O537   Zn546   2.000   .     S
O538   Zn546   1.999   .     S
O539   Zn545   1.999   .     S
O540   Zn545   1.969   .     S
O541   Zn546   1.969   .     S
O542   Zn546   1.953   .     S
O543   Zn545   1.953   .     S
C547   O611    1.288   .     A
C547   O616    1.288   .     A
C547   C550    1.419   .     S
C548   C550    1.397   .     A
C548   H586    1.084   .     S
C548   C113    1.370   1_565 S
C549   C558    1.420   .     S
C549   C581    1.397   .     A
C549   C582    1.397   .     A
C550   C580    1.397   .     A
C551   F583    1.355   .     S
C551   N610    1.369   .     A
C551   C631    1.421   .     S
C552   F584    1.355   .     S
C552   N609    1.369   .     A
C553   N609    1.367   .     A
C553   H587    1.082   .     S
C554   H588    1.082   .     S
C554   N610    1.367   .     A
C554   C630    1.421   .     S
C555   O618    1.294   .     A
C555   C557    1.462   .     S
C555   O620    1.301   .     A
C556   O619    1.297   .     A
C556   O621    1.295   .     A
C556   C559    1.461   .     S
C557   C564    1.401   .     A
C557   C562    1.413   .     A
C558   O615    1.288   .     A
C558   O617    1.288   .     A
C559   C565    1.395   .     A
C559   C563    1.412   .     A
C560   O613    1.374   .     S
C560   C562    1.398   .     A
C560   C568    1.394   .     A
C561   C570    1.414   .     A
C561   C563    1.407   .     A
C561   O614    1.380   .     S
C562   O612    1.385   .     S
C563   O622    1.386   .     S
C564   C566    1.397   .     A
C564   H603    1.083   .     S
C565   H602    1.084   .     S
C565   C567    1.388   .     A
C566   C571    1.402   .     A
C566   C568    1.406   .     A
C567   C572    1.400   .     A
C567   C570    1.408   .     A
C568   C1280   1.398   .     S
C569   H604    1.082   .     S
C569   C572    1.411   .     A
C569   C578    1.392   .     A
C570   C1281   1.404   1_554 S
C571   C577    1.407   .     A
C571   C1274   1.408   .     S
C572   C1273   1.408   1_554 S
C573   H590    1.115   .     S
C573   H591    1.109   .     S
C573   H589    1.109   .     S
C573   O622    1.412   .     S
C574   H592    1.114   .     S
C574   O612    1.410   .     S
C575   H595    1.114   .     S
C575   O613    1.421   .     S
C575   H597    1.113   .     S
C575   H598    1.106   .     S
C576   H600    1.114   .     S
C576   H599    1.109   .     S
C576   H601    1.111   .     S
C576   O614    1.414   .     S
C577   H605    1.082   .     S
C577   C579    1.394   .     A
C578   H585    1.083   .     S
C578   C1270   1.398   1_554 S
C579   H596    1.074   .     S
C579   C1272   1.404   .     S
C580   H606    1.084   .     S
C580   C114    1.370   1_565 S
C581   H607    1.084   .     S
C582   H608    1.084   .     S
H593   C652    1.110   .     S
H594   C652    1.112   .     S
N609   Zn623   2.021   .     S
N610   Zn624   2.021   .     S
O611   Zn623   2.000   .     S
O615   Zn624   2.000   .     S
O616   Zn624   1.999   .     S
O617   Zn623   1.999   .     S
O618   Zn623   1.969   .     S
O619   Zn624   1.969   .     S
O620   Zn624   1.953   .     S
O621   Zn623   1.953   .     S
C625   O689    1.288   .     A
C625   O694    1.288   .     A
C625   C628    1.419   .     S
C626   C628    1.397   .     A
C626   H664    1.084   .     S
C626   C191    1.370   1_565 S
C627   C636    1.420   .     S
C627   C659    1.397   .     A
C627   C660    1.397   .     A
C628   C658    1.397   .     A
C629   F661    1.355   .     S
C629   N688    1.369   .     A
C629   C475    1.421   1_655 S
C630   F662    1.355   .     S
C630   N687    1.369   .     A
C631   N687    1.367   .     A
C631   H665    1.082   .     S
C632   H666    1.082   .     S
C632   N688    1.367   .     A
C632   C474    1.421   1_655 S
C633   O696    1.294   .     A
C633   C635    1.462   .     S
C633   O698    1.301   .     A
C634   O697    1.297   .     A
C634   O699    1.295   .     A
C634   C637    1.461   .     S
C635   C642    1.401   .     A
C635   C640    1.413   .     A
C636   O693    1.288   .     A
C636   O695    1.288   .     A
C637   C643    1.395   .     A
C637   C641    1.412   .     A
C638   O691    1.374   .     S
C638   C640    1.398   .     A
C638   C646    1.394   .     A
C639   C648    1.414   .     A
C639   C641    1.407   .     A
C639   O692    1.380   .     S
C640   O690    1.385   .     S
C641   O700    1.386   .     S
C642   C644    1.397   .     A
C642   H681    1.083   .     S
C643   H680    1.084   .     S
C643   C645    1.388   .     A
C644   C649    1.402   .     A
C644   C646    1.406   .     A
C645   C650    1.400   .     A
C645   C648    1.408   .     A
C646   C1358   1.398   .     S
C647   H682    1.082   .     S
C647   C650    1.411   .     A
C647   C656    1.392   .     A
C648   C1359   1.404   1_554 S
C649   C655    1.407   .     A
C649   C1352   1.408   .     S
C650   C1351   1.408   1_554 S
C651   H668    1.115   .     S
C651   H669    1.109   .     S
C651   H667    1.109   .     S
C651   O700    1.412   .     S
C652   H670    1.114   .     S
C652   O690    1.410   .     S
C653   H673    1.114   .     S
C653   O691    1.421   .     S
C653   H675    1.113   .     S
C653   H676    1.106   .     S
C654   H678    1.114   .     S
C654   H677    1.109   .     S
C654   H679    1.111   .     S
C654   O692    1.414   .     S
C655   H683    1.082   .     S
C655   C657    1.394   .     A
C656   H663    1.083   .     S
C656   C1348   1.398   1_554 S
C657   H674    1.074   .     S
C657   C1350   1.404   .     S
C658   H684    1.084   .     S
C658   C192    1.370   1_565 S
C659   H685    1.084   .     S
C660   H686    1.084   .     S
H671   C496    1.110   1_655 S
H672   C496    1.112   1_655 S
N687   Zn701   2.021   .     S
N688   Zn702   2.021   .     S
O689   Zn701   2.000   .     S
O693   Zn702   2.000   .     S
O694   Zn702   1.999   .     S
O695   Zn701   1.999   .     S
O696   Zn701   1.969   .     S
O697   Zn702   1.969   .     S
O698   Zn702   1.953   .     S
O699   Zn701   1.953   .     S
C703   O767    1.288   .     A
C703   O772    1.288   .     A
C703   C706    1.419   .     S
C704   C706    1.397   .     A
C704   H742    1.084   .     S
C704   C971    1.370   .     S
C705   C714    1.420   .     S
C705   C737    1.397   .     A
C705   C738    1.397   .     A
C706   C736    1.397   .     A
C707   F739    1.355   .     S
C707   N766    1.369   .     A
C707   C787    1.421   .     S
C708   F740    1.355   .     S
C708   N765    1.369   .     A
C708   C866    1.421   1_455 S
C709   N765    1.367   .     A
C709   H743    1.082   .     S
C709   C863    1.421   1_455 S
C710   H744    1.082   .     S
C710   N766    1.367   .     A
C710   C786    1.421   .     S
C711   O774    1.294   .     A
C711   C713    1.462   .     S
C711   O776    1.301   .     A
C712   O775    1.297   .     A
C712   O777    1.295   .     A
C712   C715    1.461   .     S
C713   C720    1.401   .     A
C713   C718    1.413   .     A
C714   O771    1.288   .     A
C714   O773    1.288   .     A
C715   C721    1.395   .     A
C715   C719    1.412   .     A
C716   O769    1.374   .     S
C716   C718    1.398   .     A
C716   C724    1.394   .     A
C717   C726    1.414   .     A
C717   C719    1.407   .     A
C717   O770    1.380   .     S
C718   O768    1.385   .     S
C719   O778    1.386   .     S
C720   C722    1.397   .     A
C720   H759    1.083   .     S
C721   H758    1.084   .     S
C721   C723    1.388   .     A
C722   C727    1.402   .     A
C722   C724    1.406   .     A
C723   C728    1.400   .     A
C723   C726    1.408   .     A
C724   C32     1.398   1_556 S
C725   H760    1.082   .     S
C725   C728    1.411   .     A
C725   C734    1.392   .     A
C727   C733    1.407   .     A
C727   C26     1.408   1_556 S
C729   H746    1.115   .     S
C729   H747    1.109   .     S
C729   H745    1.109   .     S
C729   O778    1.412   .     S
C730   H748    1.114   .     S
C730   O768    1.410   .     S
C730   H905    1.110   1_455 S
C730   H906    1.112   1_455 S
C731   H751    1.114   .     S
C731   O769    1.421   .     S
C731   H753    1.113   .     S
C731   H754    1.106   .     S
C732   H756    1.114   .     S
C732   H755    1.109   .     S
C732   H757    1.111   .     S
C732   O770    1.414   .     S
C733   H761    1.082   .     S
C733   C735    1.394   .     A
C734   H741    1.083   .     S
C735   H752    1.074   .     S
C735   C24     1.404   1_556 S
C736   H762    1.084   .     S
C736   C972    1.370   .     S
C737   H763    1.084   .     S
C737   C1172   1.370   1_545 S
C738   H764    1.084   .     S
C738   C1204   1.370   1_545 S
H749   C808    1.110   .     S
H750   C808    1.112   .     S
N765   Zn779   2.021   .     S
N766   Zn780   2.021   .     S
O767   Zn779   2.000   .     S
O771   Zn780   2.000   .     S
O772   Zn780   1.999   .     S
O773   Zn779   1.999   .     S
O774   Zn779   1.969   .     S
O775   Zn780   1.969   .     S
O776   Zn780   1.953   .     S
O777   Zn779   1.953   .     S
C781   O845    1.288   .     A
C781   O850    1.288   .     A
C781   C784    1.419   .     S
C782   C784    1.397   .     A
C782   H820    1.084   .     S
C782   C1049   1.370   .     S
C783   C792    1.420   .     S
C783   C815    1.397   .     A
C783   C816    1.397   .     A
C784   C814    1.397   .     A
C785   F817    1.355   .     S
C785   N844    1.369   .     A
C785   C865    1.421   .     S
C786   F818    1.355   .     S
C786   N843    1.369   .     A
C787   N843    1.367   .     A
C787   H821    1.082   .     S
C788   H822    1.082   .     S
C788   N844    1.367   .     A
C788   C864    1.421   .     S
C789   O852    1.294   .     A
C789   C791    1.462   .     S
C789   O854    1.301   .     A
C790   O853    1.297   .     A
C790   O855    1.295   .     A
C790   C793    1.461   .     S
C791   C798    1.401   .     A
C791   C796    1.413   .     A
C792   O849    1.288   .     A
C792   O851    1.288   .     A
C793   C799    1.395   .     A
C793   C797    1.412   .     A
C794   O847    1.374   .     S
C794   C796    1.398   .     A
C794   C802    1.394   .     A
C795   C804    1.414   .     A
C795   C797    1.407   .     A
C795   O848    1.380   .     S
C796   O846    1.385   .     S
C797   O856    1.386   .     S
C798   C800    1.397   .     A
C798   H837    1.083   .     S
C799   H836    1.084   .     S
C799   C801    1.388   .     A
C800   C805    1.402   .     A
C800   C802    1.406   .     A
C801   C806    1.400   .     A
C801   C804    1.408   .     A
C802   C110    1.398   1_556 S
C803   H838    1.082   .     S
C803   C806    1.411   .     A
C803   C812    1.392   .     A
C805   C811    1.407   .     A
C805   C104    1.408   1_556 S
C807   H824    1.115   .     S
C807   H825    1.109   .     S
C807   H823    1.109   .     S
C807   O856    1.412   .     S
C808   H826    1.114   .     S
C808   O846    1.410   .     S
C809   H829    1.114   .     S
C809   O847    1.421   .     S
C809   H831    1.113   .     S
C809   H832    1.106   .     S
C810   H834    1.114   .     S
C810   H833    1.109   .     S
C810   H835    1.111   .     S
C810   O848    1.414   .     S
C811   H839    1.082   .     S
C811   C813    1.394   .     A
C812   H819    1.083   .     S
C813   H830    1.074   .     S
C813   C102    1.404   1_556 S
C814   H840    1.084   .     S
C814   C1050   1.370   .     S
C815   H841    1.084   .     S
C815   C1250   1.370   1_545 S
C816   H842    1.084   .     S
C816   C1282   1.370   1_545 S
H827   C886    1.110   .     S
H828   C886    1.112   .     S
N843   Zn857   2.021   .     S
N844   Zn858   2.021   .     S
O845   Zn857   2.000   .     S
O849   Zn858   2.000   .     S
O850   Zn858   1.999   .     S
O851   Zn857   1.999   .     S
O852   Zn857   1.969   .     S
O853   Zn858   1.969   .     S
O854   Zn858   1.953   .     S
O855   Zn857   1.953   .     S
C859   O923    1.288   .     A
C859   O928    1.288   .     A
C859   C862    1.419   .     S
C860   C862    1.397   .     A
C860   H898    1.084   .     S
C860   C1127   1.370   .     S
C861   C870    1.420   .     S
C861   C893    1.397   .     A
C861   C894    1.397   .     A
C862   C892    1.397   .     A
C863   F895    1.355   .     S
C863   N922    1.369   .     A
C863   C709    1.421   1_655 S
C864   F896    1.355   .     S
C864   N921    1.369   .     A
C865   N921    1.367   .     A
C865   H899    1.082   .     S
C866   H900    1.082   .     S
C866   N922    1.367   .     A
C866   C708    1.421   1_655 S
C867   O930    1.294   .     A
C867   C869    1.462   .     S
C867   O932    1.301   .     A
C868   O931    1.297   .     A
C868   O933    1.295   .     A
C868   C871    1.461   .     S
C869   C876    1.401   .     A
C869   C874    1.413   .     A
C870   O927    1.288   .     A
C870   O929    1.288   .     A
C871   C877    1.395   .     A
C871   C875    1.412   .     A
C872   O925    1.374   .     S
C872   C874    1.398   .     A
C872   C880    1.394   .     A
C873   C882    1.414   .     A
C873   C875    1.407   .     A
C873   O926    1.380   .     S
C874   O924    1.385   .     S
C875   O934    1.386   .     S
C876   C878    1.397   .     A
C876   H915    1.083   .     S
C877   H914    1.084   .     S
C877   C879    1.388   .     A
C878   C883    1.402   .     A
C878   C880    1.406   .     A
C879   C884    1.400   .     A
C879   C882    1.408   .     A
C880   C188    1.398   1_556 S
C881   H916    1.082   .     S
C881   C884    1.411   .     A
C881   C890    1.392   .     A
C883   C889    1.407   .     A
C883   C182    1.408   1_556 S
C885   H902    1.115   .     S
C885   H903    1.109   .     S
C885   H901    1.109   .     S
C885   O934    1.412   .     S
C886   H904    1.114   .     S
C886   O924    1.410   .     S
C887   H907    1.114   .     S
C887   O925    1.421   .     S
C887   H909    1.113   .     S
C887   H910    1.106   .     S
C888   H912    1.114   .     S
C888   H911    1.109   .     S
C888   H913    1.111   .     S
C888   O926    1.414   .     S
C889   H917    1.082   .     S
C889   C891    1.394   .     A
C890   H897    1.083   .     S
C891   H908    1.074   .     S
C891   C180    1.404   1_556 S
C892   H918    1.084   .     S
C892   C1128   1.370   .     S
C893   H919    1.084   .     S
C893   C1328   1.370   1_545 S
C894   H920    1.084   .     S
C894   C1360   1.370   1_545 S
H905   C730    1.110   1_655 S
H906   C730    1.112   1_655 S
N921   Zn935   2.021   .     S
N922   Zn936   2.021   .     S
O923   Zn935   2.000   .     S
O927   Zn936   2.000   .     S
O928   Zn936   1.999   .     S
O929   Zn935   1.999   .     S
O930   Zn935   1.969   .     S
O931   Zn936   1.969   .     S
O932   Zn936   1.953   .     S
O933   Zn935   1.953   .     S
C937   O1001   1.288   .     A
C937   O1006   1.288   .     A
C937   C940    1.419   .     S
C938   C940    1.397   .     A
C938   H976    1.084   .     S
C938   C1205   1.370   .     S
C939   C948    1.420   .     S
C939   C971    1.397   .     A
C939   C972    1.397   .     A
C940   C970    1.397   .     A
C941   F973    1.355   .     S
C941   N1000   1.369   .     A
C941   C1021   1.421   .     S
C942   F974    1.355   .     S
C942   N999    1.369   .     A
C942   C1100   1.421   1_455 S
C943   N999    1.367   .     A
C943   H977    1.082   .     S
C943   C1097   1.421   1_455 S
C944   H978    1.082   .     S
C944   N1000   1.367   .     A
C944   C1020   1.421   .     S
C945   O1008   1.294   .     A
C945   C947    1.462   .     S
C945   O1010   1.301   .     A
C946   O1009   1.297   .     A
C946   O1011   1.295   .     A
C946   C949    1.461   .     S
C947   C954    1.401   .     A
C947   C952    1.413   .     A
C948   O1005   1.288   .     A
C948   O1007   1.288   .     A
C949   C955    1.395   .     A
C949   C953    1.412   .     A
C950   O1003   1.374   .     S
C950   C952    1.398   .     A
C950   C958    1.394   .     A
C951   C960    1.414   .     A
C951   C953    1.407   .     A
C951   O1004   1.380   .     S
C952   O1002   1.385   .     S
C953   O1012   1.386   .     S
C954   C956    1.397   .     A
C954   H993    1.083   .     S
C955   H992    1.084   .     S
C955   C957    1.388   .     A
C956   C961    1.402   .     A
C956   C958    1.406   .     A
C957   C962    1.400   .     A
C957   C960    1.408   .     A
C958   C266    1.398   1_556 S
C959   H994    1.082   .     S
C959   C962    1.411   .     A
C959   C968    1.392   .     A
C961   C967    1.407   .     A
C961   C260    1.408   1_556 S
C963   H980    1.115   .     S
C963   H981    1.109   .     S
C963   H979    1.109   .     S
C963   O1012   1.412   .     S
C964   H982    1.114   .     S
C964   O1002   1.410   .     S
C964   H1139   1.110   1_455 S
C964   H1140   1.112   1_455 S
C965   H985    1.114   .     S
C965   O1003   1.421   .     S
C965   H987    1.113   .     S
C965   H988    1.106   .     S
C966   H990    1.114   .     S
C966   H989    1.109   .     S
C966   H991    1.111   .     S
C966   O1004   1.414   .     S
C967   H995    1.082   .     S
C967   C969    1.394   .     A
C968   H975    1.083   .     S
C969   H986    1.074   .     S
C969   C258    1.404   1_556 S
C970   H996    1.084   .     S
C970   C1206   1.370   .     S
C971   H997    1.084   .     S
C972   H998    1.084   .     S
H983   C1042   1.110   .     S
H984   C1042   1.112   .     S
N999   Zn1013  2.021   .     S
N1000  Zn1014  2.021   .     S
O1001  Zn1013  2.000   .     S
O1005  Zn1014  2.000   .     S
O1006  Zn1014  1.999   .     S
O1007  Zn1013  1.999   .     S
O1008  Zn1013  1.969   .     S
O1009  Zn1014  1.969   .     S
O1010  Zn1014  1.953   .     S
O1011  Zn1013  1.953   .     S
C1015  O1079   1.288   .     A
C1015  O1084   1.288   .     A
C1015  C1018   1.419   .     S
C1016  C1018   1.397   .     A
C1016  H1054   1.084   .     S
C1016  C1283   1.370   .     S
C1017  C1026   1.420   .     S
C1017  C1049   1.397   .     A
C1017  C1050   1.397   .     A
C1018  C1048   1.397   .     A
C1019  F1051   1.355   .     S
C1019  N1078   1.369   .     A
C1019  C1099   1.421   .     S
C1020  F1052   1.355   .     S
C1020  N1077   1.369   .     A
C1021  N1077   1.367   .     A
C1021  H1055   1.082   .     S
C1022  H1056   1.082   .     S
C1022  N1078   1.367   .     A
C1022  C1098   1.421   .     S
C1023  O1086   1.294   .     A
C1023  C1025   1.462   .     S
C1023  O1088   1.301   .     A
C1024  O1087   1.297   .     A
C1024  O1089   1.295   .     A
C1024  C1027   1.461   .     S
C1025  C1032   1.401   .     A
C1025  C1030   1.413   .     A
C1026  O1083   1.288   .     A
C1026  O1085   1.288   .     A
C1027  C1033   1.395   .     A
C1027  C1031   1.412   .     A
C1028  O1081   1.374   .     S
C1028  C1030   1.398   .     A
C1028  C1036   1.394   .     A
C1029  C1038   1.414   .     A
C1029  C1031   1.407   .     A
C1029  O1082   1.380   .     S
C1030  O1080   1.385   .     S
C1031  O1090   1.386   .     S
C1032  C1034   1.397   .     A
C1032  H1071   1.083   .     S
C1033  H1070   1.084   .     S
C1033  C1035   1.388   .     A
C1034  C1039   1.402   .     A
C1034  C1036   1.406   .     A
C1035  C1040   1.400   .     A
C1035  C1038   1.408   .     A
C1036  C344    1.398   1_556 S
C1037  H1072   1.082   .     S
C1037  C1040   1.411   .     A
C1037  C1046   1.392   .     A
C1039  C1045   1.407   .     A
C1039  C338    1.408   1_556 S
C1041  H1058   1.115   .     S
C1041  H1059   1.109   .     S
C1041  H1057   1.109   .     S
C1041  O1090   1.412   .     S
C1042  H1060   1.114   .     S
C1042  O1080   1.410   .     S
C1043  H1063   1.114   .     S
C1043  O1081   1.421   .     S
C1043  H1065   1.113   .     S
C1043  H1066   1.106   .     S
C1044  H1068   1.114   .     S
C1044  H1067   1.109   .     S
C1044  H1069   1.111   .     S
C1044  O1082   1.414   .     S
C1045  H1073   1.082   .     S
C1045  C1047   1.394   .     A
C1046  H1053   1.083   .     S
C1047  H1064   1.074   .     S
C1047  C336    1.404   1_556 S
C1048  H1074   1.084   .     S
C1048  C1284   1.370   .     S
C1049  H1075   1.084   .     S
C1050  H1076   1.084   .     S
H1061  C1120   1.110   .     S
H1062  C1120   1.112   .     S
N1077  Zn1091  2.021   .     S
N1078  Zn1092  2.021   .     S
O1079  Zn1091  2.000   .     S
O1083  Zn1092  2.000   .     S
O1084  Zn1092  1.999   .     S
O1085  Zn1091  1.999   .     S
O1086  Zn1091  1.969   .     S
O1087  Zn1092  1.969   .     S
O1088  Zn1092  1.953   .     S
O1089  Zn1091  1.953   .     S
C1093  O1157   1.288   .     A
C1093  O1162   1.288   .     A
C1093  C1096   1.419   .     S
C1094  C1096   1.397   .     A
C1094  H1132   1.084   .     S
C1094  C1361   1.370   .     S
C1095  C1104   1.420   .     S
C1095  C1127   1.397   .     A
C1095  C1128   1.397   .     A
C1096  C1126   1.397   .     A
C1097  F1129   1.355   .     S
C1097  N1156   1.369   .     A
C1097  C943    1.421   1_655 S
C1098  F1130   1.355   .     S
C1098  N1155   1.369   .     A
C1099  N1155   1.367   .     A
C1099  H1133   1.082   .     S
C1100  H1134   1.082   .     S
C1100  N1156   1.367   .     A
C1100  C942    1.421   1_655 S
C1101  O1164   1.294   .     A
C1101  C1103   1.462   .     S
C1101  O1166   1.301   .     A
C1102  O1165   1.297   .     A
C1102  O1167   1.295   .     A
C1102  C1105   1.461   .     S
C1103  C1110   1.401   .     A
C1103  C1108   1.413   .     A
C1104  O1161   1.288   .     A
C1104  O1163   1.288   .     A
C1105  C1111   1.395   .     A
C1105  C1109   1.412   .     A
C1106  O1159   1.374   .     S
C1106  C1108   1.398   .     A
C1106  C1114   1.394   .     A
C1107  C1116   1.414   .     A
C1107  C1109   1.407   .     A
C1107  O1160   1.380   .     S
C1108  O1158   1.385   .     S
C1109  O1168   1.386   .     S
C1110  C1112   1.397   .     A
C1110  H1149   1.083   .     S
C1111  H1148   1.084   .     S
C1111  C1113   1.388   .     A
C1112  C1117   1.402   .     A
C1112  C1114   1.406   .     A
C1113  C1118   1.400   .     A
C1113  C1116   1.408   .     A
C1114  C422    1.398   1_556 S
C1115  H1150   1.082   .     S
C1115  C1118   1.411   .     A
C1115  C1124   1.392   .     A
C1117  C1123   1.407   .     A
C1117  C416    1.408   1_556 S
C1119  H1136   1.115   .     S
C1119  H1137   1.109   .     S
C1119  H1135   1.109   .     S
C1119  O1168   1.412   .     S
C1120  H1138   1.114   .     S
C1120  O1158   1.410   .     S
C1121  H1141   1.114   .     S
C1121  O1159   1.421   .     S
C1121  H1143   1.113   .     S
C1121  H1144   1.106   .     S
C1122  H1146   1.114   .     S
C1122  H1145   1.109   .     S
C1122  H1147   1.111   .     S
C1122  O1160   1.414   .     S
C1123  H1151   1.082   .     S
C1123  C1125   1.394   .     A
C1124  H1131   1.083   .     S
C1125  H1142   1.074   .     S
C1125  C414    1.404   1_556 S
C1126  H1152   1.084   .     S
C1126  C1362   1.370   .     S
C1127  H1153   1.084   .     S
C1128  H1154   1.084   .     S
H1139  C964    1.110   1_655 S
H1140  C964    1.112   1_655 S
N1155  Zn1169  2.021   .     S
N1156  Zn1170  2.021   .     S
O1157  Zn1169  2.000   .     S
O1161  Zn1170  2.000   .     S
O1162  Zn1170  1.999   .     S
O1163  Zn1169  1.999   .     S
O1164  Zn1169  1.969   .     S
O1165  Zn1170  1.969   .     S
O1166  Zn1170  1.953   .     S
O1167  Zn1169  1.953   .     S
C1171  O1235   1.288   .     A
C1171  O1240   1.288   .     A
C1171  C1174   1.419   .     S
C1172  C1174   1.397   .     A
C1172  H1210   1.084   .     S
C1172  C737    1.370   1_565 S
C1173  C1182   1.420   .     S
C1173  C1205   1.397   .     A
C1173  C1206   1.397   .     A
C1174  C1204   1.397   .     A
C1175  F1207   1.355   .     S
C1175  N1234   1.369   .     A
C1175  C1255   1.421   .     S
C1176  F1208   1.355   .     S
C1176  N1233   1.369   .     A
C1176  C1334   1.421   1_455 S
C1177  N1233   1.367   .     A
C1177  H1211   1.082   .     S
C1177  C1331   1.421   1_455 S
C1178  H1212   1.082   .     S
C1178  N1234   1.367   .     A
C1178  C1254   1.421   .     S
C1179  O1242   1.294   .     A
C1179  C1181   1.462   .     S
C1179  O1244   1.301   .     A
C1180  O1243   1.297   .     A
C1180  O1245   1.295   .     A
C1180  C1183   1.461   .     S
C1181  C1188   1.401   .     A
C1181  C1186   1.413   .     A
C1182  O1239   1.288   .     A
C1182  O1241   1.288   .     A
C1183  C1189   1.395   .     A
C1183  C1187   1.412   .     A
C1184  O1237   1.374   .     S
C1184  C1186   1.398   .     A
C1184  C1192   1.394   .     A
C1185  C1194   1.414   .     A
C1185  C1187   1.407   .     A
C1185  O1238   1.380   .     S
C1186  O1236   1.385   .     S
C1187  O1246   1.386   .     S
C1188  C1190   1.397   .     A
C1188  H1227   1.083   .     S
C1189  H1226   1.084   .     S
C1189  C1191   1.388   .     A
C1190  C1195   1.402   .     A
C1190  C1192   1.406   .     A
C1191  C1196   1.400   .     A
C1191  C1194   1.408   .     A
C1192  C500    1.398   1_556 S
C1193  H1228   1.082   .     S
C1193  C1196   1.411   .     A
C1193  C1202   1.392   .     A
C1195  C1201   1.407   .     A
C1195  C494    1.408   1_556 S
C1197  H1214   1.115   .     S
C1197  H1215   1.109   .     S
C1197  H1213   1.109   .     S
C1197  O1246   1.412   .     S
C1198  H1216   1.114   .     S
C1198  O1236   1.410   .     S
C1198  H1373   1.110   1_455 S
C1198  H1374   1.112   1_455 S
C1199  H1219   1.114   .     S
C1199  O1237   1.421   .     S
C1199  H1221   1.113   .     S
C1199  H1222   1.106   .     S
C1200  H1224   1.114   .     S
C1200  H1223   1.109   .     S
C1200  H1225   1.111   .     S
C1200  O1238   1.414   .     S
C1201  H1229   1.082   .     S
C1201  C1203   1.394   .     A
C1202  H1209   1.083   .     S
C1203  H1220   1.074   .     S
C1203  C492    1.404   1_556 S
C1204  H1230   1.084   .     S
C1204  C738    1.370   1_565 S
C1205  H1231   1.084   .     S
C1206  H1232   1.084   .     S
H1217  C1276   1.110   .     S
H1218  C1276   1.112   .     S
N1233  Zn1247  2.021   .     S
N1234  Zn1248  2.021   .     S
O1235  Zn1247  2.000   .     S
O1239  Zn1248  2.000   .     S
O1240  Zn1248  1.999   .     S
O1241  Zn1247  1.999   .     S
O1242  Zn1247  1.969   .     S
O1243  Zn1248  1.969   .     S
O1244  Zn1248  1.953   .     S
O1245  Zn1247  1.953   .     S
C1249  O1313   1.288   .     A
C1249  O1318   1.288   .     A
C1249  C1252   1.419   .     S
C1250  C1252   1.397   .     A
C1250  H1288   1.084   .     S
C1250  C815    1.370   1_565 S
C1251  C1260   1.420   .     S
C1251  C1283   1.397   .     A
C1251  C1284   1.397   .     A
C1252  C1282   1.397   .     A
C1253  F1285   1.355   .     S
C1253  N1312   1.369   .     A
C1253  C1333   1.421   .     S
C1254  F1286   1.355   .     S
C1254  N1311   1.369   .     A
C1255  N1311   1.367   .     A
C1255  H1289   1.082   .     S
C1256  H1290   1.082   .     S
C1256  N1312   1.367   .     A
C1256  C1332   1.421   .     S
C1257  O1320   1.294   .     A
C1257  C1259   1.462   .     S
C1257  O1322   1.301   .     A
C1258  O1321   1.297   .     A
C1258  O1323   1.295   .     A
C1258  C1261   1.461   .     S
C1259  C1266   1.401   .     A
C1259  C1264   1.413   .     A
C1260  O1317   1.288   .     A
C1260  O1319   1.288   .     A
C1261  C1267   1.395   .     A
C1261  C1265   1.412   .     A
C1262  O1315   1.374   .     S
C1262  C1264   1.398   .     A
C1262  C1270   1.394   .     A
C1263  C1272   1.414   .     A
C1263  C1265   1.407   .     A
C1263  O1316   1.380   .     S
C1264  O1314   1.385   .     S
C1265  O1324   1.386   .     S
C1266  C1268   1.397   .     A
C1266  H1305   1.083   .     S
C1267  H1304   1.084   .     S
C1267  C1269   1.388   .     A
C1268  C1273   1.402   .     A
C1268  C1270   1.406   .     A
C1269  C1274   1.400   .     A
C1269  C1272   1.408   .     A
C1270  C578    1.398   1_556 S
C1271  H1306   1.082   .     S
C1271  C1274   1.411   .     A
C1271  C1280   1.392   .     A
C1273  C1279   1.407   .     A
C1273  C572    1.408   1_556 S
C1275  H1292   1.115   .     S
C1275  H1293   1.109   .     S
C1275  H1291   1.109   .     S
C1275  O1324   1.412   .     S
C1276  H1294   1.114   .     S
C1276  O1314   1.410   .     S
C1277  H1297   1.114   .     S
C1277  O1315   1.421   .     S
C1277  H1299   1.113   .     S
C1277  H1300   1.106   .     S
C1278  H1302   1.114   .     S
C1278  H1301   1.109   .     S
C1278  H1303   1.111   .     S
C1278  O1316   1.414   .     S
C1279  H1307   1.082   .     S
C1279  C1281   1.394   .     A
C1280  H1287   1.083   .     S
C1281  H1298   1.074   .     S
C1281  C570    1.404   1_556 S
C1282  H1308   1.084   .     S
C1282  C816    1.370   1_565 S
C1283  H1309   1.084   .     S
C1284  H1310   1.084   .     S
H1295  C1354   1.110   .     S
H1296  C1354   1.112   .     S
N1311  Zn1325  2.021   .     S
N1312  Zn1326  2.021   .     S
O1313  Zn1325  2.000   .     S
O1317  Zn1326  2.000   .     S
O1318  Zn1326  1.999   .     S
O1319  Zn1325  1.999   .     S
O1320  Zn1325  1.969   .     S
O1321  Zn1326  1.969   .     S
O1322  Zn1326  1.953   .     S
O1323  Zn1325  1.953   .     S
C1327  O1391   1.288   .     A
C1327  O1396   1.288   .     A
C1327  C1330   1.419   .     S
C1328  C1330   1.397   .     A
C1328  H1366   1.084   .     S
C1328  C893    1.370   1_565 S
C1329  C1338   1.420   .     S
C1329  C1361   1.397   .     A
C1329  C1362   1.397   .     A
C1330  C1360   1.397   .     A
C1331  F1363   1.355   .     S
C1331  N1390   1.369   .     A
C1331  C1177   1.421   1_655 S
C1332  F1364   1.355   .     S
C1332  N1389   1.369   .     A
C1333  N1389   1.367   .     A
C1333  H1367   1.082   .     S
C1334  H1368   1.082   .     S
C1334  N1390   1.367   .     A
C1334  C1176   1.421   1_655 S
C1335  O1398   1.294   .     A
C1335  C1337   1.462   .     S
C1335  O1400   1.301   .     A
C1336  O1399   1.297   .     A
C1336  O1401   1.295   .     A
C1336  C1339   1.461   .     S
C1337  C1344   1.401   .     A
C1337  C1342   1.413   .     A
C1338  O1395   1.288   .     A
C1338  O1397   1.288   .     A
C1339  C1345   1.395   .     A
C1339  C1343   1.412   .     A
C1340  O1393   1.374   .     S
C1340  C1342   1.398   .     A
C1340  C1348   1.394   .     A
C1341  C1350   1.414   .     A
C1341  C1343   1.407   .     A
C1341  O1394   1.380   .     S
C1342  O1392   1.385   .     S
C1343  O1402   1.386   .     S
C1344  C1346   1.397   .     A
C1344  H1383   1.083   .     S
C1345  H1382   1.084   .     S
C1345  C1347   1.388   .     A
C1346  C1351   1.402   .     A
C1346  C1348   1.406   .     A
C1347  C1352   1.400   .     A
C1347  C1350   1.408   .     A
C1348  C656    1.398   1_556 S
C1349  H1384   1.082   .     S
C1349  C1352   1.411   .     A
C1349  C1358   1.392   .     A
C1351  C1357   1.407   .     A
C1351  C650    1.408   1_556 S
C1353  H1370   1.115   .     S
C1353  H1371   1.109   .     S
C1353  H1369   1.109   .     S
C1353  O1402   1.412   .     S
C1354  H1372   1.114   .     S
C1354  O1392   1.410   .     S
C1355  H1375   1.114   .     S
C1355  O1393   1.421   .     S
C1355  H1377   1.113   .     S
C1355  H1378   1.106   .     S
C1356  H1380   1.114   .     S
C1356  H1379   1.109   .     S
C1356  H1381   1.111   .     S
C1356  O1394   1.414   .     S
C1357  H1385   1.082   .     S
C1357  C1359   1.394   .     A
C1358  H1365   1.083   .     S
C1359  H1376   1.074   .     S
C1359  C648    1.404   1_556 S
C1360  H1386   1.084   .     S
C1360  C894    1.370   1_565 S
C1361  H1387   1.084   .     S
C1362  H1388   1.084   .     S
H1373  C1198   1.110   1_655 S
H1374  C1198   1.112   1_655 S
N1389  Zn1403  2.021   .     S
N1390  Zn1404  2.021   .     S
O1391  Zn1403  2.000   .     S
O1395  Zn1404  2.000   .     S
O1396  Zn1404  1.999   .     S
O1397  Zn1403  1.999   .     S
O1398  Zn1403  1.969   .     S
O1399  Zn1404  1.969   .     S
O1400  Zn1404  1.953   .     S
O1401  Zn1403  1.953   .     S
