data_str_m3_o2_o10_pcu_sym.116
_audit_creation_date              2020-01-03
_audit_creation_method            'Materials Studio'
_symmetry_space_group_name_H-M    'P1'
_symmetry_Int_Tables_number       1
_symmetry_cell_setting            triclinic
loop_
_symmetry_equiv_pos_as_xyz
  x,y,z
_cell_length_a                    25.7781
_cell_length_b                    29.6475
_cell_length_c                    28.3477
_cell_angle_alpha                 89.7818
_cell_angle_beta                  98.6558
_cell_angle_gamma                 90.0602
loop_
_atom_site_label
_atom_site_type_symbol
_atom_site_fract_x
_atom_site_fract_y
_atom_site_fract_z
_atom_site_U_iso_or_equiv
_atom_site_adp_type
_atom_site_occupancy
C1     C     0.16545   0.16362   0.24994   0.00000  Uiso   1.00
C2     C     0.16544   0.33639   0.24973   0.00000  Uiso   1.00
C3     C     0.12506   0.23067   0.04702   0.00000  Uiso   1.00
C4     C     0.19033   0.28511   0.45049   0.00000  Uiso   1.00
C5     C     0.12596   0.23091   0.09676   0.00000  Uiso   1.00
C6     C     0.19007   0.28439   0.40084   0.00000  Uiso   1.00
C7     C     0.20733   0.26909   0.10768   0.00000  Uiso   1.00
C8     C     0.14317   0.21565   0.39466   0.00000  Uiso   1.00
C9     C     0.20816   0.26930   0.05818   0.00000  Uiso   1.00
C10    C     0.14281   0.21491   0.44423   0.00000  Uiso   1.00
C11    C     0.16659   0.24998   0.02666   0.00000  Uiso   1.00
C12    C     0.16657   0.25000   0.47330   0.00000  Uiso   1.00
C13    C     0.06700   0.24998   0.23753   0.00000  Uiso   1.00
C14    C     0.26633   0.24999   0.26247   0.00000  Uiso   1.00
C15    C     0.01198   0.24997   0.23079   0.00000  Uiso   1.00
C16    C     0.32135   0.24995   0.26919   0.00000  Uiso   1.00
C17    C     0.11289   0.05101   0.27827   0.00000  Uiso   1.00
C18    C     0.11356   0.44911   0.20671   0.00000  Uiso   1.00
C19    C     0.12534   0.09676   0.28058   0.00000  Uiso   1.00
C20    C     0.12604   0.40337   0.20783   0.00000  Uiso   1.00
C21    C     0.15615   0.11570   0.24890   0.00000  Uiso   1.00
C22    C     0.15611   0.38432   0.24826   0.00000  Uiso   1.00
C23    C     0.17426   0.08951   0.21408   0.00000  Uiso   1.00
C24    C     0.17334   0.41040   0.28837   0.00000  Uiso   1.00
C25    C     0.16362   0.04389   0.21220   0.00000  Uiso   1.00
C26    C     0.16265   0.45600   0.28735   0.00000  Uiso   1.00
C27    C     0.13372   0.02442   0.24432   0.00000  Uiso   1.00
C28    C     0.13358   0.47558   0.24670   0.00000  Uiso   1.00
H29    H     0.10980   0.11809   0.30611   0.00000  Uiso   1.00
H30    H     0.11112   0.38216   0.17775   0.00000  Uiso   1.00
H31    H     0.19763   0.10413   0.18917   0.00000  Uiso   1.00
H32    H     0.19610   0.39571   0.31994   0.00000  Uiso   1.00
H33    H     0.18030   0.02333   0.18673   0.00000  Uiso   1.00
H34    H     0.17871   0.47648   0.31766   0.00000  Uiso   1.00
H35    H     0.09157   0.21598   0.02476   0.00000  Uiso   1.00
H36    H     0.20844   0.31342   0.47062   0.00000  Uiso   1.00
H37    H     0.09383   0.21590   0.11181   0.00000  Uiso   1.00
H38    H     0.20853   0.31155   0.38392   0.00000  Uiso   1.00
H39    H     0.24163   0.28399   0.04494   0.00000  Uiso   1.00
H40    H     0.12465   0.18662   0.45960   0.00000  Uiso   1.00
N41    N     0.16667   0.24999   0.12623   0.00000  Uiso   1.00
N42    N     0.16667   0.25001   0.37376   0.00000  Uiso   1.00
O43    O     0.16667   0.18453   0.28974   0.00000  Uiso   1.00
O44    O     0.16666   0.31547   0.21026   0.00000  Uiso   1.00
O45    O     0.16667   0.18453   0.21026   0.00000  Uiso   1.00
O46    O     0.16666   0.31547   0.28974   0.00000  Uiso   1.00
O47    O     0.09058   0.25000   0.28044   0.00000  Uiso   1.00
O48    O     0.24275   0.25000   0.21955   0.00000  Uiso   1.00
O49    O     0.09058   0.25000   0.20096   0.00000  Uiso   1.00
O50    O     0.24275   0.25000   0.29903   0.00000  Uiso   1.00
Zn51   Zn    0.16667   0.25000   0.30307   0.00000  Uiso   1.00
Zn52   Zn    0.16667   0.24999   0.19693   0.00000  Uiso   1.00
H53    H     0.32468   0.24999   0.19436   0.00000  Uiso   1.00
H54    H     0.00866   0.24991   0.30562   0.00000  Uiso   1.00
C55    C     0.07816   0.03239   0.31111   0.00000  Uiso   1.00
O56    O     0.05520   0.49659   0.30229   0.00000  Uiso   1.00
O57    O     0.07068   0.05651   0.35187   0.00000  Uiso   1.00
H58    H     0.04597   0.04068   0.37118   0.00000  Uiso   1.00
C59    C     0.07970   0.46786   0.16392   0.00000  Uiso   1.00
O60    O     0.05653   0.00358   0.16622   0.00000  Uiso   1.00
O61    O     0.07329   0.44397   0.12097   0.00000  Uiso   1.00
H62    H     0.04912   0.45989   0.09459   0.00000  Uiso   1.00
H63    H     0.23946   0.28417   0.13132   0.00000  Uiso   1.00
H64    H     0.12470   0.18852   0.37286   0.00000  Uiso   1.00
C65    C     0.49878   0.16362   0.24994   0.00000  Uiso   1.00
C66    C     0.49877   0.33639   0.24973   0.00000  Uiso   1.00
C67    C     0.45839   0.23067   0.04702   0.00000  Uiso   1.00
C68    C     0.52367   0.28511   0.45049   0.00000  Uiso   1.00
C69    C     0.45929   0.23091   0.09676   0.00000  Uiso   1.00
C70    C     0.52340   0.28439   0.40084   0.00000  Uiso   1.00
C71    C     0.54066   0.26909   0.10768   0.00000  Uiso   1.00
C72    C     0.47650   0.21565   0.39466   0.00000  Uiso   1.00
C73    C     0.54149   0.26930   0.05818   0.00000  Uiso   1.00
C74    C     0.47614   0.21491   0.44423   0.00000  Uiso   1.00
C75    C     0.49993   0.24998   0.02666   0.00000  Uiso   1.00
C76    C     0.49990   0.25000   0.47330   0.00000  Uiso   1.00
C77    C     0.40033   0.24998   0.23753   0.00000  Uiso   1.00
C78    C     0.59967   0.24999   0.26247   0.00000  Uiso   1.00
C79    C     0.34532   0.24997   0.23079   0.00000  Uiso   1.00
C80    C     0.65469   0.24995   0.26919   0.00000  Uiso   1.00
C81    C     0.44622   0.05101   0.27827   0.00000  Uiso   1.00
C82    C     0.44689   0.44911   0.20671   0.00000  Uiso   1.00
C83    C     0.45867   0.09676   0.28058   0.00000  Uiso   1.00
C84    C     0.45937   0.40337   0.20783   0.00000  Uiso   1.00
C85    C     0.48949   0.11570   0.24890   0.00000  Uiso   1.00
C86    C     0.48944   0.38432   0.24826   0.00000  Uiso   1.00
C87    C     0.50759   0.08951   0.21408   0.00000  Uiso   1.00
C88    C     0.50668   0.41040   0.28837   0.00000  Uiso   1.00
C89    C     0.49695   0.04389   0.21220   0.00000  Uiso   1.00
C90    C     0.49598   0.45600   0.28735   0.00000  Uiso   1.00
C91    C     0.46705   0.02442   0.24432   0.00000  Uiso   1.00
C92    C     0.46691   0.47558   0.24670   0.00000  Uiso   1.00
H93    H     0.44313   0.11809   0.30611   0.00000  Uiso   1.00
H94    H     0.44445   0.38216   0.17775   0.00000  Uiso   1.00
H95    H     0.53096   0.10413   0.18917   0.00000  Uiso   1.00
H96    H     0.52943   0.39571   0.31994   0.00000  Uiso   1.00
H97    H     0.51363   0.02333   0.18673   0.00000  Uiso   1.00
H98    H     0.51205   0.47648   0.31766   0.00000  Uiso   1.00
H99    H     0.42490   0.21598   0.02476   0.00000  Uiso   1.00
H100   H     0.54177   0.31342   0.47062   0.00000  Uiso   1.00
H101   H     0.42716   0.21590   0.11181   0.00000  Uiso   1.00
H102   H     0.54186   0.31155   0.38392   0.00000  Uiso   1.00
H103   H     0.57496   0.28399   0.04494   0.00000  Uiso   1.00
H104   H     0.45798   0.18662   0.45960   0.00000  Uiso   1.00
N105   N     0.50000   0.24999   0.12623   0.00000  Uiso   1.00
N106   N     0.50000   0.25001   0.37376   0.00000  Uiso   1.00
O107   O     0.50000   0.18453   0.28974   0.00000  Uiso   1.00
O108   O     0.50000   0.31547   0.21026   0.00000  Uiso   1.00
O109   O     0.50000   0.18453   0.21026   0.00000  Uiso   1.00
O110   O     0.50000   0.31547   0.28974   0.00000  Uiso   1.00
O111   O     0.42392   0.25000   0.28044   0.00000  Uiso   1.00
O112   O     0.57608   0.25000   0.21955   0.00000  Uiso   1.00
O113   O     0.42392   0.25000   0.20096   0.00000  Uiso   1.00
O114   O     0.57608   0.25000   0.29903   0.00000  Uiso   1.00
Zn115  Zn    0.50000   0.25000   0.30307   0.00000  Uiso   1.00
Zn116  Zn    0.50000   0.24999   0.19693   0.00000  Uiso   1.00
H117   H     0.65802   0.24999   0.19436   0.00000  Uiso   1.00
H118   H     0.34200   0.24991   0.30562   0.00000  Uiso   1.00
C119   C     0.41149   0.03239   0.31111   0.00000  Uiso   1.00
O120   O     0.38853   0.49659   0.30229   0.00000  Uiso   1.00
O121   O     0.40401   0.05651   0.35187   0.00000  Uiso   1.00
H122   H     0.37930   0.04068   0.37118   0.00000  Uiso   1.00
C123   C     0.41303   0.46786   0.16392   0.00000  Uiso   1.00
O124   O     0.38987   0.00358   0.16622   0.00000  Uiso   1.00
O125   O     0.40662   0.44397   0.12097   0.00000  Uiso   1.00
H126   H     0.38246   0.45989   0.09459   0.00000  Uiso   1.00
H127   H     0.57280   0.28417   0.13132   0.00000  Uiso   1.00
H128   H     0.45803   0.18852   0.37286   0.00000  Uiso   1.00
C129   C     0.83211   0.16362   0.24994   0.00000  Uiso   1.00
C130   C     0.83210   0.33639   0.24973   0.00000  Uiso   1.00
C131   C     0.79172   0.23067   0.04702   0.00000  Uiso   1.00
C132   C     0.85700   0.28511   0.45049   0.00000  Uiso   1.00
C133   C     0.79262   0.23091   0.09676   0.00000  Uiso   1.00
C134   C     0.85674   0.28439   0.40084   0.00000  Uiso   1.00
C135   C     0.87399   0.26909   0.10768   0.00000  Uiso   1.00
C136   C     0.80983   0.21565   0.39466   0.00000  Uiso   1.00
C137   C     0.87483   0.26930   0.05818   0.00000  Uiso   1.00
C138   C     0.80948   0.21491   0.44423   0.00000  Uiso   1.00
C139   C     0.83326   0.24998   0.02666   0.00000  Uiso   1.00
C140   C     0.83324   0.25000   0.47330   0.00000  Uiso   1.00
C141   C     0.73367   0.24998   0.23753   0.00000  Uiso   1.00
C142   C     0.93300   0.24999   0.26247   0.00000  Uiso   1.00
C143   C     0.67865   0.24997   0.23079   0.00000  Uiso   1.00
C144   C     0.98802   0.24995   0.26919   0.00000  Uiso   1.00
C145   C     0.77956   0.05101   0.27827   0.00000  Uiso   1.00
C146   C     0.78022   0.44911   0.20671   0.00000  Uiso   1.00
C147   C     0.79201   0.09676   0.28058   0.00000  Uiso   1.00
C148   C     0.79271   0.40337   0.20783   0.00000  Uiso   1.00
C149   C     0.82282   0.11570   0.24890   0.00000  Uiso   1.00
C150   C     0.82278   0.38432   0.24826   0.00000  Uiso   1.00
C151   C     0.84092   0.08951   0.21408   0.00000  Uiso   1.00
C152   C     0.84001   0.41040   0.28837   0.00000  Uiso   1.00
C153   C     0.83029   0.04389   0.21220   0.00000  Uiso   1.00
C154   C     0.82931   0.45600   0.28735   0.00000  Uiso   1.00
C155   C     0.80039   0.02442   0.24432   0.00000  Uiso   1.00
C156   C     0.80024   0.47558   0.24670   0.00000  Uiso   1.00
H157   H     0.77647   0.11809   0.30611   0.00000  Uiso   1.00
H158   H     0.77779   0.38216   0.17775   0.00000  Uiso   1.00
H159   H     0.86430   0.10413   0.18917   0.00000  Uiso   1.00
H160   H     0.86277   0.39571   0.31994   0.00000  Uiso   1.00
H161   H     0.84697   0.02333   0.18673   0.00000  Uiso   1.00
H162   H     0.84538   0.47648   0.31766   0.00000  Uiso   1.00
H163   H     0.75823   0.21598   0.02476   0.00000  Uiso   1.00
H164   H     0.87511   0.31342   0.47062   0.00000  Uiso   1.00
H165   H     0.76050   0.21590   0.11181   0.00000  Uiso   1.00
H166   H     0.87519   0.31155   0.38392   0.00000  Uiso   1.00
H167   H     0.90829   0.28399   0.04494   0.00000  Uiso   1.00
H168   H     0.79132   0.18662   0.45960   0.00000  Uiso   1.00
N169   N     0.83333   0.24999   0.12623   0.00000  Uiso   1.00
N170   N     0.83333   0.25001   0.37376   0.00000  Uiso   1.00
O171   O     0.83334   0.18453   0.28974   0.00000  Uiso   1.00
O172   O     0.83333   0.31547   0.21026   0.00000  Uiso   1.00
O173   O     0.83334   0.18453   0.21026   0.00000  Uiso   1.00
O174   O     0.83333   0.31547   0.28974   0.00000  Uiso   1.00
O175   O     0.75725   0.25000   0.28044   0.00000  Uiso   1.00
O176   O     0.90942   0.25000   0.21955   0.00000  Uiso   1.00
O177   O     0.75725   0.25000   0.20096   0.00000  Uiso   1.00
O178   O     0.90942   0.25000   0.29903   0.00000  Uiso   1.00
Zn179  Zn    0.83333   0.25000   0.30307   0.00000  Uiso   1.00
Zn180  Zn    0.83333   0.24999   0.19693   0.00000  Uiso   1.00
H181   H     0.99135   0.24999   0.19436   0.00000  Uiso   1.00
H182   H     0.67533   0.24991   0.30562   0.00000  Uiso   1.00
C183   C     0.74482   0.03239   0.31111   0.00000  Uiso   1.00
O184   O     0.72186   0.49659   0.30229   0.00000  Uiso   1.00
O185   O     0.73735   0.05651   0.35187   0.00000  Uiso   1.00
H186   H     0.71264   0.04068   0.37118   0.00000  Uiso   1.00
C187   C     0.74636   0.46786   0.16392   0.00000  Uiso   1.00
O188   O     0.72320   0.00358   0.16622   0.00000  Uiso   1.00
O189   O     0.73996   0.44397   0.12097   0.00000  Uiso   1.00
H190   H     0.71579   0.45989   0.09459   0.00000  Uiso   1.00
H191   H     0.90613   0.28417   0.13132   0.00000  Uiso   1.00
H192   H     0.79136   0.18852   0.37286   0.00000  Uiso   1.00
C193   C     0.16545   0.66362   0.24994   0.00000  Uiso   1.00
C194   C     0.16544   0.83639   0.24973   0.00000  Uiso   1.00
C195   C     0.12506   0.73067   0.04702   0.00000  Uiso   1.00
C196   C     0.19033   0.78511   0.45049   0.00000  Uiso   1.00
C197   C     0.12596   0.73091   0.09676   0.00000  Uiso   1.00
C198   C     0.19007   0.78439   0.40084   0.00000  Uiso   1.00
C199   C     0.20733   0.76909   0.10768   0.00000  Uiso   1.00
C200   C     0.14317   0.71565   0.39466   0.00000  Uiso   1.00
C201   C     0.20816   0.76930   0.05818   0.00000  Uiso   1.00
C202   C     0.14281   0.71491   0.44423   0.00000  Uiso   1.00
C203   C     0.16659   0.74998   0.02666   0.00000  Uiso   1.00
C204   C     0.16657   0.75000   0.47330   0.00000  Uiso   1.00
C205   C     0.06700   0.74998   0.23753   0.00000  Uiso   1.00
C206   C     0.26633   0.74999   0.26247   0.00000  Uiso   1.00
C207   C     0.01198   0.74997   0.23079   0.00000  Uiso   1.00
C208   C     0.32135   0.74995   0.26919   0.00000  Uiso   1.00
C209   C     0.11289   0.55101   0.27827   0.00000  Uiso   1.00
C210   C     0.11356   0.94911   0.20671   0.00000  Uiso   1.00
C211   C     0.12534   0.59676   0.28058   0.00000  Uiso   1.00
C212   C     0.12604   0.90337   0.20783   0.00000  Uiso   1.00
C213   C     0.15615   0.61570   0.24890   0.00000  Uiso   1.00
C214   C     0.15611   0.88432   0.24826   0.00000  Uiso   1.00
C215   C     0.17426   0.58951   0.21408   0.00000  Uiso   1.00
C216   C     0.17334   0.91040   0.28837   0.00000  Uiso   1.00
C217   C     0.16362   0.54389   0.21220   0.00000  Uiso   1.00
C218   C     0.16265   0.95600   0.28735   0.00000  Uiso   1.00
C219   C     0.13372   0.52442   0.24432   0.00000  Uiso   1.00
C220   C     0.13358   0.97558   0.24670   0.00000  Uiso   1.00
H221   H     0.10980   0.61809   0.30611   0.00000  Uiso   1.00
H222   H     0.11112   0.88216   0.17775   0.00000  Uiso   1.00
H223   H     0.19763   0.60413   0.18917   0.00000  Uiso   1.00
H224   H     0.19610   0.89571   0.31994   0.00000  Uiso   1.00
H225   H     0.18030   0.52333   0.18673   0.00000  Uiso   1.00
H226   H     0.17871   0.97648   0.31766   0.00000  Uiso   1.00
H227   H     0.09157   0.71598   0.02476   0.00000  Uiso   1.00
H228   H     0.20844   0.81342   0.47062   0.00000  Uiso   1.00
H229   H     0.09383   0.71590   0.11181   0.00000  Uiso   1.00
H230   H     0.20853   0.81155   0.38392   0.00000  Uiso   1.00
H231   H     0.24163   0.78399   0.04494   0.00000  Uiso   1.00
H232   H     0.12465   0.68662   0.45960   0.00000  Uiso   1.00
N233   N     0.16667   0.74999   0.12623   0.00000  Uiso   1.00
N234   N     0.16667   0.75001   0.37376   0.00000  Uiso   1.00
O235   O     0.16667   0.68453   0.28974   0.00000  Uiso   1.00
O236   O     0.16666   0.81547   0.21026   0.00000  Uiso   1.00
O237   O     0.16667   0.68453   0.21026   0.00000  Uiso   1.00
O238   O     0.16666   0.81547   0.28974   0.00000  Uiso   1.00
O239   O     0.09058   0.75000   0.28044   0.00000  Uiso   1.00
O240   O     0.24275   0.75000   0.21955   0.00000  Uiso   1.00
O241   O     0.09058   0.75000   0.20096   0.00000  Uiso   1.00
O242   O     0.24275   0.75000   0.29903   0.00000  Uiso   1.00
Zn243  Zn    0.16667   0.75000   0.30307   0.00000  Uiso   1.00
Zn244  Zn    0.16667   0.74999   0.19693   0.00000  Uiso   1.00
H245   H     0.32468   0.74999   0.19436   0.00000  Uiso   1.00
H246   H     0.00866   0.74991   0.30562   0.00000  Uiso   1.00
C247   C     0.07816   0.53239   0.31111   0.00000  Uiso   1.00
O248   O     0.05520   0.99659   0.30229   0.00000  Uiso   1.00
O249   O     0.07068   0.55651   0.35187   0.00000  Uiso   1.00
H250   H     0.04597   0.54068   0.37118   0.00000  Uiso   1.00
C251   C     0.07970   0.96786   0.16392   0.00000  Uiso   1.00
O252   O     0.05653   0.50358   0.16622   0.00000  Uiso   1.00
O253   O     0.07329   0.94397   0.12097   0.00000  Uiso   1.00
H254   H     0.04912   0.95989   0.09459   0.00000  Uiso   1.00
H255   H     0.23946   0.78417   0.13132   0.00000  Uiso   1.00
H256   H     0.12470   0.68852   0.37286   0.00000  Uiso   1.00
C257   C     0.49878   0.66362   0.24994   0.00000  Uiso   1.00
C258   C     0.49877   0.83639   0.24973   0.00000  Uiso   1.00
C259   C     0.45839   0.73067   0.04702   0.00000  Uiso   1.00
C260   C     0.52367   0.78511   0.45049   0.00000  Uiso   1.00
C261   C     0.45929   0.73091   0.09676   0.00000  Uiso   1.00
C262   C     0.52340   0.78439   0.40084   0.00000  Uiso   1.00
C263   C     0.54066   0.76909   0.10768   0.00000  Uiso   1.00
C264   C     0.47650   0.71565   0.39466   0.00000  Uiso   1.00
C265   C     0.54149   0.76930   0.05818   0.00000  Uiso   1.00
C266   C     0.47614   0.71491   0.44423   0.00000  Uiso   1.00
C267   C     0.49993   0.74998   0.02666   0.00000  Uiso   1.00
C268   C     0.49990   0.75000   0.47330   0.00000  Uiso   1.00
C269   C     0.40033   0.74998   0.23753   0.00000  Uiso   1.00
C270   C     0.59967   0.74999   0.26247   0.00000  Uiso   1.00
C271   C     0.34532   0.74997   0.23079   0.00000  Uiso   1.00
C272   C     0.65469   0.74995   0.26919   0.00000  Uiso   1.00
C273   C     0.44622   0.55101   0.27827   0.00000  Uiso   1.00
C274   C     0.44689   0.94911   0.20671   0.00000  Uiso   1.00
C275   C     0.45867   0.59676   0.28058   0.00000  Uiso   1.00
C276   C     0.45937   0.90337   0.20783   0.00000  Uiso   1.00
C277   C     0.48949   0.61570   0.24890   0.00000  Uiso   1.00
C278   C     0.48944   0.88432   0.24826   0.00000  Uiso   1.00
C279   C     0.50759   0.58951   0.21408   0.00000  Uiso   1.00
C280   C     0.50668   0.91040   0.28837   0.00000  Uiso   1.00
C281   C     0.49695   0.54389   0.21220   0.00000  Uiso   1.00
C282   C     0.49598   0.95600   0.28735   0.00000  Uiso   1.00
C283   C     0.46705   0.52442   0.24432   0.00000  Uiso   1.00
C284   C     0.46691   0.97558   0.24670   0.00000  Uiso   1.00
H285   H     0.44313   0.61809   0.30611   0.00000  Uiso   1.00
H286   H     0.44445   0.88216   0.17775   0.00000  Uiso   1.00
H287   H     0.53096   0.60413   0.18917   0.00000  Uiso   1.00
H288   H     0.52943   0.89571   0.31994   0.00000  Uiso   1.00
H289   H     0.51363   0.52333   0.18673   0.00000  Uiso   1.00
H290   H     0.51205   0.97648   0.31766   0.00000  Uiso   1.00
H291   H     0.42490   0.71598   0.02476   0.00000  Uiso   1.00
H292   H     0.54177   0.81342   0.47062   0.00000  Uiso   1.00
H293   H     0.42716   0.71590   0.11181   0.00000  Uiso   1.00
H294   H     0.54186   0.81155   0.38392   0.00000  Uiso   1.00
H295   H     0.57496   0.78399   0.04494   0.00000  Uiso   1.00
H296   H     0.45798   0.68662   0.45960   0.00000  Uiso   1.00
N297   N     0.50000   0.74999   0.12623   0.00000  Uiso   1.00
N298   N     0.50000   0.75001   0.37376   0.00000  Uiso   1.00
O299   O     0.50000   0.68453   0.28974   0.00000  Uiso   1.00
O300   O     0.50000   0.81547   0.21026   0.00000  Uiso   1.00
O301   O     0.50000   0.68453   0.21026   0.00000  Uiso   1.00
O302   O     0.50000   0.81547   0.28974   0.00000  Uiso   1.00
O303   O     0.42392   0.75000   0.28044   0.00000  Uiso   1.00
O304   O     0.57608   0.75000   0.21955   0.00000  Uiso   1.00
O305   O     0.42392   0.75000   0.20096   0.00000  Uiso   1.00
O306   O     0.57608   0.75000   0.29903   0.00000  Uiso   1.00
Zn307  Zn    0.50000   0.75000   0.30307   0.00000  Uiso   1.00
Zn308  Zn    0.50000   0.74999   0.19693   0.00000  Uiso   1.00
H309   H     0.65802   0.74999   0.19436   0.00000  Uiso   1.00
H310   H     0.34200   0.74991   0.30562   0.00000  Uiso   1.00
C311   C     0.41149   0.53239   0.31111   0.00000  Uiso   1.00
O312   O     0.38853   0.99659   0.30229   0.00000  Uiso   1.00
O313   O     0.40401   0.55651   0.35187   0.00000  Uiso   1.00
H314   H     0.37930   0.54068   0.37118   0.00000  Uiso   1.00
C315   C     0.41303   0.96786   0.16392   0.00000  Uiso   1.00
O316   O     0.38987   0.50358   0.16622   0.00000  Uiso   1.00
O317   O     0.40662   0.94397   0.12097   0.00000  Uiso   1.00
H318   H     0.38246   0.95989   0.09459   0.00000  Uiso   1.00
H319   H     0.57280   0.78417   0.13132   0.00000  Uiso   1.00
H320   H     0.45803   0.68852   0.37286   0.00000  Uiso   1.00
C321   C     0.83211   0.66362   0.24994   0.00000  Uiso   1.00
C322   C     0.83210   0.83639   0.24973   0.00000  Uiso   1.00
C323   C     0.79172   0.73067   0.04702   0.00000  Uiso   1.00
C324   C     0.85700   0.78511   0.45049   0.00000  Uiso   1.00
C325   C     0.79262   0.73091   0.09676   0.00000  Uiso   1.00
C326   C     0.85674   0.78439   0.40084   0.00000  Uiso   1.00
C327   C     0.87399   0.76909   0.10768   0.00000  Uiso   1.00
C328   C     0.80983   0.71565   0.39466   0.00000  Uiso   1.00
C329   C     0.87483   0.76930   0.05818   0.00000  Uiso   1.00
C330   C     0.80948   0.71491   0.44423   0.00000  Uiso   1.00
C331   C     0.83326   0.74998   0.02666   0.00000  Uiso   1.00
C332   C     0.83324   0.75000   0.47330   0.00000  Uiso   1.00
C333   C     0.73367   0.74998   0.23753   0.00000  Uiso   1.00
C334   C     0.93300   0.74999   0.26247   0.00000  Uiso   1.00
C335   C     0.67865   0.74997   0.23079   0.00000  Uiso   1.00
C336   C     0.98802   0.74995   0.26919   0.00000  Uiso   1.00
C337   C     0.77956   0.55101   0.27827   0.00000  Uiso   1.00
C338   C     0.78022   0.94911   0.20671   0.00000  Uiso   1.00
C339   C     0.79201   0.59676   0.28058   0.00000  Uiso   1.00
C340   C     0.79271   0.90337   0.20783   0.00000  Uiso   1.00
C341   C     0.82282   0.61570   0.24890   0.00000  Uiso   1.00
C342   C     0.82278   0.88432   0.24826   0.00000  Uiso   1.00
C343   C     0.84092   0.58951   0.21408   0.00000  Uiso   1.00
C344   C     0.84001   0.91040   0.28837   0.00000  Uiso   1.00
C345   C     0.83029   0.54389   0.21220   0.00000  Uiso   1.00
C346   C     0.82931   0.95600   0.28735   0.00000  Uiso   1.00
C347   C     0.80039   0.52442   0.24432   0.00000  Uiso   1.00
C348   C     0.80024   0.97558   0.24670   0.00000  Uiso   1.00
H349   H     0.77647   0.61809   0.30611   0.00000  Uiso   1.00
H350   H     0.77779   0.88216   0.17775   0.00000  Uiso   1.00
H351   H     0.86430   0.60413   0.18917   0.00000  Uiso   1.00
H352   H     0.86277   0.89571   0.31994   0.00000  Uiso   1.00
H353   H     0.84697   0.52333   0.18673   0.00000  Uiso   1.00
H354   H     0.84538   0.97648   0.31766   0.00000  Uiso   1.00
H355   H     0.75823   0.71598   0.02476   0.00000  Uiso   1.00
H356   H     0.87511   0.81342   0.47062   0.00000  Uiso   1.00
H357   H     0.76050   0.71590   0.11181   0.00000  Uiso   1.00
H358   H     0.87519   0.81155   0.38392   0.00000  Uiso   1.00
H359   H     0.90829   0.78399   0.04494   0.00000  Uiso   1.00
H360   H     0.79132   0.68662   0.45960   0.00000  Uiso   1.00
N361   N     0.83333   0.74999   0.12623   0.00000  Uiso   1.00
N362   N     0.83333   0.75001   0.37376   0.00000  Uiso   1.00
O363   O     0.83334   0.68453   0.28974   0.00000  Uiso   1.00
O364   O     0.83333   0.81547   0.21026   0.00000  Uiso   1.00
O365   O     0.83334   0.68453   0.21026   0.00000  Uiso   1.00
O366   O     0.83333   0.81547   0.28974   0.00000  Uiso   1.00
O367   O     0.75725   0.75000   0.28044   0.00000  Uiso   1.00
O368   O     0.90942   0.75000   0.21955   0.00000  Uiso   1.00
O369   O     0.75725   0.75000   0.20096   0.00000  Uiso   1.00
O370   O     0.90942   0.75000   0.29903   0.00000  Uiso   1.00
Zn371  Zn    0.83333   0.75000   0.30307   0.00000  Uiso   1.00
Zn372  Zn    0.83333   0.74999   0.19693   0.00000  Uiso   1.00
H373   H     0.99135   0.74999   0.19436   0.00000  Uiso   1.00
H374   H     0.67533   0.74991   0.30562   0.00000  Uiso   1.00
C375   C     0.74482   0.53239   0.31111   0.00000  Uiso   1.00
O376   O     0.72186   0.99659   0.30229   0.00000  Uiso   1.00
O377   O     0.73735   0.55651   0.35187   0.00000  Uiso   1.00
H378   H     0.71264   0.54068   0.37118   0.00000  Uiso   1.00
C379   C     0.74636   0.96786   0.16392   0.00000  Uiso   1.00
O380   O     0.72320   0.50358   0.16622   0.00000  Uiso   1.00
O381   O     0.73996   0.94397   0.12097   0.00000  Uiso   1.00
H382   H     0.71579   0.95989   0.09459   0.00000  Uiso   1.00
H383   H     0.90613   0.78417   0.13132   0.00000  Uiso   1.00
H384   H     0.79136   0.68852   0.37286   0.00000  Uiso   1.00
C385   C     0.16545   0.16362   0.74994   0.00000  Uiso   1.00
C386   C     0.16544   0.33639   0.74973   0.00000  Uiso   1.00
C387   C     0.12506   0.23067   0.54702   0.00000  Uiso   1.00
C388   C     0.19033   0.28511   0.95049   0.00000  Uiso   1.00
C389   C     0.12596   0.23091   0.59676   0.00000  Uiso   1.00
C390   C     0.19007   0.28439   0.90084   0.00000  Uiso   1.00
C391   C     0.20733   0.26909   0.60768   0.00000  Uiso   1.00
C392   C     0.14317   0.21565   0.89466   0.00000  Uiso   1.00
C393   C     0.20816   0.26930   0.55818   0.00000  Uiso   1.00
C394   C     0.14281   0.21491   0.94423   0.00000  Uiso   1.00
C395   C     0.16659   0.24998   0.52666   0.00000  Uiso   1.00
C396   C     0.16657   0.25000   0.97330   0.00000  Uiso   1.00
C397   C     0.06700   0.24998   0.73753   0.00000  Uiso   1.00
C398   C     0.26633   0.24999   0.76247   0.00000  Uiso   1.00
C399   C     0.01198   0.24997   0.73079   0.00000  Uiso   1.00
C400   C     0.32135   0.24995   0.76919   0.00000  Uiso   1.00
C401   C     0.11289   0.05101   0.77827   0.00000  Uiso   1.00
C402   C     0.11356   0.44911   0.70671   0.00000  Uiso   1.00
C403   C     0.12534   0.09676   0.78058   0.00000  Uiso   1.00
C404   C     0.12604   0.40337   0.70783   0.00000  Uiso   1.00
C405   C     0.15615   0.11570   0.74890   0.00000  Uiso   1.00
C406   C     0.15611   0.38432   0.74826   0.00000  Uiso   1.00
C407   C     0.17426   0.08951   0.71408   0.00000  Uiso   1.00
C408   C     0.17334   0.41040   0.78837   0.00000  Uiso   1.00
C409   C     0.16362   0.04389   0.71220   0.00000  Uiso   1.00
C410   C     0.16265   0.45600   0.78735   0.00000  Uiso   1.00
C411   C     0.13372   0.02442   0.74432   0.00000  Uiso   1.00
C412   C     0.13358   0.47558   0.74670   0.00000  Uiso   1.00
H413   H     0.10980   0.11809   0.80611   0.00000  Uiso   1.00
H414   H     0.11112   0.38216   0.67775   0.00000  Uiso   1.00
H415   H     0.19763   0.10413   0.68917   0.00000  Uiso   1.00
H416   H     0.19610   0.39571   0.81994   0.00000  Uiso   1.00
H417   H     0.18030   0.02333   0.68673   0.00000  Uiso   1.00
H418   H     0.17871   0.47648   0.81766   0.00000  Uiso   1.00
H419   H     0.09157   0.21598   0.52476   0.00000  Uiso   1.00
H420   H     0.20844   0.31342   0.97062   0.00000  Uiso   1.00
H421   H     0.09383   0.21590   0.61181   0.00000  Uiso   1.00
H422   H     0.20853   0.31155   0.88392   0.00000  Uiso   1.00
H423   H     0.24163   0.28399   0.54494   0.00000  Uiso   1.00
H424   H     0.12465   0.18662   0.95960   0.00000  Uiso   1.00
N425   N     0.16667   0.24999   0.62623   0.00000  Uiso   1.00
N426   N     0.16667   0.25001   0.87376   0.00000  Uiso   1.00
O427   O     0.16667   0.18453   0.78974   0.00000  Uiso   1.00
O428   O     0.16666   0.31547   0.71026   0.00000  Uiso   1.00
O429   O     0.16667   0.18453   0.71026   0.00000  Uiso   1.00
O430   O     0.16666   0.31547   0.78974   0.00000  Uiso   1.00
O431   O     0.09058   0.25000   0.78044   0.00000  Uiso   1.00
O432   O     0.24275   0.25000   0.71955   0.00000  Uiso   1.00
O433   O     0.09058   0.25000   0.70096   0.00000  Uiso   1.00
O434   O     0.24275   0.25000   0.79903   0.00000  Uiso   1.00
Zn435  Zn    0.16667   0.25000   0.80307   0.00000  Uiso   1.00
Zn436  Zn    0.16667   0.24999   0.69693   0.00000  Uiso   1.00
H437   H     0.32468   0.24999   0.69436   0.00000  Uiso   1.00
H438   H     0.00866   0.24991   0.80562   0.00000  Uiso   1.00
C439   C     0.07816   0.03239   0.81111   0.00000  Uiso   1.00
O440   O     0.05520   0.49659   0.80229   0.00000  Uiso   1.00
O441   O     0.07068   0.05651   0.85187   0.00000  Uiso   1.00
H442   H     0.04597   0.04068   0.87118   0.00000  Uiso   1.00
C443   C     0.07970   0.46786   0.66392   0.00000  Uiso   1.00
O444   O     0.05653   0.00358   0.66622   0.00000  Uiso   1.00
O445   O     0.07329   0.44397   0.62097   0.00000  Uiso   1.00
H446   H     0.04912   0.45989   0.59459   0.00000  Uiso   1.00
H447   H     0.23946   0.28417   0.63132   0.00000  Uiso   1.00
H448   H     0.12470   0.18852   0.87286   0.00000  Uiso   1.00
C449   C     0.49878   0.16362   0.74994   0.00000  Uiso   1.00
C450   C     0.49877   0.33639   0.74973   0.00000  Uiso   1.00
C451   C     0.45839   0.23067   0.54702   0.00000  Uiso   1.00
C452   C     0.52367   0.28511   0.95049   0.00000  Uiso   1.00
C453   C     0.45929   0.23091   0.59676   0.00000  Uiso   1.00
C454   C     0.52340   0.28439   0.90084   0.00000  Uiso   1.00
C455   C     0.54066   0.26909   0.60768   0.00000  Uiso   1.00
C456   C     0.47650   0.21565   0.89466   0.00000  Uiso   1.00
C457   C     0.54149   0.26930   0.55818   0.00000  Uiso   1.00
C458   C     0.47614   0.21491   0.94423   0.00000  Uiso   1.00
C459   C     0.49993   0.24998   0.52666   0.00000  Uiso   1.00
C460   C     0.49990   0.25000   0.97330   0.00000  Uiso   1.00
C461   C     0.40033   0.24998   0.73753   0.00000  Uiso   1.00
C462   C     0.59967   0.24999   0.76247   0.00000  Uiso   1.00
C463   C     0.34532   0.24997   0.73079   0.00000  Uiso   1.00
C464   C     0.65469   0.24995   0.76919   0.00000  Uiso   1.00
C465   C     0.44622   0.05101   0.77827   0.00000  Uiso   1.00
C466   C     0.44689   0.44911   0.70671   0.00000  Uiso   1.00
C467   C     0.45867   0.09676   0.78058   0.00000  Uiso   1.00
C468   C     0.45937   0.40337   0.70783   0.00000  Uiso   1.00
C469   C     0.48949   0.11570   0.74890   0.00000  Uiso   1.00
C470   C     0.48944   0.38432   0.74826   0.00000  Uiso   1.00
C471   C     0.50759   0.08951   0.71408   0.00000  Uiso   1.00
C472   C     0.50668   0.41040   0.78837   0.00000  Uiso   1.00
C473   C     0.49695   0.04389   0.71220   0.00000  Uiso   1.00
C474   C     0.49598   0.45600   0.78735   0.00000  Uiso   1.00
C475   C     0.46705   0.02442   0.74432   0.00000  Uiso   1.00
C476   C     0.46691   0.47558   0.74670   0.00000  Uiso   1.00
H477   H     0.44313   0.11809   0.80611   0.00000  Uiso   1.00
H478   H     0.44445   0.38216   0.67775   0.00000  Uiso   1.00
H479   H     0.53096   0.10413   0.68917   0.00000  Uiso   1.00
H480   H     0.52943   0.39571   0.81994   0.00000  Uiso   1.00
H481   H     0.51363   0.02333   0.68673   0.00000  Uiso   1.00
H482   H     0.51205   0.47648   0.81766   0.00000  Uiso   1.00
H483   H     0.42490   0.21598   0.52476   0.00000  Uiso   1.00
H484   H     0.54177   0.31342   0.97062   0.00000  Uiso   1.00
H485   H     0.42716   0.21590   0.61181   0.00000  Uiso   1.00
H486   H     0.54186   0.31155   0.88392   0.00000  Uiso   1.00
H487   H     0.57496   0.28399   0.54494   0.00000  Uiso   1.00
H488   H     0.45798   0.18662   0.95960   0.00000  Uiso   1.00
N489   N     0.50000   0.24999   0.62623   0.00000  Uiso   1.00
N490   N     0.50000   0.25001   0.87376   0.00000  Uiso   1.00
O491   O     0.50000   0.18453   0.78974   0.00000  Uiso   1.00
O492   O     0.50000   0.31547   0.71026   0.00000  Uiso   1.00
O493   O     0.50000   0.18453   0.71026   0.00000  Uiso   1.00
O494   O     0.50000   0.31547   0.78974   0.00000  Uiso   1.00
O495   O     0.42392   0.25000   0.78044   0.00000  Uiso   1.00
O496   O     0.57608   0.25000   0.71955   0.00000  Uiso   1.00
O497   O     0.42392   0.25000   0.70096   0.00000  Uiso   1.00
O498   O     0.57608   0.25000   0.79903   0.00000  Uiso   1.00
Zn499  Zn    0.50000   0.25000   0.80307   0.00000  Uiso   1.00
Zn500  Zn    0.50000   0.24999   0.69693   0.00000  Uiso   1.00
H501   H     0.65802   0.24999   0.69436   0.00000  Uiso   1.00
H502   H     0.34200   0.24991   0.80562   0.00000  Uiso   1.00
C503   C     0.41149   0.03239   0.81111   0.00000  Uiso   1.00
O504   O     0.38853   0.49659   0.80229   0.00000  Uiso   1.00
O505   O     0.40401   0.05651   0.85187   0.00000  Uiso   1.00
H506   H     0.37930   0.04068   0.87118   0.00000  Uiso   1.00
C507   C     0.41303   0.46786   0.66392   0.00000  Uiso   1.00
O508   O     0.38987   0.00358   0.66622   0.00000  Uiso   1.00
O509   O     0.40662   0.44397   0.62097   0.00000  Uiso   1.00
H510   H     0.38246   0.45989   0.59459   0.00000  Uiso   1.00
H511   H     0.57280   0.28417   0.63132   0.00000  Uiso   1.00
H512   H     0.45803   0.18852   0.87286   0.00000  Uiso   1.00
C513   C     0.83211   0.16362   0.74994   0.00000  Uiso   1.00
C514   C     0.83210   0.33639   0.74973   0.00000  Uiso   1.00
C515   C     0.79172   0.23067   0.54702   0.00000  Uiso   1.00
C516   C     0.85700   0.28511   0.95049   0.00000  Uiso   1.00
C517   C     0.79262   0.23091   0.59676   0.00000  Uiso   1.00
C518   C     0.85674   0.28439   0.90084   0.00000  Uiso   1.00
C519   C     0.87399   0.26909   0.60768   0.00000  Uiso   1.00
C520   C     0.80983   0.21565   0.89466   0.00000  Uiso   1.00
C521   C     0.87483   0.26930   0.55818   0.00000  Uiso   1.00
C522   C     0.80948   0.21491   0.94423   0.00000  Uiso   1.00
C523   C     0.83326   0.24998   0.52666   0.00000  Uiso   1.00
C524   C     0.83324   0.25000   0.97330   0.00000  Uiso   1.00
C525   C     0.73367   0.24998   0.73753   0.00000  Uiso   1.00
C526   C     0.93300   0.24999   0.76247   0.00000  Uiso   1.00
C527   C     0.67865   0.24997   0.73079   0.00000  Uiso   1.00
C528   C     0.98802   0.24995   0.76919   0.00000  Uiso   1.00
C529   C     0.77956   0.05101   0.77827   0.00000  Uiso   1.00
C530   C     0.78022   0.44911   0.70671   0.00000  Uiso   1.00
C531   C     0.79201   0.09676   0.78058   0.00000  Uiso   1.00
C532   C     0.79271   0.40337   0.70783   0.00000  Uiso   1.00
C533   C     0.82282   0.11570   0.74890   0.00000  Uiso   1.00
C534   C     0.82278   0.38432   0.74826   0.00000  Uiso   1.00
C535   C     0.84092   0.08951   0.71408   0.00000  Uiso   1.00
C536   C     0.84001   0.41040   0.78837   0.00000  Uiso   1.00
C537   C     0.83029   0.04389   0.71220   0.00000  Uiso   1.00
C538   C     0.82931   0.45600   0.78735   0.00000  Uiso   1.00
C539   C     0.80039   0.02442   0.74432   0.00000  Uiso   1.00
C540   C     0.80024   0.47558   0.74670   0.00000  Uiso   1.00
H541   H     0.77647   0.11809   0.80611   0.00000  Uiso   1.00
H542   H     0.77779   0.38216   0.67775   0.00000  Uiso   1.00
H543   H     0.86430   0.10413   0.68917   0.00000  Uiso   1.00
H544   H     0.86277   0.39571   0.81994   0.00000  Uiso   1.00
H545   H     0.84697   0.02333   0.68673   0.00000  Uiso   1.00
H546   H     0.84538   0.47648   0.81766   0.00000  Uiso   1.00
H547   H     0.75823   0.21598   0.52476   0.00000  Uiso   1.00
H548   H     0.87511   0.31342   0.97062   0.00000  Uiso   1.00
H549   H     0.76050   0.21590   0.61181   0.00000  Uiso   1.00
H550   H     0.87519   0.31155   0.88392   0.00000  Uiso   1.00
H551   H     0.90829   0.28399   0.54494   0.00000  Uiso   1.00
H552   H     0.79132   0.18662   0.95960   0.00000  Uiso   1.00
N553   N     0.83333   0.24999   0.62623   0.00000  Uiso   1.00
N554   N     0.83333   0.25001   0.87376   0.00000  Uiso   1.00
O555   O     0.83334   0.18453   0.78974   0.00000  Uiso   1.00
O556   O     0.83333   0.31547   0.71026   0.00000  Uiso   1.00
O557   O     0.83334   0.18453   0.71026   0.00000  Uiso   1.00
O558   O     0.83333   0.31547   0.78974   0.00000  Uiso   1.00
O559   O     0.75725   0.25000   0.78044   0.00000  Uiso   1.00
O560   O     0.90942   0.25000   0.71955   0.00000  Uiso   1.00
O561   O     0.75725   0.25000   0.70096   0.00000  Uiso   1.00
O562   O     0.90942   0.25000   0.79903   0.00000  Uiso   1.00
Zn563  Zn    0.83333   0.25000   0.80307   0.00000  Uiso   1.00
Zn564  Zn    0.83333   0.24999   0.69693   0.00000  Uiso   1.00
H565   H     0.99135   0.24999   0.69436   0.00000  Uiso   1.00
H566   H     0.67533   0.24991   0.80562   0.00000  Uiso   1.00
C567   C     0.74482   0.03239   0.81111   0.00000  Uiso   1.00
O568   O     0.72186   0.49659   0.80229   0.00000  Uiso   1.00
O569   O     0.73735   0.05651   0.85187   0.00000  Uiso   1.00
H570   H     0.71264   0.04068   0.87118   0.00000  Uiso   1.00
C571   C     0.74636   0.46786   0.66392   0.00000  Uiso   1.00
O572   O     0.72320   0.00358   0.66622   0.00000  Uiso   1.00
O573   O     0.73996   0.44397   0.62097   0.00000  Uiso   1.00
H574   H     0.71579   0.45989   0.59459   0.00000  Uiso   1.00
H575   H     0.90613   0.28417   0.63132   0.00000  Uiso   1.00
H576   H     0.79136   0.18852   0.87286   0.00000  Uiso   1.00
C577   C     0.16545   0.66362   0.74994   0.00000  Uiso   1.00
C578   C     0.16544   0.83639   0.74973   0.00000  Uiso   1.00
C579   C     0.12506   0.73067   0.54702   0.00000  Uiso   1.00
C580   C     0.19033   0.78511   0.95049   0.00000  Uiso   1.00
C581   C     0.12596   0.73091   0.59676   0.00000  Uiso   1.00
C582   C     0.19007   0.78439   0.90084   0.00000  Uiso   1.00
C583   C     0.20733   0.76909   0.60768   0.00000  Uiso   1.00
C584   C     0.14317   0.71565   0.89466   0.00000  Uiso   1.00
C585   C     0.20816   0.76930   0.55818   0.00000  Uiso   1.00
C586   C     0.14281   0.71491   0.94423   0.00000  Uiso   1.00
C587   C     0.16659   0.74998   0.52666   0.00000  Uiso   1.00
C588   C     0.16657   0.75000   0.97330   0.00000  Uiso   1.00
C589   C     0.06700   0.74998   0.73753   0.00000  Uiso   1.00
C590   C     0.26633   0.74999   0.76247   0.00000  Uiso   1.00
C591   C     0.01198   0.74997   0.73079   0.00000  Uiso   1.00
C592   C     0.32135   0.74995   0.76919   0.00000  Uiso   1.00
C593   C     0.11289   0.55101   0.77827   0.00000  Uiso   1.00
C594   C     0.11356   0.94911   0.70671   0.00000  Uiso   1.00
C595   C     0.12534   0.59676   0.78058   0.00000  Uiso   1.00
C596   C     0.12604   0.90337   0.70783   0.00000  Uiso   1.00
C597   C     0.15615   0.61570   0.74890   0.00000  Uiso   1.00
C598   C     0.15611   0.88432   0.74826   0.00000  Uiso   1.00
C599   C     0.17426   0.58951   0.71408   0.00000  Uiso   1.00
C600   C     0.17334   0.91040   0.78837   0.00000  Uiso   1.00
C601   C     0.16362   0.54389   0.71220   0.00000  Uiso   1.00
C602   C     0.16265   0.95600   0.78735   0.00000  Uiso   1.00
C603   C     0.13372   0.52442   0.74432   0.00000  Uiso   1.00
C604   C     0.13358   0.97558   0.74670   0.00000  Uiso   1.00
H605   H     0.10980   0.61809   0.80611   0.00000  Uiso   1.00
H606   H     0.11112   0.88216   0.67775   0.00000  Uiso   1.00
H607   H     0.19763   0.60413   0.68917   0.00000  Uiso   1.00
H608   H     0.19610   0.89571   0.81994   0.00000  Uiso   1.00
H609   H     0.18030   0.52333   0.68673   0.00000  Uiso   1.00
H610   H     0.17871   0.97648   0.81766   0.00000  Uiso   1.00
H611   H     0.09157   0.71598   0.52476   0.00000  Uiso   1.00
H612   H     0.20844   0.81342   0.97062   0.00000  Uiso   1.00
H613   H     0.09383   0.71590   0.61181   0.00000  Uiso   1.00
H614   H     0.20853   0.81155   0.88392   0.00000  Uiso   1.00
H615   H     0.24163   0.78399   0.54494   0.00000  Uiso   1.00
H616   H     0.12465   0.68662   0.95960   0.00000  Uiso   1.00
N617   N     0.16667   0.74999   0.62623   0.00000  Uiso   1.00
N618   N     0.16667   0.75001   0.87376   0.00000  Uiso   1.00
O619   O     0.16667   0.68453   0.78974   0.00000  Uiso   1.00
O620   O     0.16666   0.81547   0.71026   0.00000  Uiso   1.00
O621   O     0.16667   0.68453   0.71026   0.00000  Uiso   1.00
O622   O     0.16666   0.81547   0.78974   0.00000  Uiso   1.00
O623   O     0.09058   0.75000   0.78044   0.00000  Uiso   1.00
O624   O     0.24275   0.75000   0.71955   0.00000  Uiso   1.00
O625   O     0.09058   0.75000   0.70096   0.00000  Uiso   1.00
O626   O     0.24275   0.75000   0.79903   0.00000  Uiso   1.00
Zn627  Zn    0.16667   0.75000   0.80307   0.00000  Uiso   1.00
Zn628  Zn    0.16667   0.74999   0.69693   0.00000  Uiso   1.00
H629   H     0.32468   0.74999   0.69436   0.00000  Uiso   1.00
H630   H     0.00866   0.74991   0.80562   0.00000  Uiso   1.00
C631   C     0.07816   0.53239   0.81111   0.00000  Uiso   1.00
O632   O     0.05520   0.99659   0.80229   0.00000  Uiso   1.00
O633   O     0.07068   0.55651   0.85187   0.00000  Uiso   1.00
H634   H     0.04597   0.54068   0.87118   0.00000  Uiso   1.00
C635   C     0.07970   0.96786   0.66392   0.00000  Uiso   1.00
O636   O     0.05653   0.50358   0.66622   0.00000  Uiso   1.00
O637   O     0.07329   0.94397   0.62097   0.00000  Uiso   1.00
H638   H     0.04912   0.95989   0.59459   0.00000  Uiso   1.00
H639   H     0.23946   0.78417   0.63132   0.00000  Uiso   1.00
H640   H     0.12470   0.68852   0.87286   0.00000  Uiso   1.00
C641   C     0.49878   0.66362   0.74994   0.00000  Uiso   1.00
C642   C     0.49877   0.83639   0.74973   0.00000  Uiso   1.00
C643   C     0.45839   0.73067   0.54702   0.00000  Uiso   1.00
C644   C     0.52367   0.78511   0.95049   0.00000  Uiso   1.00
C645   C     0.45929   0.73091   0.59676   0.00000  Uiso   1.00
C646   C     0.52340   0.78439   0.90084   0.00000  Uiso   1.00
C647   C     0.54066   0.76909   0.60768   0.00000  Uiso   1.00
C648   C     0.47650   0.71565   0.89466   0.00000  Uiso   1.00
C649   C     0.54149   0.76930   0.55818   0.00000  Uiso   1.00
C650   C     0.47614   0.71491   0.94423   0.00000  Uiso   1.00
C651   C     0.49993   0.74998   0.52666   0.00000  Uiso   1.00
C652   C     0.49990   0.75000   0.97330   0.00000  Uiso   1.00
C653   C     0.40033   0.74998   0.73753   0.00000  Uiso   1.00
C654   C     0.59967   0.74999   0.76247   0.00000  Uiso   1.00
C655   C     0.34532   0.74997   0.73079   0.00000  Uiso   1.00
C656   C     0.65469   0.74995   0.76919   0.00000  Uiso   1.00
C657   C     0.44622   0.55101   0.77827   0.00000  Uiso   1.00
C658   C     0.44689   0.94911   0.70671   0.00000  Uiso   1.00
C659   C     0.45867   0.59676   0.78058   0.00000  Uiso   1.00
C660   C     0.45937   0.90337   0.70783   0.00000  Uiso   1.00
C661   C     0.48949   0.61570   0.74890   0.00000  Uiso   1.00
C662   C     0.48944   0.88432   0.74826   0.00000  Uiso   1.00
C663   C     0.50759   0.58951   0.71408   0.00000  Uiso   1.00
C664   C     0.50668   0.91040   0.78837   0.00000  Uiso   1.00
C665   C     0.49695   0.54389   0.71220   0.00000  Uiso   1.00
C666   C     0.49598   0.95600   0.78735   0.00000  Uiso   1.00
C667   C     0.46705   0.52442   0.74432   0.00000  Uiso   1.00
C668   C     0.46691   0.97558   0.74670   0.00000  Uiso   1.00
H669   H     0.44313   0.61809   0.80611   0.00000  Uiso   1.00
H670   H     0.44445   0.88216   0.67775   0.00000  Uiso   1.00
H671   H     0.53096   0.60413   0.68917   0.00000  Uiso   1.00
H672   H     0.52943   0.89571   0.81994   0.00000  Uiso   1.00
H673   H     0.51363   0.52333   0.68673   0.00000  Uiso   1.00
H674   H     0.51205   0.97648   0.81766   0.00000  Uiso   1.00
H675   H     0.42490   0.71598   0.52476   0.00000  Uiso   1.00
H676   H     0.54177   0.81342   0.97062   0.00000  Uiso   1.00
H677   H     0.42716   0.71590   0.61181   0.00000  Uiso   1.00
H678   H     0.54186   0.81155   0.88392   0.00000  Uiso   1.00
H679   H     0.57496   0.78399   0.54494   0.00000  Uiso   1.00
H680   H     0.45798   0.68662   0.95960   0.00000  Uiso   1.00
N681   N     0.50000   0.74999   0.62623   0.00000  Uiso   1.00
N682   N     0.50000   0.75001   0.87376   0.00000  Uiso   1.00
O683   O     0.50000   0.68453   0.78974   0.00000  Uiso   1.00
O684   O     0.50000   0.81547   0.71026   0.00000  Uiso   1.00
O685   O     0.50000   0.68453   0.71026   0.00000  Uiso   1.00
O686   O     0.50000   0.81547   0.78974   0.00000  Uiso   1.00
O687   O     0.42392   0.75000   0.78044   0.00000  Uiso   1.00
O688   O     0.57608   0.75000   0.71955   0.00000  Uiso   1.00
O689   O     0.42392   0.75000   0.70096   0.00000  Uiso   1.00
O690   O     0.57608   0.75000   0.79903   0.00000  Uiso   1.00
Zn691  Zn    0.50000   0.75000   0.80307   0.00000  Uiso   1.00
Zn692  Zn    0.50000   0.74999   0.69693   0.00000  Uiso   1.00
H693   H     0.65802   0.74999   0.69436   0.00000  Uiso   1.00
H694   H     0.34200   0.74991   0.80562   0.00000  Uiso   1.00
C695   C     0.41149   0.53239   0.81111   0.00000  Uiso   1.00
O696   O     0.38853   0.99659   0.80229   0.00000  Uiso   1.00
O697   O     0.40401   0.55651   0.85187   0.00000  Uiso   1.00
H698   H     0.37930   0.54068   0.87118   0.00000  Uiso   1.00
C699   C     0.41303   0.96786   0.66392   0.00000  Uiso   1.00
O700   O     0.38987   0.50358   0.66622   0.00000  Uiso   1.00
O701   O     0.40662   0.94397   0.62097   0.00000  Uiso   1.00
H702   H     0.38246   0.95989   0.59459   0.00000  Uiso   1.00
H703   H     0.57280   0.78417   0.63132   0.00000  Uiso   1.00
H704   H     0.45803   0.68852   0.87286   0.00000  Uiso   1.00
C705   C     0.83211   0.66362   0.74994   0.00000  Uiso   1.00
C706   C     0.83210   0.83639   0.74973   0.00000  Uiso   1.00
C707   C     0.79172   0.73067   0.54702   0.00000  Uiso   1.00
C708   C     0.85700   0.78511   0.95049   0.00000  Uiso   1.00
C709   C     0.79262   0.73091   0.59676   0.00000  Uiso   1.00
C710   C     0.85674   0.78439   0.90084   0.00000  Uiso   1.00
C711   C     0.87399   0.76909   0.60768   0.00000  Uiso   1.00
C712   C     0.80983   0.71565   0.89466   0.00000  Uiso   1.00
C713   C     0.87483   0.76930   0.55818   0.00000  Uiso   1.00
C714   C     0.80948   0.71491   0.94423   0.00000  Uiso   1.00
C715   C     0.83326   0.74998   0.52666   0.00000  Uiso   1.00
C716   C     0.83324   0.75000   0.97330   0.00000  Uiso   1.00
C717   C     0.73367   0.74998   0.73753   0.00000  Uiso   1.00
C718   C     0.93300   0.74999   0.76247   0.00000  Uiso   1.00
C719   C     0.67865   0.74997   0.73079   0.00000  Uiso   1.00
C720   C     0.98802   0.74995   0.76919   0.00000  Uiso   1.00
C721   C     0.77956   0.55101   0.77827   0.00000  Uiso   1.00
C722   C     0.78022   0.94911   0.70671   0.00000  Uiso   1.00
C723   C     0.79201   0.59676   0.78058   0.00000  Uiso   1.00
C724   C     0.79271   0.90337   0.70783   0.00000  Uiso   1.00
C725   C     0.82282   0.61570   0.74890   0.00000  Uiso   1.00
C726   C     0.82278   0.88432   0.74826   0.00000  Uiso   1.00
C727   C     0.84092   0.58951   0.71408   0.00000  Uiso   1.00
C728   C     0.84001   0.91040   0.78837   0.00000  Uiso   1.00
C729   C     0.83029   0.54389   0.71220   0.00000  Uiso   1.00
C730   C     0.82931   0.95600   0.78735   0.00000  Uiso   1.00
C731   C     0.80039   0.52442   0.74432   0.00000  Uiso   1.00
C732   C     0.80024   0.97558   0.74670   0.00000  Uiso   1.00
H733   H     0.77647   0.61809   0.80611   0.00000  Uiso   1.00
H734   H     0.77779   0.88216   0.67775   0.00000  Uiso   1.00
H735   H     0.86430   0.60413   0.68917   0.00000  Uiso   1.00
H736   H     0.86277   0.89571   0.81994   0.00000  Uiso   1.00
H737   H     0.84697   0.52333   0.68673   0.00000  Uiso   1.00
H738   H     0.84538   0.97648   0.81766   0.00000  Uiso   1.00
H739   H     0.75823   0.71598   0.52476   0.00000  Uiso   1.00
H740   H     0.87511   0.81342   0.97062   0.00000  Uiso   1.00
H741   H     0.76050   0.71590   0.61181   0.00000  Uiso   1.00
H742   H     0.87519   0.81155   0.88392   0.00000  Uiso   1.00
H743   H     0.90829   0.78399   0.54494   0.00000  Uiso   1.00
H744   H     0.79132   0.68662   0.95960   0.00000  Uiso   1.00
N745   N     0.83333   0.74999   0.62623   0.00000  Uiso   1.00
N746   N     0.83333   0.75001   0.87376   0.00000  Uiso   1.00
O747   O     0.83334   0.68453   0.78974   0.00000  Uiso   1.00
O748   O     0.83333   0.81547   0.71026   0.00000  Uiso   1.00
O749   O     0.83334   0.68453   0.71026   0.00000  Uiso   1.00
O750   O     0.83333   0.81547   0.78974   0.00000  Uiso   1.00
O751   O     0.75725   0.75000   0.78044   0.00000  Uiso   1.00
O752   O     0.90942   0.75000   0.71955   0.00000  Uiso   1.00
O753   O     0.75725   0.75000   0.70096   0.00000  Uiso   1.00
O754   O     0.90942   0.75000   0.79903   0.00000  Uiso   1.00
Zn755  Zn    0.83333   0.75000   0.80307   0.00000  Uiso   1.00
Zn756  Zn    0.83333   0.74999   0.69693   0.00000  Uiso   1.00
H757   H     0.99135   0.74999   0.69436   0.00000  Uiso   1.00
H758   H     0.67533   0.74991   0.80562   0.00000  Uiso   1.00
C759   C     0.74482   0.53239   0.81111   0.00000  Uiso   1.00
O760   O     0.72186   0.99659   0.80229   0.00000  Uiso   1.00
O761   O     0.73735   0.55651   0.85187   0.00000  Uiso   1.00
H762   H     0.71264   0.54068   0.87118   0.00000  Uiso   1.00
C763   C     0.74636   0.96786   0.66392   0.00000  Uiso   1.00
O764   O     0.72320   0.50358   0.66622   0.00000  Uiso   1.00
O765   O     0.73996   0.94397   0.62097   0.00000  Uiso   1.00
H766   H     0.71579   0.95989   0.59459   0.00000  Uiso   1.00
H767   H     0.90613   0.78417   0.63132   0.00000  Uiso   1.00
H768   H     0.79136   0.68852   0.87286   0.00000  Uiso   1.00
loop_
_geom_bond_atom_site_label_1
_geom_bond_atom_site_label_2
_geom_bond_distance
_geom_bond_site_symmetry_2
_ccdc_geom_bond_type
C1     C21     1.440   .     S
C1     O43     1.286   .     A
C1     O45     1.287   .     A
C2     C22     1.441   .     S
C2     O46     1.287   .     A
C2     O44     1.286   .     A
C3     H35     1.082   .     S
C3     C11     1.410   .     A
C3     C5      1.407   .     A
C4     C6      1.407   .     A
C4     C12     1.410   .     A
C4     H36     1.082   .     S
C5     H37     1.082   .     S
C5     N41     1.363   .     A
C6     H38     1.082   .     S
C6     N42     1.363   .     A
C7     H63     1.081   .     S
C7     N41     1.363   .     A
C7     C9      1.407   .     A
C8     H64     1.082   .     S
C8     N42     1.363   .     A
C8     C10     1.407   .     A
C9     C11     1.410   .     A
C9     H39     1.082   .     S
C10    C12     1.411   .     A
C10    H40     1.082   .     S
C11    C396    1.513   1_554 S
C12    C395    1.513   .     S
C13    C15     1.402   .     S
C13    O49     1.278   .     A
C13    O47     1.276   .     A
C14    O48     1.275   .     A
C14    C16     1.402   .     S
C14    O50     1.278   .     A
C15    C144    1.330   1_455 S
C15    H181    1.088   1_455 S
C16    C79     1.330   .     S
C16    H118    1.088   .     S
C17    C55     1.490   .     S
C17    C27     1.413   .     A
C17    C19     1.393   .     A
C18    C28     1.413   .     A
C18    C59     1.490   .     S
C18    C20     1.393   .     A
C19    C21     1.401   .     A
C19    H29     1.084   .     S
C20    H30     1.084   .     S
C20    C22     1.401   .     A
C21    C23     1.393   .     A
C22    C24     1.393   .     A
C23    C25     1.379   .     A
C23    H31     1.084   .     S
C24    C26     1.379   .     A
C24    H32     1.084   .     S
C25    C27     1.401   .     A
C25    H33     1.084   .     S
C26    C28     1.401   .     A
C26    H34     1.084   .     S
C27    C220    1.449   1_545 S
C28    C219    1.449   .     S
N41    Zn52    2.004   .     S
N42    Zn51    2.004   .     S
O43    Zn51    1.979   .     S
O44    Zn52    1.979   .     S
O45    Zn52    1.976   .     S
O46    Zn51    1.976   .     S
O47    Zn51    1.970   .     S
O48    Zn52    1.970   .     S
O49    Zn52    1.982   .     S
O50    Zn51    1.982   .     S
H53    C79     1.088   .     S
H54    C144    1.088   1_455 S
C55    O57     1.399   .     S
C55    O248    1.223   1_545 S
O56    C247    1.223   .     S
O57    H58     1.014   .     S
C59    O61     1.399   .     S
C59    O252    1.223   .     S
O60    C251    1.223   1_545 S
O61    H62     1.014   .     S
C65    C85     1.440   .     S
C65    O107    1.286   .     A
C65    O109    1.287   .     A
C66    C86     1.441   .     S
C66    O110    1.287   .     A
C66    O108    1.286   .     A
C67    H99     1.082   .     S
C67    C75     1.410   .     A
C67    C69     1.407   .     A
C68    C70     1.407   .     A
C68    C76     1.410   .     A
C68    H100    1.082   .     S
C69    H101    1.082   .     S
C69    N105    1.363   .     A
C70    H102    1.082   .     S
C70    N106    1.363   .     A
C71    H127    1.081   .     S
C71    N105    1.363   .     A
C71    C73     1.407   .     A
C72    H128    1.082   .     S
C72    N106    1.363   .     A
C72    C74     1.407   .     A
C73    C75     1.410   .     A
C73    H103    1.082   .     S
C74    C76     1.411   .     A
C74    H104    1.082   .     S
C75    C460    1.513   1_554 S
C76    C459    1.513   .     S
C77    C79     1.402   .     S
C77    O113    1.278   .     A
C77    O111    1.276   .     A
C78    O112    1.275   .     A
C78    C80     1.402   .     S
C78    O114    1.278   .     A
C80    C143    1.330   .     S
C80    H182    1.088   .     S
C81    C119    1.490   .     S
C81    C91     1.413   .     A
C81    C83     1.393   .     A
C82    C92     1.413   .     A
C82    C123    1.490   .     S
C82    C84     1.393   .     A
C83    C85     1.401   .     A
C83    H93     1.084   .     S
C84    H94     1.084   .     S
C84    C86     1.401   .     A
C85    C87     1.393   .     A
C86    C88     1.393   .     A
C87    C89     1.379   .     A
C87    H95     1.084   .     S
C88    C90     1.379   .     A
C88    H96     1.084   .     S
C89    C91     1.401   .     A
C89    H97     1.084   .     S
C90    C92     1.401   .     A
C90    H98     1.084   .     S
C91    C284    1.449   1_545 S
C92    C283    1.449   .     S
N105   Zn116   2.004   .     S
N106   Zn115   2.004   .     S
O107   Zn115   1.979   .     S
O108   Zn116   1.979   .     S
O109   Zn116   1.976   .     S
O110   Zn115   1.976   .     S
O111   Zn115   1.970   .     S
O112   Zn116   1.970   .     S
O113   Zn116   1.982   .     S
O114   Zn115   1.982   .     S
H117   C143    1.088   .     S
C119   O121    1.399   .     S
C119   O312    1.223   1_545 S
O120   C311    1.223   .     S
O121   H122    1.014   .     S
C123   O125    1.399   .     S
C123   O316    1.223   .     S
O124   C315    1.223   1_545 S
O125   H126    1.014   .     S
C129   C149    1.440   .     S
C129   O171    1.286   .     A
C129   O173    1.287   .     A
C130   C150    1.441   .     S
C130   O174    1.287   .     A
C130   O172    1.286   .     A
C131   H163    1.082   .     S
C131   C139    1.410   .     A
C131   C133    1.407   .     A
C132   C134    1.407   .     A
C132   C140    1.410   .     A
C132   H164    1.082   .     S
C133   H165    1.082   .     S
C133   N169    1.363   .     A
C134   H166    1.082   .     S
C134   N170    1.363   .     A
C135   H191    1.081   .     S
C135   N169    1.363   .     A
C135   C137    1.407   .     A
C136   H192    1.082   .     S
C136   N170    1.363   .     A
C136   C138    1.407   .     A
C137   C139    1.410   .     A
C137   H167    1.082   .     S
C138   C140    1.411   .     A
C138   H168    1.082   .     S
C139   C524    1.513   1_554 S
C140   C523    1.513   .     S
C141   C143    1.402   .     S
C141   O177    1.278   .     A
C141   O175    1.276   .     A
C142   O176    1.275   .     A
C142   C144    1.402   .     S
C142   O178    1.278   .     A
C144   C15     1.330   1_655 S
C144   H54     1.088   1_655 S
C145   C183    1.490   .     S
C145   C155    1.413   .     A
C145   C147    1.393   .     A
C146   C156    1.413   .     A
C146   C187    1.490   .     S
C146   C148    1.393   .     A
C147   C149    1.401   .     A
C147   H157    1.084   .     S
C148   H158    1.084   .     S
C148   C150    1.401   .     A
C149   C151    1.393   .     A
C150   C152    1.393   .     A
C151   C153    1.379   .     A
C151   H159    1.084   .     S
C152   C154    1.379   .     A
C152   H160    1.084   .     S
C153   C155    1.401   .     A
C153   H161    1.084   .     S
C154   C156    1.401   .     A
C154   H162    1.084   .     S
C155   C348    1.449   1_545 S
C156   C347    1.449   .     S
N169   Zn180   2.004   .     S
N170   Zn179   2.004   .     S
O171   Zn179   1.979   .     S
O172   Zn180   1.979   .     S
O173   Zn180   1.976   .     S
O174   Zn179   1.976   .     S
O175   Zn179   1.970   .     S
O176   Zn180   1.970   .     S
O177   Zn180   1.982   .     S
O178   Zn179   1.982   .     S
H181   C15     1.088   1_655 S
C183   O185    1.399   .     S
C183   O376    1.223   1_545 S
O184   C375    1.223   .     S
O185   H186    1.014   .     S
C187   O189    1.399   .     S
C187   O380    1.223   .     S
O188   C379    1.223   1_545 S
O189   H190    1.014   .     S
C193   C213    1.440   .     S
C193   O235    1.286   .     A
C193   O237    1.287   .     A
C194   C214    1.441   .     S
C194   O238    1.287   .     A
C194   O236    1.286   .     A
C195   H227    1.082   .     S
C195   C203    1.410   .     A
C195   C197    1.407   .     A
C196   C198    1.407   .     A
C196   C204    1.410   .     A
C196   H228    1.082   .     S
C197   H229    1.082   .     S
C197   N233    1.363   .     A
C198   H230    1.082   .     S
C198   N234    1.363   .     A
C199   H255    1.081   .     S
C199   N233    1.363   .     A
C199   C201    1.407   .     A
C200   H256    1.082   .     S
C200   N234    1.363   .     A
C200   C202    1.407   .     A
C201   C203    1.410   .     A
C201   H231    1.082   .     S
C202   C204    1.411   .     A
C202   H232    1.082   .     S
C203   C588    1.513   1_554 S
C204   C587    1.513   .     S
C205   C207    1.402   .     S
C205   O241    1.278   .     A
C205   O239    1.276   .     A
C206   O240    1.275   .     A
C206   C208    1.402   .     S
C206   O242    1.278   .     A
C207   C336    1.330   1_455 S
C207   H373    1.088   1_455 S
C208   C271    1.330   .     S
C208   H310    1.088   .     S
C209   C247    1.490   .     S
C209   C219    1.413   .     A
C209   C211    1.393   .     A
C210   C220    1.413   .     A
C210   C251    1.490   .     S
C210   C212    1.393   .     A
C211   C213    1.401   .     A
C211   H221    1.084   .     S
C212   H222    1.084   .     S
C212   C214    1.401   .     A
C213   C215    1.393   .     A
C214   C216    1.393   .     A
C215   C217    1.379   .     A
C215   H223    1.084   .     S
C216   C218    1.379   .     A
C216   H224    1.084   .     S
C217   C219    1.401   .     A
C217   H225    1.084   .     S
C218   C220    1.401   .     A
C218   H226    1.084   .     S
C220   C27     1.449   1_565 S
N233   Zn244   2.004   .     S
N234   Zn243   2.004   .     S
O235   Zn243   1.979   .     S
O236   Zn244   1.979   .     S
O237   Zn244   1.976   .     S
O238   Zn243   1.976   .     S
O239   Zn243   1.970   .     S
O240   Zn244   1.970   .     S
O241   Zn244   1.982   .     S
O242   Zn243   1.982   .     S
H245   C271    1.088   .     S
H246   C336    1.088   1_455 S
C247   O249    1.399   .     S
O248   C55     1.223   1_565 S
O249   H250    1.014   .     S
C251   O253    1.399   .     S
C251   O60     1.223   1_565 S
O253   H254    1.014   .     S
C257   C277    1.440   .     S
C257   O299    1.286   .     A
C257   O301    1.287   .     A
C258   C278    1.441   .     S
C258   O302    1.287   .     A
C258   O300    1.286   .     A
C259   H291    1.082   .     S
C259   C267    1.410   .     A
C259   C261    1.407   .     A
C260   C262    1.407   .     A
C260   C268    1.410   .     A
C260   H292    1.082   .     S
C261   H293    1.082   .     S
C261   N297    1.363   .     A
C262   H294    1.082   .     S
C262   N298    1.363   .     A
C263   H319    1.081   .     S
C263   N297    1.363   .     A
C263   C265    1.407   .     A
C264   H320    1.082   .     S
C264   N298    1.363   .     A
C264   C266    1.407   .     A
C265   C267    1.410   .     A
C265   H295    1.082   .     S
C266   C268    1.411   .     A
C266   H296    1.082   .     S
C267   C652    1.513   1_554 S
C268   C651    1.513   .     S
C269   C271    1.402   .     S
C269   O305    1.278   .     A
C269   O303    1.276   .     A
C270   O304    1.275   .     A
C270   C272    1.402   .     S
C270   O306    1.278   .     A
C272   C335    1.330   .     S
C272   H374    1.088   .     S
C273   C311    1.490   .     S
C273   C283    1.413   .     A
C273   C275    1.393   .     A
C274   C284    1.413   .     A
C274   C315    1.490   .     S
C274   C276    1.393   .     A
C275   C277    1.401   .     A
C275   H285    1.084   .     S
C276   H286    1.084   .     S
C276   C278    1.401   .     A
C277   C279    1.393   .     A
C278   C280    1.393   .     A
C279   C281    1.379   .     A
C279   H287    1.084   .     S
C280   C282    1.379   .     A
C280   H288    1.084   .     S
C281   C283    1.401   .     A
C281   H289    1.084   .     S
C282   C284    1.401   .     A
C282   H290    1.084   .     S
C284   C91     1.449   1_565 S
N297   Zn308   2.004   .     S
N298   Zn307   2.004   .     S
O299   Zn307   1.979   .     S
O300   Zn308   1.979   .     S
O301   Zn308   1.976   .     S
O302   Zn307   1.976   .     S
O303   Zn307   1.970   .     S
O304   Zn308   1.970   .     S
O305   Zn308   1.982   .     S
O306   Zn307   1.982   .     S
H309   C335    1.088   .     S
C311   O313    1.399   .     S
O312   C119    1.223   1_565 S
O313   H314    1.014   .     S
C315   O317    1.399   .     S
C315   O124    1.223   1_565 S
O317   H318    1.014   .     S
C321   C341    1.440   .     S
C321   O363    1.286   .     A
C321   O365    1.287   .     A
C322   C342    1.441   .     S
C322   O366    1.287   .     A
C322   O364    1.286   .     A
C323   H355    1.082   .     S
C323   C331    1.410   .     A
C323   C325    1.407   .     A
C324   C326    1.407   .     A
C324   C332    1.410   .     A
C324   H356    1.082   .     S
C325   H357    1.082   .     S
C325   N361    1.363   .     A
C326   H358    1.082   .     S
C326   N362    1.363   .     A
C327   H383    1.081   .     S
C327   N361    1.363   .     A
C327   C329    1.407   .     A
C328   H384    1.082   .     S
C328   N362    1.363   .     A
C328   C330    1.407   .     A
C329   C331    1.410   .     A
C329   H359    1.082   .     S
C330   C332    1.411   .     A
C330   H360    1.082   .     S
C331   C716    1.513   1_554 S
C332   C715    1.513   .     S
C333   C335    1.402   .     S
C333   O369    1.278   .     A
C333   O367    1.276   .     A
C334   O368    1.275   .     A
C334   C336    1.402   .     S
C334   O370    1.278   .     A
C336   C207    1.330   1_655 S
C336   H246    1.088   1_655 S
C337   C375    1.490   .     S
C337   C347    1.413   .     A
C337   C339    1.393   .     A
C338   C348    1.413   .     A
C338   C379    1.490   .     S
C338   C340    1.393   .     A
C339   C341    1.401   .     A
C339   H349    1.084   .     S
C340   H350    1.084   .     S
C340   C342    1.401   .     A
C341   C343    1.393   .     A
C342   C344    1.393   .     A
C343   C345    1.379   .     A
C343   H351    1.084   .     S
C344   C346    1.379   .     A
C344   H352    1.084   .     S
C345   C347    1.401   .     A
C345   H353    1.084   .     S
C346   C348    1.401   .     A
C346   H354    1.084   .     S
C348   C155    1.449   1_565 S
N361   Zn372   2.004   .     S
N362   Zn371   2.004   .     S
O363   Zn371   1.979   .     S
O364   Zn372   1.979   .     S
O365   Zn372   1.976   .     S
O366   Zn371   1.976   .     S
O367   Zn371   1.970   .     S
O368   Zn372   1.970   .     S
O369   Zn372   1.982   .     S
O370   Zn371   1.982   .     S
H373   C207    1.088   1_655 S
C375   O377    1.399   .     S
O376   C183    1.223   1_565 S
O377   H378    1.014   .     S
C379   O381    1.399   .     S
C379   O188    1.223   1_565 S
O381   H382    1.014   .     S
C385   C405    1.440   .     S
C385   O427    1.286   .     A
C385   O429    1.287   .     A
C386   C406    1.441   .     S
C386   O430    1.287   .     A
C386   O428    1.286   .     A
C387   H419    1.082   .     S
C387   C395    1.410   .     A
C387   C389    1.407   .     A
C388   C390    1.407   .     A
C388   C396    1.410   .     A
C388   H420    1.082   .     S
C389   H421    1.082   .     S
C389   N425    1.363   .     A
C390   H422    1.082   .     S
C390   N426    1.363   .     A
C391   H447    1.081   .     S
C391   N425    1.363   .     A
C391   C393    1.407   .     A
C392   H448    1.082   .     S
C392   N426    1.363   .     A
C392   C394    1.407   .     A
C393   C395    1.410   .     A
C393   H423    1.082   .     S
C394   C396    1.411   .     A
C394   H424    1.082   .     S
C396   C11     1.513   1_556 S
C397   C399    1.402   .     S
C397   O433    1.278   .     A
C397   O431    1.276   .     A
C398   O432    1.275   .     A
C398   C400    1.402   .     S
C398   O434    1.278   .     A
C399   C528    1.330   1_455 S
C399   H565    1.088   1_455 S
C400   C463    1.330   .     S
C400   H502    1.088   .     S
C401   C439    1.490   .     S
C401   C411    1.413   .     A
C401   C403    1.393   .     A
C402   C412    1.413   .     A
C402   C443    1.490   .     S
C402   C404    1.393   .     A
C403   C405    1.401   .     A
C403   H413    1.084   .     S
C404   H414    1.084   .     S
C404   C406    1.401   .     A
C405   C407    1.393   .     A
C406   C408    1.393   .     A
C407   C409    1.379   .     A
C407   H415    1.084   .     S
C408   C410    1.379   .     A
C408   H416    1.084   .     S
C409   C411    1.401   .     A
C409   H417    1.084   .     S
C410   C412    1.401   .     A
C410   H418    1.084   .     S
C411   C604    1.449   1_545 S
C412   C603    1.449   .     S
N425   Zn436   2.004   .     S
N426   Zn435   2.004   .     S
O427   Zn435   1.979   .     S
O428   Zn436   1.979   .     S
O429   Zn436   1.976   .     S
O430   Zn435   1.976   .     S
O431   Zn435   1.970   .     S
O432   Zn436   1.970   .     S
O433   Zn436   1.982   .     S
O434   Zn435   1.982   .     S
H437   C463    1.088   .     S
H438   C528    1.088   1_455 S
C439   O441    1.399   .     S
C439   O632    1.223   1_545 S
O440   C631    1.223   .     S
O441   H442    1.014   .     S
C443   O445    1.399   .     S
C443   O636    1.223   .     S
O444   C635    1.223   1_545 S
O445   H446    1.014   .     S
C449   C469    1.440   .     S
C449   O491    1.286   .     A
C449   O493    1.287   .     A
C450   C470    1.441   .     S
C450   O494    1.287   .     A
C450   O492    1.286   .     A
C451   H483    1.082   .     S
C451   C459    1.410   .     A
C451   C453    1.407   .     A
C452   C454    1.407   .     A
C452   C460    1.410   .     A
C452   H484    1.082   .     S
C453   H485    1.082   .     S
C453   N489    1.363   .     A
C454   H486    1.082   .     S
C454   N490    1.363   .     A
C455   H511    1.081   .     S
C455   N489    1.363   .     A
C455   C457    1.407   .     A
C456   H512    1.082   .     S
C456   N490    1.363   .     A
C456   C458    1.407   .     A
C457   C459    1.410   .     A
C457   H487    1.082   .     S
C458   C460    1.411   .     A
C458   H488    1.082   .     S
C460   C75     1.513   1_556 S
C461   C463    1.402   .     S
C461   O497    1.278   .     A
C461   O495    1.276   .     A
C462   O496    1.275   .     A
C462   C464    1.402   .     S
C462   O498    1.278   .     A
C464   C527    1.330   .     S
C464   H566    1.088   .     S
C465   C503    1.490   .     S
C465   C475    1.413   .     A
C465   C467    1.393   .     A
C466   C476    1.413   .     A
C466   C507    1.490   .     S
C466   C468    1.393   .     A
C467   C469    1.401   .     A
C467   H477    1.084   .     S
C468   H478    1.084   .     S
C468   C470    1.401   .     A
C469   C471    1.393   .     A
C470   C472    1.393   .     A
C471   C473    1.379   .     A
C471   H479    1.084   .     S
C472   C474    1.379   .     A
C472   H480    1.084   .     S
C473   C475    1.401   .     A
C473   H481    1.084   .     S
C474   C476    1.401   .     A
C474   H482    1.084   .     S
C475   C668    1.449   1_545 S
C476   C667    1.449   .     S
N489   Zn500   2.004   .     S
N490   Zn499   2.004   .     S
O491   Zn499   1.979   .     S
O492   Zn500   1.979   .     S
O493   Zn500   1.976   .     S
O494   Zn499   1.976   .     S
O495   Zn499   1.970   .     S
O496   Zn500   1.970   .     S
O497   Zn500   1.982   .     S
O498   Zn499   1.982   .     S
H501   C527    1.088   .     S
C503   O505    1.399   .     S
C503   O696    1.223   1_545 S
O504   C695    1.223   .     S
O505   H506    1.014   .     S
C507   O509    1.399   .     S
C507   O700    1.223   .     S
O508   C699    1.223   1_545 S
O509   H510    1.014   .     S
C513   C533    1.440   .     S
C513   O555    1.286   .     A
C513   O557    1.287   .     A
C514   C534    1.441   .     S
C514   O558    1.287   .     A
C514   O556    1.286   .     A
C515   H547    1.082   .     S
C515   C523    1.410   .     A
C515   C517    1.407   .     A
C516   C518    1.407   .     A
C516   C524    1.410   .     A
C516   H548    1.082   .     S
C517   H549    1.082   .     S
C517   N553    1.363   .     A
C518   H550    1.082   .     S
C518   N554    1.363   .     A
C519   H575    1.081   .     S
C519   N553    1.363   .     A
C519   C521    1.407   .     A
C520   H576    1.082   .     S
C520   N554    1.363   .     A
C520   C522    1.407   .     A
C521   C523    1.410   .     A
C521   H551    1.082   .     S
C522   C524    1.411   .     A
C522   H552    1.082   .     S
C524   C139    1.513   1_556 S
C525   C527    1.402   .     S
C525   O561    1.278   .     A
C525   O559    1.276   .     A
C526   O560    1.275   .     A
C526   C528    1.402   .     S
C526   O562    1.278   .     A
C528   C399    1.330   1_655 S
C528   H438    1.088   1_655 S
C529   C567    1.490   .     S
C529   C539    1.413   .     A
C529   C531    1.393   .     A
C530   C540    1.413   .     A
C530   C571    1.490   .     S
C530   C532    1.393   .     A
C531   C533    1.401   .     A
C531   H541    1.084   .     S
C532   H542    1.084   .     S
C532   C534    1.401   .     A
C533   C535    1.393   .     A
C534   C536    1.393   .     A
C535   C537    1.379   .     A
C535   H543    1.084   .     S
C536   C538    1.379   .     A
C536   H544    1.084   .     S
C537   C539    1.401   .     A
C537   H545    1.084   .     S
C538   C540    1.401   .     A
C538   H546    1.084   .     S
C539   C732    1.449   1_545 S
C540   C731    1.449   .     S
N553   Zn564   2.004   .     S
N554   Zn563   2.004   .     S
O555   Zn563   1.979   .     S
O556   Zn564   1.979   .     S
O557   Zn564   1.976   .     S
O558   Zn563   1.976   .     S
O559   Zn563   1.970   .     S
O560   Zn564   1.970   .     S
O561   Zn564   1.982   .     S
O562   Zn563   1.982   .     S
H565   C399    1.088   1_655 S
C567   O569    1.399   .     S
C567   O760    1.223   1_545 S
O568   C759    1.223   .     S
O569   H570    1.014   .     S
C571   O573    1.399   .     S
C571   O764    1.223   .     S
O572   C763    1.223   1_545 S
O573   H574    1.014   .     S
C577   C597    1.440   .     S
C577   O619    1.286   .     A
C577   O621    1.287   .     A
C578   C598    1.441   .     S
C578   O622    1.287   .     A
C578   O620    1.286   .     A
C579   H611    1.082   .     S
C579   C587    1.410   .     A
C579   C581    1.407   .     A
C580   C582    1.407   .     A
C580   C588    1.410   .     A
C580   H612    1.082   .     S
C581   H613    1.082   .     S
C581   N617    1.363   .     A
C582   H614    1.082   .     S
C582   N618    1.363   .     A
C583   H639    1.081   .     S
C583   N617    1.363   .     A
C583   C585    1.407   .     A
C584   H640    1.082   .     S
C584   N618    1.363   .     A
C584   C586    1.407   .     A
C585   C587    1.410   .     A
C585   H615    1.082   .     S
C586   C588    1.411   .     A
C586   H616    1.082   .     S
C588   C203    1.513   1_556 S
C589   C591    1.402   .     S
C589   O625    1.278   .     A
C589   O623    1.276   .     A
C590   O624    1.275   .     A
C590   C592    1.402   .     S
C590   O626    1.278   .     A
C591   C720    1.330   1_455 S
C591   H757    1.088   1_455 S
C592   C655    1.330   .     S
C592   H694    1.088   .     S
C593   C631    1.490   .     S
C593   C603    1.413   .     A
C593   C595    1.393   .     A
C594   C604    1.413   .     A
C594   C635    1.490   .     S
C594   C596    1.393   .     A
C595   C597    1.401   .     A
C595   H605    1.084   .     S
C596   H606    1.084   .     S
C596   C598    1.401   .     A
C597   C599    1.393   .     A
C598   C600    1.393   .     A
C599   C601    1.379   .     A
C599   H607    1.084   .     S
C600   C602    1.379   .     A
C600   H608    1.084   .     S
C601   C603    1.401   .     A
C601   H609    1.084   .     S
C602   C604    1.401   .     A
C602   H610    1.084   .     S
C604   C411    1.449   1_565 S
N617   Zn628   2.004   .     S
N618   Zn627   2.004   .     S
O619   Zn627   1.979   .     S
O620   Zn628   1.979   .     S
O621   Zn628   1.976   .     S
O622   Zn627   1.976   .     S
O623   Zn627   1.970   .     S
O624   Zn628   1.970   .     S
O625   Zn628   1.982   .     S
O626   Zn627   1.982   .     S
H629   C655    1.088   .     S
H630   C720    1.088   1_455 S
C631   O633    1.399   .     S
O632   C439    1.223   1_565 S
O633   H634    1.014   .     S
C635   O637    1.399   .     S
C635   O444    1.223   1_565 S
O637   H638    1.014   .     S
C641   C661    1.440   .     S
C641   O683    1.286   .     A
C641   O685    1.287   .     A
C642   C662    1.441   .     S
C642   O686    1.287   .     A
C642   O684    1.286   .     A
C643   H675    1.082   .     S
C643   C651    1.410   .     A
C643   C645    1.407   .     A
C644   C646    1.407   .     A
C644   C652    1.410   .     A
C644   H676    1.082   .     S
C645   H677    1.082   .     S
C645   N681    1.363   .     A
C646   H678    1.082   .     S
C646   N682    1.363   .     A
C647   H703    1.081   .     S
C647   N681    1.363   .     A
C647   C649    1.407   .     A
C648   H704    1.082   .     S
C648   N682    1.363   .     A
C648   C650    1.407   .     A
C649   C651    1.410   .     A
C649   H679    1.082   .     S
C650   C652    1.411   .     A
C650   H680    1.082   .     S
C652   C267    1.513   1_556 S
C653   C655    1.402   .     S
C653   O689    1.278   .     A
C653   O687    1.276   .     A
C654   O688    1.275   .     A
C654   C656    1.402   .     S
C654   O690    1.278   .     A
C656   C719    1.330   .     S
C656   H758    1.088   .     S
C657   C695    1.490   .     S
C657   C667    1.413   .     A
C657   C659    1.393   .     A
C658   C668    1.413   .     A
C658   C699    1.490   .     S
C658   C660    1.393   .     A
C659   C661    1.401   .     A
C659   H669    1.084   .     S
C660   H670    1.084   .     S
C660   C662    1.401   .     A
C661   C663    1.393   .     A
C662   C664    1.393   .     A
C663   C665    1.379   .     A
C663   H671    1.084   .     S
C664   C666    1.379   .     A
C664   H672    1.084   .     S
C665   C667    1.401   .     A
C665   H673    1.084   .     S
C666   C668    1.401   .     A
C666   H674    1.084   .     S
C668   C475    1.449   1_565 S
N681   Zn692   2.004   .     S
N682   Zn691   2.004   .     S
O683   Zn691   1.979   .     S
O684   Zn692   1.979   .     S
O685   Zn692   1.976   .     S
O686   Zn691   1.976   .     S
O687   Zn691   1.970   .     S
O688   Zn692   1.970   .     S
O689   Zn692   1.982   .     S
O690   Zn691   1.982   .     S
H693   C719    1.088   .     S
C695   O697    1.399   .     S
O696   C503    1.223   1_565 S
O697   H698    1.014   .     S
C699   O701    1.399   .     S
C699   O508    1.223   1_565 S
O701   H702    1.014   .     S
C705   C725    1.440   .     S
C705   O747    1.286   .     A
C705   O749    1.287   .     A
C706   C726    1.441   .     S
C706   O750    1.287   .     A
C706   O748    1.286   .     A
C707   H739    1.082   .     S
C707   C715    1.410   .     A
C707   C709    1.407   .     A
C708   C710    1.407   .     A
C708   C716    1.410   .     A
C708   H740    1.082   .     S
C709   H741    1.082   .     S
C709   N745    1.363   .     A
C710   H742    1.082   .     S
C710   N746    1.363   .     A
C711   H767    1.081   .     S
C711   N745    1.363   .     A
C711   C713    1.407   .     A
C712   H768    1.082   .     S
C712   N746    1.363   .     A
C712   C714    1.407   .     A
C713   C715    1.410   .     A
C713   H743    1.082   .     S
C714   C716    1.411   .     A
C714   H744    1.082   .     S
C716   C331    1.513   1_556 S
C717   C719    1.402   .     S
C717   O753    1.278   .     A
C717   O751    1.276   .     A
C718   O752    1.275   .     A
C718   C720    1.402   .     S
C718   O754    1.278   .     A
C720   C591    1.330   1_655 S
C720   H630    1.088   1_655 S
C721   C759    1.490   .     S
C721   C731    1.413   .     A
C721   C723    1.393   .     A
C722   C732    1.413   .     A
C722   C763    1.490   .     S
C722   C724    1.393   .     A
C723   C725    1.401   .     A
C723   H733    1.084   .     S
C724   H734    1.084   .     S
C724   C726    1.401   .     A
C725   C727    1.393   .     A
C726   C728    1.393   .     A
C727   C729    1.379   .     A
C727   H735    1.084   .     S
C728   C730    1.379   .     A
C728   H736    1.084   .     S
C729   C731    1.401   .     A
C729   H737    1.084   .     S
C730   C732    1.401   .     A
C730   H738    1.084   .     S
C732   C539    1.449   1_565 S
N745   Zn756   2.004   .     S
N746   Zn755   2.004   .     S
O747   Zn755   1.979   .     S
O748   Zn756   1.979   .     S
O749   Zn756   1.976   .     S
O750   Zn755   1.976   .     S
O751   Zn755   1.970   .     S
O752   Zn756   1.970   .     S
O753   Zn756   1.982   .     S
O754   Zn755   1.982   .     S
H757   C591    1.088   1_655 S
C759   O761    1.399   .     S
O760   C567    1.223   1_565 S
O761   H762    1.014   .     S
C763   O765    1.399   .     S
C763   O572    1.223   1_565 S
O765   H766    1.014   .     S
