data_str_m3_o2_o10_pcu_sym.85
_audit_creation_date              2020-01-03
_audit_creation_method            'Materials Studio'
_symmetry_space_group_name_H-M    'P1'
_symmetry_Int_Tables_number       1
_symmetry_cell_setting            triclinic
loop_
_symmetry_equiv_pos_as_xyz
  x,y,z
_cell_length_a                    25.8837
_cell_length_b                    29.8888
_cell_length_c                    28.6562
_cell_angle_alpha                 89.4398
_cell_angle_beta                  97.5424
_cell_angle_gamma                 91.4642
loop_
_atom_site_label
_atom_site_type_symbol
_atom_site_fract_x
_atom_site_fract_y
_atom_site_fract_z
_atom_site_U_iso_or_equiv
_atom_site_adp_type
_atom_site_occupancy
C1     C     0.16701   0.16409   0.25023   0.00000  Uiso   1.00
C2     C     0.15267   0.20972   0.44541   0.00000  Uiso   1.00
C3     C     0.16738   0.24747   0.02684   0.00000  Uiso   1.00
C4     C     0.16726   0.24806   0.47353   0.00000  Uiso   1.00
C5     C     0.06748   0.25086   0.23814   0.00000  Uiso   1.00
C6     C     0.26590   0.24886   0.26197   0.00000  Uiso   1.00
C7     C     0.01348   0.25840   0.23355   0.00000  Uiso   1.00
C8     C     0.32009   0.24143   0.26699   0.00000  Uiso   1.00
C9     C     0.13926   0.04361   0.27175   0.00000  Uiso   1.00
C10    C     0.13960   0.45426   0.21629   0.00000  Uiso   1.00
C11    C     0.13433   0.08967   0.26971   0.00000  Uiso   1.00
C12    C     0.16710   0.33592   0.24967   0.00000  Uiso   1.00
C13    C     0.13418   0.40813   0.21933   0.00000  Uiso   1.00
C14    C     0.17225   0.11637   0.25124   0.00000  Uiso   1.00
C15    C     0.17138   0.38391   0.24857   0.00000  Uiso   1.00
C16    C     0.21454   0.09710   0.23274   0.00000  Uiso   1.00
C17    C     0.21534   0.40499   0.27364   0.00000  Uiso   1.00
C18    C     0.21659   0.05085   0.23064   0.00000  Uiso   1.00
C19    C     0.21832   0.45183   0.27449   0.00000  Uiso   1.00
C20    C     0.17973   0.02425   0.25071   0.00000  Uiso   1.00
C21    C     0.18041   0.47609   0.24582   0.00000  Uiso   1.00
C22    C     0.12397   0.23085   0.04805   0.00000  Uiso   1.00
C23    C     0.18212   0.28719   0.44958   0.00000  Uiso   1.00
C24    C     0.12716   0.22850   0.09763   0.00000  Uiso   1.00
C25    C     0.18683   0.28539   0.40113   0.00000  Uiso   1.00
C26    C     0.20674   0.26989   0.10589   0.00000  Uiso   1.00
C27    C     0.14743   0.21329   0.39586   0.00000  Uiso   1.00
C28    C     0.21072   0.26455   0.05770   0.00000  Uiso   1.00
Cl29   Cl    0.07806   0.11288   0.28772   0.00000  Uiso   1.00
Cl30   Cl    0.07979   0.38128   0.18638   0.00000  Uiso   1.00
Cl31   Cl    0.26554   0.02672   0.20197   0.00000  Uiso   1.00
Cl32   Cl    0.26669   0.48013   0.31379   0.00000  Uiso   1.00
Cl33   Cl    0.07921   0.19622   0.12152   0.00000  Uiso   1.00
Cl34   Cl    0.22186   0.32926   0.37799   0.00000  Uiso   1.00
H35    H     0.01740   0.29755   0.17890   0.00000  Uiso   1.00
H36    H     0.10392   0.19184   0.34185   0.00000  Uiso   1.00
H37    H     0.26063   0.26204   0.01279   0.00000  Uiso   1.00
H38    H     0.15888   0.16696   0.49724   0.00000  Uiso   1.00
H39    H     0.31576   0.20114   0.32074   0.00000  Uiso   1.00
H40    H     0.11576   0.48831   0.30034   0.00000  Uiso   1.00
H41    H     0.11624   0.00763   0.18039   0.00000  Uiso   1.00
H42    H     0.25604   0.15230   0.22981   0.00000  Uiso   1.00
H43    H     0.28619   0.39730   0.30559   0.00000  Uiso   1.00
H44    H     0.07451   0.23110   0.49081   0.00000  Uiso   1.00
H45    H     0.17421   0.32872   0.49975   0.00000  Uiso   1.00
H46    H     0.22992   0.30675   0.15906   0.00000  Uiso   1.00
N47    N     0.16667   0.24999   0.12624   0.00000  Uiso   1.00
N48    N     0.16667   0.25001   0.37377   0.00000  Uiso   1.00
O49    O     0.16667   0.18454   0.28974   0.00000  Uiso   1.00
O50    O     0.00953   0.21341   0.30239   0.00000  Uiso   1.00
O51    O     0.10266   0.01865   0.29262   0.00000  Uiso   1.00
O52    O     0.10307   0.47693   0.18594   0.00000  Uiso   1.00
O53    O     0.25388   0.12210   0.21581   0.00000  Uiso   1.00
O54    O     0.25452   0.37873   0.29591   0.00000  Uiso   1.00
O55    O     0.07808   0.21616   0.02199   0.00000  Uiso   1.00
O56    O     0.19348   0.32757   0.47217   0.00000  Uiso   1.00
O57    O     0.24470   0.29547   0.13163   0.00000  Uiso   1.00
O58    O     0.12291   0.17847   0.37048   0.00000  Uiso   1.00
O59    O     0.25705   0.27803   0.04223   0.00000  Uiso   1.00
O60    O     0.16666   0.31547   0.21026   0.00000  Uiso   1.00
O61    O     0.14135   0.16856   0.46445   0.00000  Uiso   1.00
O62    O     0.16667   0.18453   0.21026   0.00000  Uiso   1.00
O63    O     0.16666   0.31547   0.28974   0.00000  Uiso   1.00
O64    O     0.09058   0.25000   0.28045   0.00000  Uiso   1.00
O65    O     0.24275   0.25000   0.21956   0.00000  Uiso   1.00
O66    O     0.09058   0.25000   0.20097   0.00000  Uiso   1.00
O67    O     0.24275   0.25001   0.29904   0.00000  Uiso   1.00
O68    O     0.32442   0.28739   0.19912   0.00000  Uiso   1.00
Zn69   Zn    0.16667   0.25001   0.30307   0.00000  Uiso   1.00
Zn70   Zn    0.16667   0.25000   0.19693   0.00000  Uiso   1.00
C71    C     0.50034   0.16409   0.25023   0.00000  Uiso   1.00
C72    C     0.48600   0.20972   0.44541   0.00000  Uiso   1.00
C73    C     0.50072   0.24747   0.02684   0.00000  Uiso   1.00
C74    C     0.50060   0.24806   0.47353   0.00000  Uiso   1.00
C75    C     0.40081   0.25086   0.23814   0.00000  Uiso   1.00
C76    C     0.59923   0.24886   0.26197   0.00000  Uiso   1.00
C77    C     0.34681   0.25840   0.23355   0.00000  Uiso   1.00
C78    C     0.65342   0.24143   0.26699   0.00000  Uiso   1.00
C79    C     0.47259   0.04361   0.27175   0.00000  Uiso   1.00
C80    C     0.47293   0.45426   0.21629   0.00000  Uiso   1.00
C81    C     0.46766   0.08967   0.26971   0.00000  Uiso   1.00
C82    C     0.50043   0.33592   0.24967   0.00000  Uiso   1.00
C83    C     0.46751   0.40813   0.21933   0.00000  Uiso   1.00
C84    C     0.50558   0.11637   0.25124   0.00000  Uiso   1.00
C85    C     0.50471   0.38391   0.24857   0.00000  Uiso   1.00
C86    C     0.54787   0.09710   0.23274   0.00000  Uiso   1.00
C87    C     0.54868   0.40499   0.27364   0.00000  Uiso   1.00
C88    C     0.54992   0.05085   0.23064   0.00000  Uiso   1.00
C89    C     0.55166   0.45183   0.27449   0.00000  Uiso   1.00
C90    C     0.51307   0.02425   0.25071   0.00000  Uiso   1.00
C91    C     0.51374   0.47609   0.24582   0.00000  Uiso   1.00
C92    C     0.45730   0.23085   0.04805   0.00000  Uiso   1.00
C93    C     0.51546   0.28719   0.44958   0.00000  Uiso   1.00
C94    C     0.46050   0.22850   0.09763   0.00000  Uiso   1.00
C95    C     0.52016   0.28539   0.40113   0.00000  Uiso   1.00
C96    C     0.54007   0.26989   0.10589   0.00000  Uiso   1.00
C97    C     0.48076   0.21329   0.39586   0.00000  Uiso   1.00
C98    C     0.54405   0.26455   0.05770   0.00000  Uiso   1.00
Cl99   Cl    0.41139   0.11288   0.28772   0.00000  Uiso   1.00
Cl100  Cl    0.41313   0.38128   0.18638   0.00000  Uiso   1.00
Cl101  Cl    0.59887   0.02672   0.20197   0.00000  Uiso   1.00
Cl102  Cl    0.60002   0.48013   0.31379   0.00000  Uiso   1.00
Cl103  Cl    0.41254   0.19622   0.12152   0.00000  Uiso   1.00
Cl104  Cl    0.55519   0.32926   0.37799   0.00000  Uiso   1.00
H105   H     0.35073   0.29755   0.17890   0.00000  Uiso   1.00
H106   H     0.43725   0.19184   0.34185   0.00000  Uiso   1.00
H107   H     0.59397   0.26204   0.01279   0.00000  Uiso   1.00
H108   H     0.49221   0.16696   0.49724   0.00000  Uiso   1.00
H109   H     0.64909   0.20114   0.32074   0.00000  Uiso   1.00
H110   H     0.44909   0.48831   0.30034   0.00000  Uiso   1.00
H111   H     0.44958   0.00763   0.18039   0.00000  Uiso   1.00
H112   H     0.58937   0.15230   0.22981   0.00000  Uiso   1.00
H113   H     0.61952   0.39730   0.30559   0.00000  Uiso   1.00
H114   H     0.40785   0.23110   0.49081   0.00000  Uiso   1.00
H115   H     0.50754   0.32872   0.49975   0.00000  Uiso   1.00
H116   H     0.56325   0.30675   0.15906   0.00000  Uiso   1.00
N117   N     0.50000   0.24999   0.12624   0.00000  Uiso   1.00
N118   N     0.50000   0.25001   0.37377   0.00000  Uiso   1.00
O119   O     0.50000   0.18454   0.28974   0.00000  Uiso   1.00
O120   O     0.34286   0.21341   0.30239   0.00000  Uiso   1.00
O121   O     0.43600   0.01865   0.29262   0.00000  Uiso   1.00
O122   O     0.43640   0.47693   0.18594   0.00000  Uiso   1.00
O123   O     0.58721   0.12210   0.21581   0.00000  Uiso   1.00
O124   O     0.58785   0.37873   0.29591   0.00000  Uiso   1.00
O125   O     0.41141   0.21616   0.02199   0.00000  Uiso   1.00
O126   O     0.52682   0.32757   0.47217   0.00000  Uiso   1.00
O127   O     0.57803   0.29547   0.13163   0.00000  Uiso   1.00
O128   O     0.45624   0.17847   0.37048   0.00000  Uiso   1.00
O129   O     0.59038   0.27803   0.04223   0.00000  Uiso   1.00
O130   O     0.50000   0.31547   0.21026   0.00000  Uiso   1.00
O131   O     0.47469   0.16856   0.46445   0.00000  Uiso   1.00
O132   O     0.50000   0.18453   0.21026   0.00000  Uiso   1.00
O133   O     0.50000   0.31547   0.28974   0.00000  Uiso   1.00
O134   O     0.42392   0.25000   0.28045   0.00000  Uiso   1.00
O135   O     0.57608   0.25000   0.21956   0.00000  Uiso   1.00
O136   O     0.42392   0.25000   0.20097   0.00000  Uiso   1.00
O137   O     0.57608   0.25001   0.29904   0.00000  Uiso   1.00
O138   O     0.65775   0.28739   0.19912   0.00000  Uiso   1.00
Zn139  Zn    0.50000   0.25001   0.30307   0.00000  Uiso   1.00
Zn140  Zn    0.50000   0.25000   0.19693   0.00000  Uiso   1.00
C141   C     0.83367   0.16409   0.25023   0.00000  Uiso   1.00
C142   C     0.81933   0.20972   0.44541   0.00000  Uiso   1.00
C143   C     0.83405   0.24747   0.02684   0.00000  Uiso   1.00
C144   C     0.83393   0.24806   0.47353   0.00000  Uiso   1.00
C145   C     0.73415   0.25086   0.23814   0.00000  Uiso   1.00
C146   C     0.93257   0.24886   0.26197   0.00000  Uiso   1.00
C147   C     0.68015   0.25840   0.23355   0.00000  Uiso   1.00
C148   C     0.98675   0.24143   0.26699   0.00000  Uiso   1.00
C149   C     0.80593   0.04361   0.27175   0.00000  Uiso   1.00
C150   C     0.80627   0.45426   0.21629   0.00000  Uiso   1.00
C151   C     0.80099   0.08967   0.26971   0.00000  Uiso   1.00
C152   C     0.83377   0.33592   0.24967   0.00000  Uiso   1.00
C153   C     0.80085   0.40813   0.21933   0.00000  Uiso   1.00
C154   C     0.83891   0.11637   0.25124   0.00000  Uiso   1.00
C155   C     0.83804   0.38391   0.24857   0.00000  Uiso   1.00
C156   C     0.88120   0.09710   0.23274   0.00000  Uiso   1.00
C157   C     0.88201   0.40499   0.27364   0.00000  Uiso   1.00
C158   C     0.88326   0.05085   0.23064   0.00000  Uiso   1.00
C159   C     0.88499   0.45183   0.27449   0.00000  Uiso   1.00
C160   C     0.84640   0.02425   0.25071   0.00000  Uiso   1.00
C161   C     0.84708   0.47609   0.24582   0.00000  Uiso   1.00
C162   C     0.79064   0.23085   0.04805   0.00000  Uiso   1.00
C163   C     0.84879   0.28719   0.44958   0.00000  Uiso   1.00
C164   C     0.79383   0.22850   0.09763   0.00000  Uiso   1.00
C165   C     0.85350   0.28539   0.40113   0.00000  Uiso   1.00
C166   C     0.87341   0.26989   0.10589   0.00000  Uiso   1.00
C167   C     0.81410   0.21329   0.39586   0.00000  Uiso   1.00
C168   C     0.87739   0.26455   0.05770   0.00000  Uiso   1.00
Cl169  Cl    0.74473   0.11288   0.28772   0.00000  Uiso   1.00
Cl170  Cl    0.74646   0.38128   0.18638   0.00000  Uiso   1.00
Cl171  Cl    0.93220   0.02672   0.20197   0.00000  Uiso   1.00
Cl172  Cl    0.93335   0.48013   0.31379   0.00000  Uiso   1.00
Cl173  Cl    0.74588   0.19622   0.12152   0.00000  Uiso   1.00
Cl174  Cl    0.88852   0.32926   0.37799   0.00000  Uiso   1.00
H175   H     0.68407   0.29755   0.17890   0.00000  Uiso   1.00
H176   H     0.77059   0.19184   0.34185   0.00000  Uiso   1.00
H177   H     0.92730   0.26204   0.01279   0.00000  Uiso   1.00
H178   H     0.82554   0.16696   0.49724   0.00000  Uiso   1.00
H179   H     0.98243   0.20114   0.32074   0.00000  Uiso   1.00
H180   H     0.78242   0.48831   0.30034   0.00000  Uiso   1.00
H181   H     0.78291   0.00763   0.18039   0.00000  Uiso   1.00
H182   H     0.92270   0.15230   0.22981   0.00000  Uiso   1.00
H183   H     0.95285   0.39730   0.30559   0.00000  Uiso   1.00
H184   H     0.74118   0.23110   0.49081   0.00000  Uiso   1.00
H185   H     0.84087   0.32872   0.49975   0.00000  Uiso   1.00
H186   H     0.89658   0.30675   0.15906   0.00000  Uiso   1.00
N187   N     0.83333   0.24999   0.12624   0.00000  Uiso   1.00
N188   N     0.83333   0.25001   0.37377   0.00000  Uiso   1.00
O189   O     0.83334   0.18454   0.28974   0.00000  Uiso   1.00
O190   O     0.67619   0.21341   0.30239   0.00000  Uiso   1.00
O191   O     0.76933   0.01865   0.29262   0.00000  Uiso   1.00
O192   O     0.76974   0.47693   0.18594   0.00000  Uiso   1.00
O193   O     0.92054   0.12210   0.21581   0.00000  Uiso   1.00
O194   O     0.92119   0.37873   0.29591   0.00000  Uiso   1.00
O195   O     0.74474   0.21616   0.02199   0.00000  Uiso   1.00
O196   O     0.86015   0.32757   0.47217   0.00000  Uiso   1.00
O197   O     0.91137   0.29547   0.13163   0.00000  Uiso   1.00
O198   O     0.78957   0.17847   0.37048   0.00000  Uiso   1.00
O199   O     0.92371   0.27803   0.04223   0.00000  Uiso   1.00
O200   O     0.83333   0.31547   0.21026   0.00000  Uiso   1.00
O201   O     0.80802   0.16856   0.46445   0.00000  Uiso   1.00
O202   O     0.83334   0.18453   0.21026   0.00000  Uiso   1.00
O203   O     0.83333   0.31547   0.28974   0.00000  Uiso   1.00
O204   O     0.75725   0.25000   0.28045   0.00000  Uiso   1.00
O205   O     0.90942   0.25000   0.21956   0.00000  Uiso   1.00
O206   O     0.75725   0.25000   0.20097   0.00000  Uiso   1.00
O207   O     0.90942   0.25001   0.29904   0.00000  Uiso   1.00
O208   O     0.99109   0.28739   0.19912   0.00000  Uiso   1.00
Zn209  Zn    0.83333   0.25001   0.30307   0.00000  Uiso   1.00
Zn210  Zn    0.83333   0.25000   0.19693   0.00000  Uiso   1.00
C211   C     0.16701   0.66409   0.25023   0.00000  Uiso   1.00
C212   C     0.15267   0.70972   0.44541   0.00000  Uiso   1.00
C213   C     0.16738   0.74747   0.02684   0.00000  Uiso   1.00
C214   C     0.16726   0.74806   0.47353   0.00000  Uiso   1.00
C215   C     0.06748   0.75086   0.23814   0.00000  Uiso   1.00
C216   C     0.26590   0.74886   0.26197   0.00000  Uiso   1.00
C217   C     0.01348   0.75840   0.23355   0.00000  Uiso   1.00
C218   C     0.32009   0.74143   0.26699   0.00000  Uiso   1.00
C219   C     0.13926   0.54361   0.27175   0.00000  Uiso   1.00
C220   C     0.13960   0.95426   0.21629   0.00000  Uiso   1.00
C221   C     0.13433   0.58967   0.26971   0.00000  Uiso   1.00
C222   C     0.16710   0.83592   0.24967   0.00000  Uiso   1.00
C223   C     0.13418   0.90813   0.21933   0.00000  Uiso   1.00
C224   C     0.17225   0.61637   0.25124   0.00000  Uiso   1.00
C225   C     0.17138   0.88391   0.24857   0.00000  Uiso   1.00
C226   C     0.21454   0.59710   0.23274   0.00000  Uiso   1.00
C227   C     0.21534   0.90499   0.27364   0.00000  Uiso   1.00
C228   C     0.21659   0.55085   0.23064   0.00000  Uiso   1.00
C229   C     0.21832   0.95183   0.27449   0.00000  Uiso   1.00
C230   C     0.17973   0.52425   0.25071   0.00000  Uiso   1.00
C231   C     0.18041   0.97609   0.24582   0.00000  Uiso   1.00
C232   C     0.12397   0.73085   0.04805   0.00000  Uiso   1.00
C233   C     0.18212   0.78719   0.44958   0.00000  Uiso   1.00
C234   C     0.12716   0.72850   0.09763   0.00000  Uiso   1.00
C235   C     0.18683   0.78539   0.40113   0.00000  Uiso   1.00
C236   C     0.20674   0.76989   0.10589   0.00000  Uiso   1.00
C237   C     0.14743   0.71329   0.39586   0.00000  Uiso   1.00
C238   C     0.21072   0.76455   0.05770   0.00000  Uiso   1.00
Cl239  Cl    0.07806   0.61288   0.28772   0.00000  Uiso   1.00
Cl240  Cl    0.07979   0.88128   0.18638   0.00000  Uiso   1.00
Cl241  Cl    0.26554   0.52672   0.20197   0.00000  Uiso   1.00
Cl242  Cl    0.26669   0.98013   0.31379   0.00000  Uiso   1.00
Cl243  Cl    0.07921   0.69622   0.12152   0.00000  Uiso   1.00
Cl244  Cl    0.22186   0.82926   0.37799   0.00000  Uiso   1.00
H245   H     0.01740   0.79755   0.17890   0.00000  Uiso   1.00
H246   H     0.10392   0.69184   0.34185   0.00000  Uiso   1.00
H247   H     0.26063   0.76204   0.01279   0.00000  Uiso   1.00
H248   H     0.15888   0.66696   0.49724   0.00000  Uiso   1.00
H249   H     0.31576   0.70114   0.32074   0.00000  Uiso   1.00
H250   H     0.11576   0.98831   0.30034   0.00000  Uiso   1.00
H251   H     0.11624   0.50763   0.18039   0.00000  Uiso   1.00
H252   H     0.25604   0.65230   0.22981   0.00000  Uiso   1.00
H253   H     0.28619   0.89730   0.30559   0.00000  Uiso   1.00
H254   H     0.07451   0.73110   0.49081   0.00000  Uiso   1.00
H255   H     0.17421   0.82872   0.49975   0.00000  Uiso   1.00
H256   H     0.22992   0.80675   0.15906   0.00000  Uiso   1.00
N257   N     0.16667   0.74999   0.12624   0.00000  Uiso   1.00
N258   N     0.16667   0.75001   0.37377   0.00000  Uiso   1.00
O259   O     0.16667   0.68454   0.28974   0.00000  Uiso   1.00
O260   O     0.00953   0.71341   0.30239   0.00000  Uiso   1.00
O261   O     0.10266   0.51865   0.29262   0.00000  Uiso   1.00
O262   O     0.10307   0.97693   0.18594   0.00000  Uiso   1.00
O263   O     0.25388   0.62210   0.21581   0.00000  Uiso   1.00
O264   O     0.25452   0.87873   0.29591   0.00000  Uiso   1.00
O265   O     0.07808   0.71616   0.02199   0.00000  Uiso   1.00
O266   O     0.19348   0.82757   0.47217   0.00000  Uiso   1.00
O267   O     0.24470   0.79547   0.13163   0.00000  Uiso   1.00
O268   O     0.12291   0.67847   0.37048   0.00000  Uiso   1.00
O269   O     0.25705   0.77803   0.04223   0.00000  Uiso   1.00
O270   O     0.16666   0.81547   0.21026   0.00000  Uiso   1.00
O271   O     0.14135   0.66856   0.46445   0.00000  Uiso   1.00
O272   O     0.16667   0.68453   0.21026   0.00000  Uiso   1.00
O273   O     0.16666   0.81547   0.28974   0.00000  Uiso   1.00
O274   O     0.09058   0.75000   0.28045   0.00000  Uiso   1.00
O275   O     0.24275   0.75000   0.21956   0.00000  Uiso   1.00
O276   O     0.09058   0.75000   0.20097   0.00000  Uiso   1.00
O277   O     0.24275   0.75001   0.29904   0.00000  Uiso   1.00
O278   O     0.32442   0.78739   0.19912   0.00000  Uiso   1.00
Zn279  Zn    0.16667   0.75001   0.30307   0.00000  Uiso   1.00
Zn280  Zn    0.16667   0.75000   0.19693   0.00000  Uiso   1.00
C281   C     0.50034   0.66409   0.25023   0.00000  Uiso   1.00
C282   C     0.48600   0.70972   0.44541   0.00000  Uiso   1.00
C283   C     0.50072   0.74747   0.02684   0.00000  Uiso   1.00
C284   C     0.50060   0.74806   0.47353   0.00000  Uiso   1.00
C285   C     0.40081   0.75086   0.23814   0.00000  Uiso   1.00
C286   C     0.59923   0.74886   0.26197   0.00000  Uiso   1.00
C287   C     0.34681   0.75840   0.23355   0.00000  Uiso   1.00
C288   C     0.65342   0.74143   0.26699   0.00000  Uiso   1.00
C289   C     0.47259   0.54361   0.27175   0.00000  Uiso   1.00
C290   C     0.47293   0.95426   0.21629   0.00000  Uiso   1.00
C291   C     0.46766   0.58967   0.26971   0.00000  Uiso   1.00
C292   C     0.50043   0.83592   0.24967   0.00000  Uiso   1.00
C293   C     0.46751   0.90813   0.21933   0.00000  Uiso   1.00
C294   C     0.50558   0.61637   0.25124   0.00000  Uiso   1.00
C295   C     0.50471   0.88391   0.24857   0.00000  Uiso   1.00
C296   C     0.54787   0.59710   0.23274   0.00000  Uiso   1.00
C297   C     0.54868   0.90499   0.27364   0.00000  Uiso   1.00
C298   C     0.54992   0.55085   0.23064   0.00000  Uiso   1.00
C299   C     0.55166   0.95183   0.27449   0.00000  Uiso   1.00
C300   C     0.51307   0.52425   0.25071   0.00000  Uiso   1.00
C301   C     0.51374   0.97609   0.24582   0.00000  Uiso   1.00
C302   C     0.45730   0.73085   0.04805   0.00000  Uiso   1.00
C303   C     0.51546   0.78719   0.44958   0.00000  Uiso   1.00
C304   C     0.46050   0.72850   0.09763   0.00000  Uiso   1.00
C305   C     0.52016   0.78539   0.40113   0.00000  Uiso   1.00
C306   C     0.54007   0.76989   0.10589   0.00000  Uiso   1.00
C307   C     0.48076   0.71329   0.39586   0.00000  Uiso   1.00
C308   C     0.54405   0.76455   0.05770   0.00000  Uiso   1.00
Cl309  Cl    0.41139   0.61288   0.28772   0.00000  Uiso   1.00
Cl310  Cl    0.41313   0.88128   0.18638   0.00000  Uiso   1.00
Cl311  Cl    0.59887   0.52672   0.20197   0.00000  Uiso   1.00
Cl312  Cl    0.60002   0.98013   0.31379   0.00000  Uiso   1.00
Cl313  Cl    0.41254   0.69622   0.12152   0.00000  Uiso   1.00
Cl314  Cl    0.55519   0.82926   0.37799   0.00000  Uiso   1.00
H315   H     0.35073   0.79755   0.17890   0.00000  Uiso   1.00
H316   H     0.43725   0.69184   0.34185   0.00000  Uiso   1.00
H317   H     0.59397   0.76204   0.01279   0.00000  Uiso   1.00
H318   H     0.49221   0.66696   0.49724   0.00000  Uiso   1.00
H319   H     0.64909   0.70114   0.32074   0.00000  Uiso   1.00
H320   H     0.44909   0.98831   0.30034   0.00000  Uiso   1.00
H321   H     0.44958   0.50763   0.18039   0.00000  Uiso   1.00
H322   H     0.58937   0.65230   0.22981   0.00000  Uiso   1.00
H323   H     0.61952   0.89730   0.30559   0.00000  Uiso   1.00
H324   H     0.40785   0.73110   0.49081   0.00000  Uiso   1.00
H325   H     0.50754   0.82872   0.49975   0.00000  Uiso   1.00
H326   H     0.56325   0.80675   0.15906   0.00000  Uiso   1.00
N327   N     0.50000   0.74999   0.12624   0.00000  Uiso   1.00
N328   N     0.50000   0.75001   0.37377   0.00000  Uiso   1.00
O329   O     0.50000   0.68454   0.28974   0.00000  Uiso   1.00
O330   O     0.34286   0.71341   0.30239   0.00000  Uiso   1.00
O331   O     0.43600   0.51865   0.29262   0.00000  Uiso   1.00
O332   O     0.43640   0.97693   0.18594   0.00000  Uiso   1.00
O333   O     0.58721   0.62210   0.21581   0.00000  Uiso   1.00
O334   O     0.58785   0.87873   0.29591   0.00000  Uiso   1.00
O335   O     0.41141   0.71616   0.02199   0.00000  Uiso   1.00
O336   O     0.52682   0.82757   0.47217   0.00000  Uiso   1.00
O337   O     0.57803   0.79547   0.13163   0.00000  Uiso   1.00
O338   O     0.45624   0.67847   0.37048   0.00000  Uiso   1.00
O339   O     0.59038   0.77803   0.04223   0.00000  Uiso   1.00
O340   O     0.50000   0.81547   0.21026   0.00000  Uiso   1.00
O341   O     0.47469   0.66856   0.46445   0.00000  Uiso   1.00
O342   O     0.50000   0.68453   0.21026   0.00000  Uiso   1.00
O343   O     0.50000   0.81547   0.28974   0.00000  Uiso   1.00
O344   O     0.42392   0.75000   0.28045   0.00000  Uiso   1.00
O345   O     0.57608   0.75000   0.21956   0.00000  Uiso   1.00
O346   O     0.42392   0.75000   0.20097   0.00000  Uiso   1.00
O347   O     0.57608   0.75001   0.29904   0.00000  Uiso   1.00
O348   O     0.65775   0.78739   0.19912   0.00000  Uiso   1.00
Zn349  Zn    0.50000   0.75001   0.30307   0.00000  Uiso   1.00
Zn350  Zn    0.50000   0.75000   0.19693   0.00000  Uiso   1.00
C351   C     0.83367   0.66409   0.25023   0.00000  Uiso   1.00
C352   C     0.81933   0.70972   0.44541   0.00000  Uiso   1.00
C353   C     0.83405   0.74747   0.02684   0.00000  Uiso   1.00
C354   C     0.83393   0.74806   0.47353   0.00000  Uiso   1.00
C355   C     0.73415   0.75086   0.23814   0.00000  Uiso   1.00
C356   C     0.93257   0.74886   0.26197   0.00000  Uiso   1.00
C357   C     0.68015   0.75840   0.23355   0.00000  Uiso   1.00
C358   C     0.98675   0.74143   0.26699   0.00000  Uiso   1.00
C359   C     0.80593   0.54361   0.27175   0.00000  Uiso   1.00
C360   C     0.80627   0.95426   0.21629   0.00000  Uiso   1.00
C361   C     0.80099   0.58967   0.26971   0.00000  Uiso   1.00
C362   C     0.83377   0.83592   0.24967   0.00000  Uiso   1.00
C363   C     0.80085   0.90813   0.21933   0.00000  Uiso   1.00
C364   C     0.83891   0.61637   0.25124   0.00000  Uiso   1.00
C365   C     0.83804   0.88391   0.24857   0.00000  Uiso   1.00
C366   C     0.88120   0.59710   0.23274   0.00000  Uiso   1.00
C367   C     0.88201   0.90499   0.27364   0.00000  Uiso   1.00
C368   C     0.88326   0.55085   0.23064   0.00000  Uiso   1.00
C369   C     0.88499   0.95183   0.27449   0.00000  Uiso   1.00
C370   C     0.84640   0.52425   0.25071   0.00000  Uiso   1.00
C371   C     0.84708   0.97609   0.24582   0.00000  Uiso   1.00
C372   C     0.79064   0.73085   0.04805   0.00000  Uiso   1.00
C373   C     0.84879   0.78719   0.44958   0.00000  Uiso   1.00
C374   C     0.79383   0.72850   0.09763   0.00000  Uiso   1.00
C375   C     0.85350   0.78539   0.40113   0.00000  Uiso   1.00
C376   C     0.87341   0.76989   0.10589   0.00000  Uiso   1.00
C377   C     0.81410   0.71329   0.39586   0.00000  Uiso   1.00
C378   C     0.87739   0.76455   0.05770   0.00000  Uiso   1.00
Cl379  Cl    0.74473   0.61288   0.28772   0.00000  Uiso   1.00
Cl380  Cl    0.74646   0.88128   0.18638   0.00000  Uiso   1.00
Cl381  Cl    0.93220   0.52672   0.20197   0.00000  Uiso   1.00
Cl382  Cl    0.93335   0.98013   0.31379   0.00000  Uiso   1.00
Cl383  Cl    0.74588   0.69622   0.12152   0.00000  Uiso   1.00
Cl384  Cl    0.88852   0.82926   0.37799   0.00000  Uiso   1.00
H385   H     0.68407   0.79755   0.17890   0.00000  Uiso   1.00
H386   H     0.77059   0.69184   0.34185   0.00000  Uiso   1.00
H387   H     0.92730   0.76204   0.01279   0.00000  Uiso   1.00
H388   H     0.82554   0.66696   0.49724   0.00000  Uiso   1.00
H389   H     0.98243   0.70114   0.32074   0.00000  Uiso   1.00
H390   H     0.78242   0.98831   0.30034   0.00000  Uiso   1.00
H391   H     0.78291   0.50763   0.18039   0.00000  Uiso   1.00
H392   H     0.92270   0.65230   0.22981   0.00000  Uiso   1.00
H393   H     0.95285   0.89730   0.30559   0.00000  Uiso   1.00
H394   H     0.74118   0.73110   0.49081   0.00000  Uiso   1.00
H395   H     0.84087   0.82872   0.49975   0.00000  Uiso   1.00
H396   H     0.89658   0.80675   0.15906   0.00000  Uiso   1.00
N397   N     0.83333   0.74999   0.12624   0.00000  Uiso   1.00
N398   N     0.83333   0.75001   0.37377   0.00000  Uiso   1.00
O399   O     0.83334   0.68454   0.28974   0.00000  Uiso   1.00
O400   O     0.67619   0.71341   0.30239   0.00000  Uiso   1.00
O401   O     0.76933   0.51865   0.29262   0.00000  Uiso   1.00
O402   O     0.76974   0.97693   0.18594   0.00000  Uiso   1.00
O403   O     0.92054   0.62210   0.21581   0.00000  Uiso   1.00
O404   O     0.92119   0.87873   0.29591   0.00000  Uiso   1.00
O405   O     0.74474   0.71616   0.02199   0.00000  Uiso   1.00
O406   O     0.86015   0.82757   0.47217   0.00000  Uiso   1.00
O407   O     0.91137   0.79547   0.13163   0.00000  Uiso   1.00
O408   O     0.78957   0.67847   0.37048   0.00000  Uiso   1.00
O409   O     0.92371   0.77803   0.04223   0.00000  Uiso   1.00
O410   O     0.83333   0.81547   0.21026   0.00000  Uiso   1.00
O411   O     0.80802   0.66856   0.46445   0.00000  Uiso   1.00
O412   O     0.83334   0.68453   0.21026   0.00000  Uiso   1.00
O413   O     0.83333   0.81547   0.28974   0.00000  Uiso   1.00
O414   O     0.75725   0.75000   0.28045   0.00000  Uiso   1.00
O415   O     0.90942   0.75000   0.21956   0.00000  Uiso   1.00
O416   O     0.75725   0.75000   0.20097   0.00000  Uiso   1.00
O417   O     0.90942   0.75001   0.29904   0.00000  Uiso   1.00
O418   O     0.99109   0.78739   0.19912   0.00000  Uiso   1.00
Zn419  Zn    0.83333   0.75001   0.30307   0.00000  Uiso   1.00
Zn420  Zn    0.83333   0.75000   0.19693   0.00000  Uiso   1.00
C421   C     0.16701   0.16409   0.75023   0.00000  Uiso   1.00
C422   C     0.15267   0.20972   0.94541   0.00000  Uiso   1.00
C423   C     0.16738   0.24747   0.52684   0.00000  Uiso   1.00
C424   C     0.16726   0.24806   0.97353   0.00000  Uiso   1.00
C425   C     0.06748   0.25086   0.73814   0.00000  Uiso   1.00
C426   C     0.26590   0.24886   0.76197   0.00000  Uiso   1.00
C427   C     0.01348   0.25840   0.73355   0.00000  Uiso   1.00
C428   C     0.32009   0.24143   0.76699   0.00000  Uiso   1.00
C429   C     0.13926   0.04361   0.77175   0.00000  Uiso   1.00
C430   C     0.13960   0.45426   0.71629   0.00000  Uiso   1.00
C431   C     0.13433   0.08967   0.76971   0.00000  Uiso   1.00
C432   C     0.16710   0.33592   0.74967   0.00000  Uiso   1.00
C433   C     0.13418   0.40813   0.71933   0.00000  Uiso   1.00
C434   C     0.17225   0.11637   0.75124   0.00000  Uiso   1.00
C435   C     0.17138   0.38391   0.74857   0.00000  Uiso   1.00
C436   C     0.21454   0.09710   0.73274   0.00000  Uiso   1.00
C437   C     0.21534   0.40499   0.77364   0.00000  Uiso   1.00
C438   C     0.21659   0.05085   0.73064   0.00000  Uiso   1.00
C439   C     0.21832   0.45183   0.77449   0.00000  Uiso   1.00
C440   C     0.17973   0.02425   0.75071   0.00000  Uiso   1.00
C441   C     0.18041   0.47609   0.74582   0.00000  Uiso   1.00
C442   C     0.12397   0.23085   0.54805   0.00000  Uiso   1.00
C443   C     0.18212   0.28719   0.94958   0.00000  Uiso   1.00
C444   C     0.12716   0.22850   0.59763   0.00000  Uiso   1.00
C445   C     0.18683   0.28539   0.90113   0.00000  Uiso   1.00
C446   C     0.20674   0.26989   0.60589   0.00000  Uiso   1.00
C447   C     0.14743   0.21329   0.89586   0.00000  Uiso   1.00
C448   C     0.21072   0.26455   0.55770   0.00000  Uiso   1.00
Cl449  Cl    0.07806   0.11288   0.78772   0.00000  Uiso   1.00
Cl450  Cl    0.07979   0.38128   0.68638   0.00000  Uiso   1.00
Cl451  Cl    0.26554   0.02672   0.70197   0.00000  Uiso   1.00
Cl452  Cl    0.26669   0.48013   0.81379   0.00000  Uiso   1.00
Cl453  Cl    0.07921   0.19622   0.62152   0.00000  Uiso   1.00
Cl454  Cl    0.22186   0.32926   0.87799   0.00000  Uiso   1.00
H455   H     0.01740   0.29755   0.67890   0.00000  Uiso   1.00
H456   H     0.10392   0.19184   0.84185   0.00000  Uiso   1.00
H457   H     0.26063   0.26204   0.51279   0.00000  Uiso   1.00
H458   H     0.15888   0.16696   0.99724   0.00000  Uiso   1.00
H459   H     0.31576   0.20114   0.82074   0.00000  Uiso   1.00
H460   H     0.11576   0.48831   0.80034   0.00000  Uiso   1.00
H461   H     0.11624   0.00763   0.68039   0.00000  Uiso   1.00
H462   H     0.25604   0.15230   0.72981   0.00000  Uiso   1.00
H463   H     0.28619   0.39730   0.80559   0.00000  Uiso   1.00
H464   H     0.07451   0.23110   0.99081   0.00000  Uiso   1.00
H465   H     0.17421   0.32872   0.99975   0.00000  Uiso   1.00
H466   H     0.22992   0.30675   0.65906   0.00000  Uiso   1.00
N467   N     0.16667   0.24999   0.62624   0.00000  Uiso   1.00
N468   N     0.16667   0.25001   0.87377   0.00000  Uiso   1.00
O469   O     0.16667   0.18454   0.78974   0.00000  Uiso   1.00
O470   O     0.00953   0.21341   0.80239   0.00000  Uiso   1.00
O471   O     0.10266   0.01865   0.79262   0.00000  Uiso   1.00
O472   O     0.10307   0.47693   0.68594   0.00000  Uiso   1.00
O473   O     0.25388   0.12210   0.71581   0.00000  Uiso   1.00
O474   O     0.25452   0.37873   0.79591   0.00000  Uiso   1.00
O475   O     0.07808   0.21616   0.52199   0.00000  Uiso   1.00
O476   O     0.19348   0.32757   0.97217   0.00000  Uiso   1.00
O477   O     0.24470   0.29547   0.63163   0.00000  Uiso   1.00
O478   O     0.12291   0.17847   0.87048   0.00000  Uiso   1.00
O479   O     0.25705   0.27803   0.54223   0.00000  Uiso   1.00
O480   O     0.16666   0.31547   0.71026   0.00000  Uiso   1.00
O481   O     0.14135   0.16856   0.96445   0.00000  Uiso   1.00
O482   O     0.16667   0.18453   0.71026   0.00000  Uiso   1.00
O483   O     0.16666   0.31547   0.78974   0.00000  Uiso   1.00
O484   O     0.09058   0.25000   0.78045   0.00000  Uiso   1.00
O485   O     0.24275   0.25000   0.71956   0.00000  Uiso   1.00
O486   O     0.09058   0.25000   0.70097   0.00000  Uiso   1.00
O487   O     0.24275   0.25001   0.79904   0.00000  Uiso   1.00
O488   O     0.32442   0.28739   0.69912   0.00000  Uiso   1.00
Zn489  Zn    0.16667   0.25001   0.80307   0.00000  Uiso   1.00
Zn490  Zn    0.16667   0.25000   0.69693   0.00000  Uiso   1.00
C491   C     0.50034   0.16409   0.75023   0.00000  Uiso   1.00
C492   C     0.48600   0.20972   0.94541   0.00000  Uiso   1.00
C493   C     0.50072   0.24747   0.52684   0.00000  Uiso   1.00
C494   C     0.50060   0.24806   0.97353   0.00000  Uiso   1.00
C495   C     0.40081   0.25086   0.73814   0.00000  Uiso   1.00
C496   C     0.59923   0.24886   0.76197   0.00000  Uiso   1.00
C497   C     0.34681   0.25840   0.73355   0.00000  Uiso   1.00
C498   C     0.65342   0.24143   0.76699   0.00000  Uiso   1.00
C499   C     0.47259   0.04361   0.77175   0.00000  Uiso   1.00
C500   C     0.47293   0.45426   0.71629   0.00000  Uiso   1.00
C501   C     0.46766   0.08967   0.76971   0.00000  Uiso   1.00
C502   C     0.50043   0.33592   0.74967   0.00000  Uiso   1.00
C503   C     0.46751   0.40813   0.71933   0.00000  Uiso   1.00
C504   C     0.50558   0.11637   0.75124   0.00000  Uiso   1.00
C505   C     0.50471   0.38391   0.74857   0.00000  Uiso   1.00
C506   C     0.54787   0.09710   0.73274   0.00000  Uiso   1.00
C507   C     0.54868   0.40499   0.77364   0.00000  Uiso   1.00
C508   C     0.54992   0.05085   0.73064   0.00000  Uiso   1.00
C509   C     0.55166   0.45183   0.77449   0.00000  Uiso   1.00
C510   C     0.51307   0.02425   0.75071   0.00000  Uiso   1.00
C511   C     0.51374   0.47609   0.74582   0.00000  Uiso   1.00
C512   C     0.45730   0.23085   0.54805   0.00000  Uiso   1.00
C513   C     0.51546   0.28719   0.94958   0.00000  Uiso   1.00
C514   C     0.46050   0.22850   0.59763   0.00000  Uiso   1.00
C515   C     0.52016   0.28539   0.90113   0.00000  Uiso   1.00
C516   C     0.54007   0.26989   0.60589   0.00000  Uiso   1.00
C517   C     0.48076   0.21329   0.89586   0.00000  Uiso   1.00
C518   C     0.54405   0.26455   0.55770   0.00000  Uiso   1.00
Cl519  Cl    0.41139   0.11288   0.78772   0.00000  Uiso   1.00
Cl520  Cl    0.41313   0.38128   0.68638   0.00000  Uiso   1.00
Cl521  Cl    0.59887   0.02672   0.70197   0.00000  Uiso   1.00
Cl522  Cl    0.60002   0.48013   0.81379   0.00000  Uiso   1.00
Cl523  Cl    0.41254   0.19622   0.62152   0.00000  Uiso   1.00
Cl524  Cl    0.55519   0.32926   0.87799   0.00000  Uiso   1.00
H525   H     0.35073   0.29755   0.67890   0.00000  Uiso   1.00
H526   H     0.43725   0.19184   0.84185   0.00000  Uiso   1.00
H527   H     0.59397   0.26204   0.51279   0.00000  Uiso   1.00
H528   H     0.49221   0.16696   0.99724   0.00000  Uiso   1.00
H529   H     0.64909   0.20114   0.82074   0.00000  Uiso   1.00
H530   H     0.44909   0.48831   0.80034   0.00000  Uiso   1.00
H531   H     0.44958   0.00763   0.68039   0.00000  Uiso   1.00
H532   H     0.58937   0.15230   0.72981   0.00000  Uiso   1.00
H533   H     0.61952   0.39730   0.80559   0.00000  Uiso   1.00
H534   H     0.40785   0.23110   0.99081   0.00000  Uiso   1.00
H535   H     0.50754   0.32872   0.99975   0.00000  Uiso   1.00
H536   H     0.56325   0.30675   0.65906   0.00000  Uiso   1.00
N537   N     0.50000   0.24999   0.62624   0.00000  Uiso   1.00
N538   N     0.50000   0.25001   0.87377   0.00000  Uiso   1.00
O539   O     0.50000   0.18454   0.78974   0.00000  Uiso   1.00
O540   O     0.34286   0.21341   0.80239   0.00000  Uiso   1.00
O541   O     0.43600   0.01865   0.79262   0.00000  Uiso   1.00
O542   O     0.43640   0.47693   0.68594   0.00000  Uiso   1.00
O543   O     0.58721   0.12210   0.71581   0.00000  Uiso   1.00
O544   O     0.58785   0.37873   0.79591   0.00000  Uiso   1.00
O545   O     0.41141   0.21616   0.52199   0.00000  Uiso   1.00
O546   O     0.52682   0.32757   0.97217   0.00000  Uiso   1.00
O547   O     0.57803   0.29547   0.63163   0.00000  Uiso   1.00
O548   O     0.45624   0.17847   0.87048   0.00000  Uiso   1.00
O549   O     0.59038   0.27803   0.54223   0.00000  Uiso   1.00
O550   O     0.50000   0.31547   0.71026   0.00000  Uiso   1.00
O551   O     0.47469   0.16856   0.96445   0.00000  Uiso   1.00
O552   O     0.50000   0.18453   0.71026   0.00000  Uiso   1.00
O553   O     0.50000   0.31547   0.78974   0.00000  Uiso   1.00
O554   O     0.42392   0.25000   0.78045   0.00000  Uiso   1.00
O555   O     0.57608   0.25000   0.71956   0.00000  Uiso   1.00
O556   O     0.42392   0.25000   0.70097   0.00000  Uiso   1.00
O557   O     0.57608   0.25001   0.79904   0.00000  Uiso   1.00
O558   O     0.65775   0.28739   0.69912   0.00000  Uiso   1.00
Zn559  Zn    0.50000   0.25001   0.80307   0.00000  Uiso   1.00
Zn560  Zn    0.50000   0.25000   0.69693   0.00000  Uiso   1.00
C561   C     0.83367   0.16409   0.75023   0.00000  Uiso   1.00
C562   C     0.81933   0.20972   0.94541   0.00000  Uiso   1.00
C563   C     0.83405   0.24747   0.52684   0.00000  Uiso   1.00
C564   C     0.83393   0.24806   0.97353   0.00000  Uiso   1.00
C565   C     0.73415   0.25086   0.73814   0.00000  Uiso   1.00
C566   C     0.93257   0.24886   0.76197   0.00000  Uiso   1.00
C567   C     0.68015   0.25840   0.73355   0.00000  Uiso   1.00
C568   C     0.98675   0.24143   0.76699   0.00000  Uiso   1.00
C569   C     0.80593   0.04361   0.77175   0.00000  Uiso   1.00
C570   C     0.80627   0.45426   0.71629   0.00000  Uiso   1.00
C571   C     0.80099   0.08967   0.76971   0.00000  Uiso   1.00
C572   C     0.83377   0.33592   0.74967   0.00000  Uiso   1.00
C573   C     0.80085   0.40813   0.71933   0.00000  Uiso   1.00
C574   C     0.83891   0.11637   0.75124   0.00000  Uiso   1.00
C575   C     0.83804   0.38391   0.74857   0.00000  Uiso   1.00
C576   C     0.88120   0.09710   0.73274   0.00000  Uiso   1.00
C577   C     0.88201   0.40499   0.77364   0.00000  Uiso   1.00
C578   C     0.88326   0.05085   0.73064   0.00000  Uiso   1.00
C579   C     0.88499   0.45183   0.77449   0.00000  Uiso   1.00
C580   C     0.84640   0.02425   0.75071   0.00000  Uiso   1.00
C581   C     0.84708   0.47609   0.74582   0.00000  Uiso   1.00
C582   C     0.79064   0.23085   0.54805   0.00000  Uiso   1.00
C583   C     0.84879   0.28719   0.94958   0.00000  Uiso   1.00
C584   C     0.79383   0.22850   0.59763   0.00000  Uiso   1.00
C585   C     0.85350   0.28539   0.90113   0.00000  Uiso   1.00
C586   C     0.87341   0.26989   0.60589   0.00000  Uiso   1.00
C587   C     0.81410   0.21329   0.89586   0.00000  Uiso   1.00
C588   C     0.87739   0.26455   0.55770   0.00000  Uiso   1.00
Cl589  Cl    0.74473   0.11288   0.78772   0.00000  Uiso   1.00
Cl590  Cl    0.74646   0.38128   0.68638   0.00000  Uiso   1.00
Cl591  Cl    0.93220   0.02672   0.70197   0.00000  Uiso   1.00
Cl592  Cl    0.93335   0.48013   0.81379   0.00000  Uiso   1.00
Cl593  Cl    0.74588   0.19622   0.62152   0.00000  Uiso   1.00
Cl594  Cl    0.88852   0.32926   0.87799   0.00000  Uiso   1.00
H595   H     0.68407   0.29755   0.67890   0.00000  Uiso   1.00
H596   H     0.77059   0.19184   0.84185   0.00000  Uiso   1.00
H597   H     0.92730   0.26204   0.51279   0.00000  Uiso   1.00
H598   H     0.82554   0.16696   0.99724   0.00000  Uiso   1.00
H599   H     0.98243   0.20114   0.82074   0.00000  Uiso   1.00
H600   H     0.78242   0.48831   0.80034   0.00000  Uiso   1.00
H601   H     0.78291   0.00763   0.68039   0.00000  Uiso   1.00
H602   H     0.92270   0.15230   0.72981   0.00000  Uiso   1.00
H603   H     0.95285   0.39730   0.80559   0.00000  Uiso   1.00
H604   H     0.74118   0.23110   0.99081   0.00000  Uiso   1.00
H605   H     0.84087   0.32872   0.99975   0.00000  Uiso   1.00
H606   H     0.89658   0.30675   0.65906   0.00000  Uiso   1.00
N607   N     0.83333   0.24999   0.62624   0.00000  Uiso   1.00
N608   N     0.83333   0.25001   0.87377   0.00000  Uiso   1.00
O609   O     0.83334   0.18454   0.78974   0.00000  Uiso   1.00
O610   O     0.67619   0.21341   0.80239   0.00000  Uiso   1.00
O611   O     0.76933   0.01865   0.79262   0.00000  Uiso   1.00
O612   O     0.76974   0.47693   0.68594   0.00000  Uiso   1.00
O613   O     0.92054   0.12210   0.71581   0.00000  Uiso   1.00
O614   O     0.92119   0.37873   0.79591   0.00000  Uiso   1.00
O615   O     0.74474   0.21616   0.52199   0.00000  Uiso   1.00
O616   O     0.86015   0.32757   0.97217   0.00000  Uiso   1.00
O617   O     0.91137   0.29547   0.63163   0.00000  Uiso   1.00
O618   O     0.78957   0.17847   0.87048   0.00000  Uiso   1.00
O619   O     0.92371   0.27803   0.54223   0.00000  Uiso   1.00
O620   O     0.83333   0.31547   0.71026   0.00000  Uiso   1.00
O621   O     0.80802   0.16856   0.96445   0.00000  Uiso   1.00
O622   O     0.83334   0.18453   0.71026   0.00000  Uiso   1.00
O623   O     0.83333   0.31547   0.78974   0.00000  Uiso   1.00
O624   O     0.75725   0.25000   0.78045   0.00000  Uiso   1.00
O625   O     0.90942   0.25000   0.71956   0.00000  Uiso   1.00
O626   O     0.75725   0.25000   0.70097   0.00000  Uiso   1.00
O627   O     0.90942   0.25001   0.79904   0.00000  Uiso   1.00
O628   O     0.99109   0.28739   0.69912   0.00000  Uiso   1.00
Zn629  Zn    0.83333   0.25001   0.80307   0.00000  Uiso   1.00
Zn630  Zn    0.83333   0.25000   0.69693   0.00000  Uiso   1.00
C631   C     0.16701   0.66409   0.75023   0.00000  Uiso   1.00
C632   C     0.15267   0.70972   0.94541   0.00000  Uiso   1.00
C633   C     0.16738   0.74747   0.52684   0.00000  Uiso   1.00
C634   C     0.16726   0.74806   0.97353   0.00000  Uiso   1.00
C635   C     0.06748   0.75086   0.73814   0.00000  Uiso   1.00
C636   C     0.26590   0.74886   0.76197   0.00000  Uiso   1.00
C637   C     0.01348   0.75840   0.73355   0.00000  Uiso   1.00
C638   C     0.32009   0.74143   0.76699   0.00000  Uiso   1.00
C639   C     0.13926   0.54361   0.77175   0.00000  Uiso   1.00
C640   C     0.13960   0.95426   0.71629   0.00000  Uiso   1.00
C641   C     0.13433   0.58967   0.76971   0.00000  Uiso   1.00
C642   C     0.16710   0.83592   0.74967   0.00000  Uiso   1.00
C643   C     0.13418   0.90813   0.71933   0.00000  Uiso   1.00
C644   C     0.17225   0.61637   0.75124   0.00000  Uiso   1.00
C645   C     0.17138   0.88391   0.74857   0.00000  Uiso   1.00
C646   C     0.21454   0.59710   0.73274   0.00000  Uiso   1.00
C647   C     0.21534   0.90499   0.77364   0.00000  Uiso   1.00
C648   C     0.21659   0.55085   0.73064   0.00000  Uiso   1.00
C649   C     0.21832   0.95183   0.77449   0.00000  Uiso   1.00
C650   C     0.17973   0.52425   0.75071   0.00000  Uiso   1.00
C651   C     0.18041   0.97609   0.74582   0.00000  Uiso   1.00
C652   C     0.12397   0.73085   0.54805   0.00000  Uiso   1.00
C653   C     0.18212   0.78719   0.94958   0.00000  Uiso   1.00
C654   C     0.12716   0.72850   0.59763   0.00000  Uiso   1.00
C655   C     0.18683   0.78539   0.90113   0.00000  Uiso   1.00
C656   C     0.20674   0.76989   0.60589   0.00000  Uiso   1.00
C657   C     0.14743   0.71329   0.89586   0.00000  Uiso   1.00
C658   C     0.21072   0.76455   0.55770   0.00000  Uiso   1.00
Cl659  Cl    0.07806   0.61288   0.78772   0.00000  Uiso   1.00
Cl660  Cl    0.07979   0.88128   0.68638   0.00000  Uiso   1.00
Cl661  Cl    0.26554   0.52672   0.70197   0.00000  Uiso   1.00
Cl662  Cl    0.26669   0.98013   0.81379   0.00000  Uiso   1.00
Cl663  Cl    0.07921   0.69622   0.62152   0.00000  Uiso   1.00
Cl664  Cl    0.22186   0.82926   0.87799   0.00000  Uiso   1.00
H665   H     0.01740   0.79755   0.67890   0.00000  Uiso   1.00
H666   H     0.10392   0.69184   0.84185   0.00000  Uiso   1.00
H667   H     0.26063   0.76204   0.51279   0.00000  Uiso   1.00
H668   H     0.15888   0.66696   0.99724   0.00000  Uiso   1.00
H669   H     0.31576   0.70114   0.82074   0.00000  Uiso   1.00
H670   H     0.11576   0.98831   0.80034   0.00000  Uiso   1.00
H671   H     0.11624   0.50763   0.68039   0.00000  Uiso   1.00
H672   H     0.25604   0.65230   0.72981   0.00000  Uiso   1.00
H673   H     0.28619   0.89730   0.80559   0.00000  Uiso   1.00
H674   H     0.07451   0.73110   0.99081   0.00000  Uiso   1.00
H675   H     0.17421   0.82872   0.99975   0.00000  Uiso   1.00
H676   H     0.22992   0.80675   0.65906   0.00000  Uiso   1.00
N677   N     0.16667   0.74999   0.62624   0.00000  Uiso   1.00
N678   N     0.16667   0.75001   0.87377   0.00000  Uiso   1.00
O679   O     0.16667   0.68454   0.78974   0.00000  Uiso   1.00
O680   O     0.00953   0.71341   0.80239   0.00000  Uiso   1.00
O681   O     0.10266   0.51865   0.79262   0.00000  Uiso   1.00
O682   O     0.10307   0.97693   0.68594   0.00000  Uiso   1.00
O683   O     0.25388   0.62210   0.71581   0.00000  Uiso   1.00
O684   O     0.25452   0.87873   0.79591   0.00000  Uiso   1.00
O685   O     0.07808   0.71616   0.52199   0.00000  Uiso   1.00
O686   O     0.19348   0.82757   0.97217   0.00000  Uiso   1.00
O687   O     0.24470   0.79547   0.63163   0.00000  Uiso   1.00
O688   O     0.12291   0.67847   0.87048   0.00000  Uiso   1.00
O689   O     0.25705   0.77803   0.54223   0.00000  Uiso   1.00
O690   O     0.16666   0.81547   0.71026   0.00000  Uiso   1.00
O691   O     0.14135   0.66856   0.96445   0.00000  Uiso   1.00
O692   O     0.16667   0.68453   0.71026   0.00000  Uiso   1.00
O693   O     0.16666   0.81547   0.78974   0.00000  Uiso   1.00
O694   O     0.09058   0.75000   0.78045   0.00000  Uiso   1.00
O695   O     0.24275   0.75000   0.71956   0.00000  Uiso   1.00
O696   O     0.09058   0.75000   0.70097   0.00000  Uiso   1.00
O697   O     0.24275   0.75001   0.79904   0.00000  Uiso   1.00
O698   O     0.32442   0.78739   0.69912   0.00000  Uiso   1.00
Zn699  Zn    0.16667   0.75001   0.80307   0.00000  Uiso   1.00
Zn700  Zn    0.16667   0.75000   0.69693   0.00000  Uiso   1.00
C701   C     0.50034   0.66409   0.75023   0.00000  Uiso   1.00
C702   C     0.48600   0.70972   0.94541   0.00000  Uiso   1.00
C703   C     0.50072   0.74747   0.52684   0.00000  Uiso   1.00
C704   C     0.50060   0.74806   0.97353   0.00000  Uiso   1.00
C705   C     0.40081   0.75086   0.73814   0.00000  Uiso   1.00
C706   C     0.59923   0.74886   0.76197   0.00000  Uiso   1.00
C707   C     0.34681   0.75840   0.73355   0.00000  Uiso   1.00
C708   C     0.65342   0.74143   0.76699   0.00000  Uiso   1.00
C709   C     0.47259   0.54361   0.77175   0.00000  Uiso   1.00
C710   C     0.47293   0.95426   0.71629   0.00000  Uiso   1.00
C711   C     0.46766   0.58967   0.76971   0.00000  Uiso   1.00
C712   C     0.50043   0.83592   0.74967   0.00000  Uiso   1.00
C713   C     0.46751   0.90813   0.71933   0.00000  Uiso   1.00
C714   C     0.50558   0.61637   0.75124   0.00000  Uiso   1.00
C715   C     0.50471   0.88391   0.74857   0.00000  Uiso   1.00
C716   C     0.54787   0.59710   0.73274   0.00000  Uiso   1.00
C717   C     0.54868   0.90499   0.77364   0.00000  Uiso   1.00
C718   C     0.54992   0.55085   0.73064   0.00000  Uiso   1.00
C719   C     0.55166   0.95183   0.77449   0.00000  Uiso   1.00
C720   C     0.51307   0.52425   0.75071   0.00000  Uiso   1.00
C721   C     0.51374   0.97609   0.74582   0.00000  Uiso   1.00
C722   C     0.45730   0.73085   0.54805   0.00000  Uiso   1.00
C723   C     0.51546   0.78719   0.94958   0.00000  Uiso   1.00
C724   C     0.46050   0.72850   0.59763   0.00000  Uiso   1.00
C725   C     0.52016   0.78539   0.90113   0.00000  Uiso   1.00
C726   C     0.54007   0.76989   0.60589   0.00000  Uiso   1.00
C727   C     0.48076   0.71329   0.89586   0.00000  Uiso   1.00
C728   C     0.54405   0.76455   0.55770   0.00000  Uiso   1.00
Cl729  Cl    0.41139   0.61288   0.78772   0.00000  Uiso   1.00
Cl730  Cl    0.41313   0.88128   0.68638   0.00000  Uiso   1.00
Cl731  Cl    0.59887   0.52672   0.70197   0.00000  Uiso   1.00
Cl732  Cl    0.60002   0.98013   0.81379   0.00000  Uiso   1.00
Cl733  Cl    0.41254   0.69622   0.62152   0.00000  Uiso   1.00
Cl734  Cl    0.55519   0.82926   0.87799   0.00000  Uiso   1.00
H735   H     0.35073   0.79755   0.67890   0.00000  Uiso   1.00
H736   H     0.43725   0.69184   0.84185   0.00000  Uiso   1.00
H737   H     0.59397   0.76204   0.51279   0.00000  Uiso   1.00
H738   H     0.49221   0.66696   0.99724   0.00000  Uiso   1.00
H739   H     0.64909   0.70114   0.82074   0.00000  Uiso   1.00
H740   H     0.44909   0.98831   0.80034   0.00000  Uiso   1.00
H741   H     0.44958   0.50763   0.68039   0.00000  Uiso   1.00
H742   H     0.58937   0.65230   0.72981   0.00000  Uiso   1.00
H743   H     0.61952   0.89730   0.80559   0.00000  Uiso   1.00
H744   H     0.40785   0.73110   0.99081   0.00000  Uiso   1.00
H745   H     0.50754   0.82872   0.99975   0.00000  Uiso   1.00
H746   H     0.56325   0.80675   0.65906   0.00000  Uiso   1.00
N747   N     0.50000   0.74999   0.62624   0.00000  Uiso   1.00
N748   N     0.50000   0.75001   0.87377   0.00000  Uiso   1.00
O749   O     0.50000   0.68454   0.78974   0.00000  Uiso   1.00
O750   O     0.34286   0.71341   0.80239   0.00000  Uiso   1.00
O751   O     0.43600   0.51865   0.79262   0.00000  Uiso   1.00
O752   O     0.43640   0.97693   0.68594   0.00000  Uiso   1.00
O753   O     0.58721   0.62210   0.71581   0.00000  Uiso   1.00
O754   O     0.58785   0.87873   0.79591   0.00000  Uiso   1.00
O755   O     0.41141   0.71616   0.52199   0.00000  Uiso   1.00
O756   O     0.52682   0.82757   0.97217   0.00000  Uiso   1.00
O757   O     0.57803   0.79547   0.63163   0.00000  Uiso   1.00
O758   O     0.45624   0.67847   0.87048   0.00000  Uiso   1.00
O759   O     0.59038   0.77803   0.54223   0.00000  Uiso   1.00
O760   O     0.50000   0.81547   0.71026   0.00000  Uiso   1.00
O761   O     0.47469   0.66856   0.96445   0.00000  Uiso   1.00
O762   O     0.50000   0.68453   0.71026   0.00000  Uiso   1.00
O763   O     0.50000   0.81547   0.78974   0.00000  Uiso   1.00
O764   O     0.42392   0.75000   0.78045   0.00000  Uiso   1.00
O765   O     0.57608   0.75000   0.71956   0.00000  Uiso   1.00
O766   O     0.42392   0.75000   0.70097   0.00000  Uiso   1.00
O767   O     0.57608   0.75001   0.79904   0.00000  Uiso   1.00
O768   O     0.65775   0.78739   0.69912   0.00000  Uiso   1.00
Zn769  Zn    0.50000   0.75001   0.80307   0.00000  Uiso   1.00
Zn770  Zn    0.50000   0.75000   0.69693   0.00000  Uiso   1.00
C771   C     0.83367   0.66409   0.75023   0.00000  Uiso   1.00
C772   C     0.81933   0.70972   0.94541   0.00000  Uiso   1.00
C773   C     0.83405   0.74747   0.52684   0.00000  Uiso   1.00
C774   C     0.83393   0.74806   0.97353   0.00000  Uiso   1.00
C775   C     0.73415   0.75086   0.73814   0.00000  Uiso   1.00
C776   C     0.93257   0.74886   0.76197   0.00000  Uiso   1.00
C777   C     0.68015   0.75840   0.73355   0.00000  Uiso   1.00
C778   C     0.98675   0.74143   0.76699   0.00000  Uiso   1.00
C779   C     0.80593   0.54361   0.77175   0.00000  Uiso   1.00
C780   C     0.80627   0.95426   0.71629   0.00000  Uiso   1.00
C781   C     0.80099   0.58967   0.76971   0.00000  Uiso   1.00
C782   C     0.83377   0.83592   0.74967   0.00000  Uiso   1.00
C783   C     0.80085   0.90813   0.71933   0.00000  Uiso   1.00
C784   C     0.83891   0.61637   0.75124   0.00000  Uiso   1.00
C785   C     0.83804   0.88391   0.74857   0.00000  Uiso   1.00
C786   C     0.88120   0.59710   0.73274   0.00000  Uiso   1.00
C787   C     0.88201   0.90499   0.77364   0.00000  Uiso   1.00
C788   C     0.88326   0.55085   0.73064   0.00000  Uiso   1.00
C789   C     0.88499   0.95183   0.77449   0.00000  Uiso   1.00
C790   C     0.84640   0.52425   0.75071   0.00000  Uiso   1.00
C791   C     0.84708   0.97609   0.74582   0.00000  Uiso   1.00
C792   C     0.79064   0.73085   0.54805   0.00000  Uiso   1.00
C793   C     0.84879   0.78719   0.94958   0.00000  Uiso   1.00
C794   C     0.79383   0.72850   0.59763   0.00000  Uiso   1.00
C795   C     0.85350   0.78539   0.90113   0.00000  Uiso   1.00
C796   C     0.87341   0.76989   0.60589   0.00000  Uiso   1.00
C797   C     0.81410   0.71329   0.89586   0.00000  Uiso   1.00
C798   C     0.87739   0.76455   0.55770   0.00000  Uiso   1.00
Cl799  Cl    0.74473   0.61288   0.78772   0.00000  Uiso   1.00
Cl800  Cl    0.74646   0.88128   0.68638   0.00000  Uiso   1.00
Cl801  Cl    0.93220   0.52672   0.70197   0.00000  Uiso   1.00
Cl802  Cl    0.93335   0.98013   0.81379   0.00000  Uiso   1.00
Cl803  Cl    0.74588   0.69622   0.62152   0.00000  Uiso   1.00
Cl804  Cl    0.88852   0.82926   0.87799   0.00000  Uiso   1.00
H805   H     0.68407   0.79755   0.67890   0.00000  Uiso   1.00
H806   H     0.77059   0.69184   0.84185   0.00000  Uiso   1.00
H807   H     0.92730   0.76204   0.51279   0.00000  Uiso   1.00
H808   H     0.82554   0.66696   0.99724   0.00000  Uiso   1.00
H809   H     0.98243   0.70114   0.82074   0.00000  Uiso   1.00
H810   H     0.78242   0.98831   0.80034   0.00000  Uiso   1.00
H811   H     0.78291   0.50763   0.68039   0.00000  Uiso   1.00
H812   H     0.92270   0.65230   0.72981   0.00000  Uiso   1.00
H813   H     0.95285   0.89730   0.80559   0.00000  Uiso   1.00
H814   H     0.74118   0.73110   0.99081   0.00000  Uiso   1.00
H815   H     0.84087   0.82872   0.99975   0.00000  Uiso   1.00
H816   H     0.89658   0.80675   0.65906   0.00000  Uiso   1.00
N817   N     0.83333   0.74999   0.62624   0.00000  Uiso   1.00
N818   N     0.83333   0.75001   0.87377   0.00000  Uiso   1.00
O819   O     0.83334   0.68454   0.78974   0.00000  Uiso   1.00
O820   O     0.67619   0.71341   0.80239   0.00000  Uiso   1.00
O821   O     0.76933   0.51865   0.79262   0.00000  Uiso   1.00
O822   O     0.76974   0.97693   0.68594   0.00000  Uiso   1.00
O823   O     0.92054   0.62210   0.71581   0.00000  Uiso   1.00
O824   O     0.92119   0.87873   0.79591   0.00000  Uiso   1.00
O825   O     0.74474   0.71616   0.52199   0.00000  Uiso   1.00
O826   O     0.86015   0.82757   0.97217   0.00000  Uiso   1.00
O827   O     0.91137   0.79547   0.63163   0.00000  Uiso   1.00
O828   O     0.78957   0.67847   0.87048   0.00000  Uiso   1.00
O829   O     0.92371   0.77803   0.54223   0.00000  Uiso   1.00
O830   O     0.83333   0.81547   0.71026   0.00000  Uiso   1.00
O831   O     0.80802   0.66856   0.96445   0.00000  Uiso   1.00
O832   O     0.83334   0.68453   0.71026   0.00000  Uiso   1.00
O833   O     0.83333   0.81547   0.78974   0.00000  Uiso   1.00
O834   O     0.75725   0.75000   0.78045   0.00000  Uiso   1.00
O835   O     0.90942   0.75000   0.71956   0.00000  Uiso   1.00
O836   O     0.75725   0.75000   0.70097   0.00000  Uiso   1.00
O837   O     0.90942   0.75001   0.79904   0.00000  Uiso   1.00
O838   O     0.99109   0.78739   0.69912   0.00000  Uiso   1.00
Zn839  Zn    0.83333   0.75001   0.80307   0.00000  Uiso   1.00
Zn840  Zn    0.83333   0.75000   0.69693   0.00000  Uiso   1.00
loop_
_geom_bond_atom_site_label_1
_geom_bond_atom_site_label_2
_geom_bond_distance
_geom_bond_site_symmetry_2
_ccdc_geom_bond_type
C1     C14     1.436   .     S
C1     O62     1.292   .     A
C1     O49     1.293   .     A
C2     C4      1.422   .     A
C2     O61     1.381   .     S
C2     C27     1.412   .     A
C3     C28     1.421   .     A
C3     C22     1.423   .     A
C3     C424    1.527   1_554 S
C4     C23     1.420   .     A
C4     C423    1.527   .     S
C5     C7      1.410   .     S
C5     O64     1.280   .     A
C5     O66     1.289   .     A
C6     O67     1.287   .     A
C6     C8      1.414   .     S
C6     O65     1.283   .     A
C7     C148    1.342   1_455 S
C7     O208    1.385   1_455 S
C8     C77     1.342   .     S
C8     O120    1.389   .     S
C9     O51     1.384   .     S
C9     C11     1.386   .     A
C9     C20     1.414   .     A
C10    O52     1.384   .     S
C10    C21     1.414   .     A
C10    C13     1.385   .     A
C11    Cl29    1.768   .     S
C11    C14     1.403   .     A
C12    C15     1.436   .     S
C12    O60     1.288   .     A
C12    O63     1.297   .     A
C13    C15     1.402   .     A
C13    Cl30    1.768   .     S
C14    C16     1.415   .     A
C15    C17     1.402   .     A
C16    C18     1.387   .     A
C16    O53     1.384   .     S
C17    C19     1.400   .     A
C17    O54     1.383   .     S
C18    C20     1.403   .     A
C18    Cl31    1.769   .     S
C19    Cl32    1.774   .     S
C19    C21     1.406   .     A
C20    C231    1.448   1_545 S
C21    C230    1.448   .     S
C22    O55     1.381   .     S
C22    C24     1.413   .     A
C23    C25     1.411   .     A
C23    O56     1.382   .     S
C24    Cl33    1.758   .     S
C24    N47     1.374   .     A
C25    Cl34    1.750   .     S
C25    N48     1.373   .     A
C26    C28     1.409   .     A
C26    N47     1.375   .     A
C26    O57     1.370   .     S
C27    N48     1.376   .     A
C27    O58     1.369   .     S
C28    O59     1.381   .     S
H35    O208    0.991   1_455 S
H36    O58     0.986   .     S
H37    O59     0.990   .     S
H38    O61     0.990   .     S
H39    O120    0.991   .     S
H40    O261    0.989   .     S
H41    O262    0.989   1_545 S
H42    O53     0.989   .     S
H43    O54     0.988   .     S
H44    O475    0.989   .     S
H45    O56     0.990   .     S
H46    O57     0.984   .     S
N47    Zn70    2.026   .     S
N48    Zn69    2.026   .     S
O49    Zn69    1.997   .     S
O50    H179    0.991   1_455 S
O50    C148    1.389   1_455 S
O51    H250    0.989   1_545 S
O52    H251    0.989   .     S
O55    H464    0.989   1_554 S
O60    Zn70    1.997   .     S
O62    Zn70    1.990   .     S
O63    Zn69    1.990   .     S
O64    Zn69    1.991   .     S
O65    Zn70    1.991   .     S
O66    Zn70    1.988   .     S
O67    Zn69    1.988   .     S
O68    H105    0.991   .     S
O68    C77     1.385   .     S
C71    C84     1.436   .     S
C71    O132    1.292   .     A
C71    O119    1.293   .     A
C72    C74     1.422   .     A
C72    O131    1.381   .     S
C72    C97     1.412   .     A
C73    C98     1.421   .     A
C73    C92     1.423   .     A
C73    C494    1.527   1_554 S
C74    C93     1.420   .     A
C74    C493    1.527   .     S
C75    C77     1.410   .     S
C75    O134    1.280   .     A
C75    O136    1.289   .     A
C76    O137    1.287   .     A
C76    C78     1.414   .     S
C76    O135    1.283   .     A
C78    C147    1.342   .     S
C78    O190    1.389   .     S
C79    O121    1.384   .     S
C79    C81     1.386   .     A
C79    C90     1.414   .     A
C80    O122    1.384   .     S
C80    C91     1.414   .     A
C80    C83     1.385   .     A
C81    Cl99    1.768   .     S
C81    C84     1.403   .     A
C82    C85     1.436   .     S
C82    O130    1.288   .     A
C82    O133    1.297   .     A
C83    C85     1.402   .     A
C83    Cl100   1.768   .     S
C84    C86     1.415   .     A
C85    C87     1.402   .     A
C86    C88     1.387   .     A
C86    O123    1.384   .     S
C87    C89     1.400   .     A
C87    O124    1.383   .     S
C88    C90     1.403   .     A
C88    Cl101   1.769   .     S
C89    Cl102   1.774   .     S
C89    C91     1.406   .     A
C90    C301    1.448   1_545 S
C91    C300    1.448   .     S
C92    O125    1.381   .     S
C92    C94     1.413   .     A
C93    C95     1.411   .     A
C93    O126    1.382   .     S
C94    Cl103   1.758   .     S
C94    N117    1.374   .     A
C95    Cl104   1.750   .     S
C95    N118    1.373   .     A
C96    C98     1.409   .     A
C96    N117    1.375   .     A
C96    O127    1.370   .     S
C97    N118    1.376   .     A
C97    O128    1.369   .     S
C98    O129    1.381   .     S
H106   O128    0.986   .     S
H107   O129    0.990   .     S
H108   O131    0.990   .     S
H109   O190    0.991   .     S
H110   O331    0.989   .     S
H111   O332    0.989   1_545 S
H112   O123    0.989   .     S
H113   O124    0.988   .     S
H114   O545    0.989   .     S
H115   O126    0.990   .     S
H116   O127    0.984   .     S
N117   Zn140   2.026   .     S
N118   Zn139   2.026   .     S
O119   Zn139   1.997   .     S
O121   H320    0.989   1_545 S
O122   H321    0.989   .     S
O125   H534    0.989   1_554 S
O130   Zn140   1.997   .     S
O132   Zn140   1.990   .     S
O133   Zn139   1.990   .     S
O134   Zn139   1.991   .     S
O135   Zn140   1.991   .     S
O136   Zn140   1.988   .     S
O137   Zn139   1.988   .     S
O138   H175    0.991   .     S
O138   C147    1.385   .     S
C141   C154    1.436   .     S
C141   O202    1.292   .     A
C141   O189    1.293   .     A
C142   C144    1.422   .     A
C142   O201    1.381   .     S
C142   C167    1.412   .     A
C143   C168    1.421   .     A
C143   C162    1.423   .     A
C143   C564    1.527   1_554 S
C144   C163    1.420   .     A
C144   C563    1.527   .     S
C145   C147    1.410   .     S
C145   O204    1.280   .     A
C145   O206    1.289   .     A
C146   O207    1.287   .     A
C146   C148    1.414   .     S
C146   O205    1.283   .     A
C148   C7      1.342   1_655 S
C148   O50     1.389   1_655 S
C149   O191    1.384   .     S
C149   C151    1.386   .     A
C149   C160    1.414   .     A
C150   O192    1.384   .     S
C150   C161    1.414   .     A
C150   C153    1.385   .     A
C151   Cl169   1.768   .     S
C151   C154    1.403   .     A
C152   C155    1.436   .     S
C152   O200    1.288   .     A
C152   O203    1.297   .     A
C153   C155    1.402   .     A
C153   Cl170   1.768   .     S
C154   C156    1.415   .     A
C155   C157    1.402   .     A
C156   C158    1.387   .     A
C156   O193    1.384   .     S
C157   C159    1.400   .     A
C157   O194    1.383   .     S
C158   C160    1.403   .     A
C158   Cl171   1.769   .     S
C159   Cl172   1.774   .     S
C159   C161    1.406   .     A
C160   C371    1.448   1_545 S
C161   C370    1.448   .     S
C162   O195    1.381   .     S
C162   C164    1.413   .     A
C163   C165    1.411   .     A
C163   O196    1.382   .     S
C164   Cl173   1.758   .     S
C164   N187    1.374   .     A
C165   Cl174   1.750   .     S
C165   N188    1.373   .     A
C166   C168    1.409   .     A
C166   N187    1.375   .     A
C166   O197    1.370   .     S
C167   N188    1.376   .     A
C167   O198    1.369   .     S
C168   O199    1.381   .     S
H176   O198    0.986   .     S
H177   O199    0.990   .     S
H178   O201    0.990   .     S
H179   O50     0.991   1_655 S
H180   O401    0.989   .     S
H181   O402    0.989   1_545 S
H182   O193    0.989   .     S
H183   O194    0.988   .     S
H184   O615    0.989   .     S
H185   O196    0.990   .     S
H186   O197    0.984   .     S
N187   Zn210   2.026   .     S
N188   Zn209   2.026   .     S
O189   Zn209   1.997   .     S
O191   H390    0.989   1_545 S
O192   H391    0.989   .     S
O195   H604    0.989   1_554 S
O200   Zn210   1.997   .     S
O202   Zn210   1.990   .     S
O203   Zn209   1.990   .     S
O204   Zn209   1.991   .     S
O205   Zn210   1.991   .     S
O206   Zn210   1.988   .     S
O207   Zn209   1.988   .     S
O208   H35     0.991   1_655 S
O208   C7      1.385   1_655 S
C211   C224    1.436   .     S
C211   O272    1.292   .     A
C211   O259    1.293   .     A
C212   C214    1.422   .     A
C212   O271    1.381   .     S
C212   C237    1.412   .     A
C213   C238    1.421   .     A
C213   C232    1.423   .     A
C213   C634    1.527   1_554 S
C214   C233    1.420   .     A
C214   C633    1.527   .     S
C215   C217    1.410   .     S
C215   O274    1.280   .     A
C215   O276    1.289   .     A
C216   O277    1.287   .     A
C216   C218    1.414   .     S
C216   O275    1.283   .     A
C217   C358    1.342   1_455 S
C217   O418    1.385   1_455 S
C218   C287    1.342   .     S
C218   O330    1.389   .     S
C219   O261    1.384   .     S
C219   C221    1.386   .     A
C219   C230    1.414   .     A
C220   O262    1.384   .     S
C220   C231    1.414   .     A
C220   C223    1.385   .     A
C221   Cl239   1.768   .     S
C221   C224    1.403   .     A
C222   C225    1.436   .     S
C222   O270    1.288   .     A
C222   O273    1.297   .     A
C223   C225    1.402   .     A
C223   Cl240   1.768   .     S
C224   C226    1.415   .     A
C225   C227    1.402   .     A
C226   C228    1.387   .     A
C226   O263    1.384   .     S
C227   C229    1.400   .     A
C227   O264    1.383   .     S
C228   C230    1.403   .     A
C228   Cl241   1.769   .     S
C229   Cl242   1.774   .     S
C229   C231    1.406   .     A
C231   C20     1.448   1_565 S
C232   O265    1.381   .     S
C232   C234    1.413   .     A
C233   C235    1.411   .     A
C233   O266    1.382   .     S
C234   Cl243   1.758   .     S
C234   N257    1.374   .     A
C235   Cl244   1.750   .     S
C235   N258    1.373   .     A
C236   C238    1.409   .     A
C236   N257    1.375   .     A
C236   O267    1.370   .     S
C237   N258    1.376   .     A
C237   O268    1.369   .     S
C238   O269    1.381   .     S
H245   O418    0.991   1_455 S
H246   O268    0.986   .     S
H247   O269    0.990   .     S
H248   O271    0.990   .     S
H249   O330    0.991   .     S
H250   O51     0.989   1_565 S
H252   O263    0.989   .     S
H253   O264    0.988   .     S
H254   O685    0.989   .     S
H255   O266    0.990   .     S
H256   O267    0.984   .     S
N257   Zn280   2.026   .     S
N258   Zn279   2.026   .     S
O259   Zn279   1.997   .     S
O260   H389    0.991   1_455 S
O260   C358    1.389   1_455 S
O262   H41     0.989   1_565 S
O265   H674    0.989   1_554 S
O270   Zn280   1.997   .     S
O272   Zn280   1.990   .     S
O273   Zn279   1.990   .     S
O274   Zn279   1.991   .     S
O275   Zn280   1.991   .     S
O276   Zn280   1.988   .     S
O277   Zn279   1.988   .     S
O278   H315    0.991   .     S
O278   C287    1.385   .     S
C281   C294    1.436   .     S
C281   O342    1.292   .     A
C281   O329    1.293   .     A
C282   C284    1.422   .     A
C282   O341    1.381   .     S
C282   C307    1.412   .     A
C283   C308    1.421   .     A
C283   C302    1.423   .     A
C283   C704    1.527   1_554 S
C284   C303    1.420   .     A
C284   C703    1.527   .     S
C285   C287    1.410   .     S
C285   O344    1.280   .     A
C285   O346    1.289   .     A
C286   O347    1.287   .     A
C286   C288    1.414   .     S
C286   O345    1.283   .     A
C288   C357    1.342   .     S
C288   O400    1.389   .     S
C289   O331    1.384   .     S
C289   C291    1.386   .     A
C289   C300    1.414   .     A
C290   O332    1.384   .     S
C290   C301    1.414   .     A
C290   C293    1.385   .     A
C291   Cl309   1.768   .     S
C291   C294    1.403   .     A
C292   C295    1.436   .     S
C292   O340    1.288   .     A
C292   O343    1.297   .     A
C293   C295    1.402   .     A
C293   Cl310   1.768   .     S
C294   C296    1.415   .     A
C295   C297    1.402   .     A
C296   C298    1.387   .     A
C296   O333    1.384   .     S
C297   C299    1.400   .     A
C297   O334    1.383   .     S
C298   C300    1.403   .     A
C298   Cl311   1.769   .     S
C299   Cl312   1.774   .     S
C299   C301    1.406   .     A
C301   C90     1.448   1_565 S
C302   O335    1.381   .     S
C302   C304    1.413   .     A
C303   C305    1.411   .     A
C303   O336    1.382   .     S
C304   Cl313   1.758   .     S
C304   N327    1.374   .     A
C305   Cl314   1.750   .     S
C305   N328    1.373   .     A
C306   C308    1.409   .     A
C306   N327    1.375   .     A
C306   O337    1.370   .     S
C307   N328    1.376   .     A
C307   O338    1.369   .     S
C308   O339    1.381   .     S
H316   O338    0.986   .     S
H317   O339    0.990   .     S
H318   O341    0.990   .     S
H319   O400    0.991   .     S
H320   O121    0.989   1_565 S
H322   O333    0.989   .     S
H323   O334    0.988   .     S
H324   O755    0.989   .     S
H325   O336    0.990   .     S
H326   O337    0.984   .     S
N327   Zn350   2.026   .     S
N328   Zn349   2.026   .     S
O329   Zn349   1.997   .     S
O332   H111    0.989   1_565 S
O335   H744    0.989   1_554 S
O340   Zn350   1.997   .     S
O342   Zn350   1.990   .     S
O343   Zn349   1.990   .     S
O344   Zn349   1.991   .     S
O345   Zn350   1.991   .     S
O346   Zn350   1.988   .     S
O347   Zn349   1.988   .     S
O348   H385    0.991   .     S
O348   C357    1.385   .     S
C351   C364    1.436   .     S
C351   O412    1.292   .     A
C351   O399    1.293   .     A
C352   C354    1.422   .     A
C352   O411    1.381   .     S
C352   C377    1.412   .     A
C353   C378    1.421   .     A
C353   C372    1.423   .     A
C353   C774    1.527   1_554 S
C354   C373    1.420   .     A
C354   C773    1.527   .     S
C355   C357    1.410   .     S
C355   O414    1.280   .     A
C355   O416    1.289   .     A
C356   O417    1.287   .     A
C356   C358    1.414   .     S
C356   O415    1.283   .     A
C358   C217    1.342   1_655 S
C358   O260    1.389   1_655 S
C359   O401    1.384   .     S
C359   C361    1.386   .     A
C359   C370    1.414   .     A
C360   O402    1.384   .     S
C360   C371    1.414   .     A
C360   C363    1.385   .     A
C361   Cl379   1.768   .     S
C361   C364    1.403   .     A
C362   C365    1.436   .     S
C362   O410    1.288   .     A
C362   O413    1.297   .     A
C363   C365    1.402   .     A
C363   Cl380   1.768   .     S
C364   C366    1.415   .     A
C365   C367    1.402   .     A
C366   C368    1.387   .     A
C366   O403    1.384   .     S
C367   C369    1.400   .     A
C367   O404    1.383   .     S
C368   C370    1.403   .     A
C368   Cl381   1.769   .     S
C369   Cl382   1.774   .     S
C369   C371    1.406   .     A
C371   C160    1.448   1_565 S
C372   O405    1.381   .     S
C372   C374    1.413   .     A
C373   C375    1.411   .     A
C373   O406    1.382   .     S
C374   Cl383   1.758   .     S
C374   N397    1.374   .     A
C375   Cl384   1.750   .     S
C375   N398    1.373   .     A
C376   C378    1.409   .     A
C376   N397    1.375   .     A
C376   O407    1.370   .     S
C377   N398    1.376   .     A
C377   O408    1.369   .     S
C378   O409    1.381   .     S
H386   O408    0.986   .     S
H387   O409    0.990   .     S
H388   O411    0.990   .     S
H389   O260    0.991   1_655 S
H390   O191    0.989   1_565 S
H392   O403    0.989   .     S
H393   O404    0.988   .     S
H394   O825    0.989   .     S
H395   O406    0.990   .     S
H396   O407    0.984   .     S
N397   Zn420   2.026   .     S
N398   Zn419   2.026   .     S
O399   Zn419   1.997   .     S
O402   H181    0.989   1_565 S
O405   H814    0.989   1_554 S
O410   Zn420   1.997   .     S
O412   Zn420   1.990   .     S
O413   Zn419   1.990   .     S
O414   Zn419   1.991   .     S
O415   Zn420   1.991   .     S
O416   Zn420   1.988   .     S
O417   Zn419   1.988   .     S
O418   H245    0.991   1_655 S
O418   C217    1.385   1_655 S
C421   C434    1.436   .     S
C421   O482    1.292   .     A
C421   O469    1.293   .     A
C422   C424    1.422   .     A
C422   O481    1.381   .     S
C422   C447    1.412   .     A
C423   C448    1.421   .     A
C423   C442    1.423   .     A
C424   C443    1.420   .     A
C424   C3      1.527   1_556 S
C425   C427    1.410   .     S
C425   O484    1.280   .     A
C425   O486    1.289   .     A
C426   O487    1.287   .     A
C426   C428    1.414   .     S
C426   O485    1.283   .     A
C427   C568    1.342   1_455 S
C427   O628    1.385   1_455 S
C428   C497    1.342   .     S
C428   O540    1.389   .     S
C429   O471    1.384   .     S
C429   C431    1.386   .     A
C429   C440    1.414   .     A
C430   O472    1.384   .     S
C430   C441    1.414   .     A
C430   C433    1.385   .     A
C431   Cl449   1.768   .     S
C431   C434    1.403   .     A
C432   C435    1.436   .     S
C432   O480    1.288   .     A
C432   O483    1.297   .     A
C433   C435    1.402   .     A
C433   Cl450   1.768   .     S
C434   C436    1.415   .     A
C435   C437    1.402   .     A
C436   C438    1.387   .     A
C436   O473    1.384   .     S
C437   C439    1.400   .     A
C437   O474    1.383   .     S
C438   C440    1.403   .     A
C438   Cl451   1.769   .     S
C439   Cl452   1.774   .     S
C439   C441    1.406   .     A
C440   C651    1.448   1_545 S
C441   C650    1.448   .     S
C442   O475    1.381   .     S
C442   C444    1.413   .     A
C443   C445    1.411   .     A
C443   O476    1.382   .     S
C444   Cl453   1.758   .     S
C444   N467    1.374   .     A
C445   Cl454   1.750   .     S
C445   N468    1.373   .     A
C446   C448    1.409   .     A
C446   N467    1.375   .     A
C446   O477    1.370   .     S
C447   N468    1.376   .     A
C447   O478    1.369   .     S
C448   O479    1.381   .     S
H455   O628    0.991   1_455 S
H456   O478    0.986   .     S
H457   O479    0.990   .     S
H458   O481    0.990   .     S
H459   O540    0.991   .     S
H460   O681    0.989   .     S
H461   O682    0.989   1_545 S
H462   O473    0.989   .     S
H463   O474    0.988   .     S
H464   O55     0.989   1_556 S
H465   O476    0.990   .     S
H466   O477    0.984   .     S
N467   Zn490   2.026   .     S
N468   Zn489   2.026   .     S
O469   Zn489   1.997   .     S
O470   H599    0.991   1_455 S
O470   C568    1.389   1_455 S
O471   H670    0.989   1_545 S
O472   H671    0.989   .     S
O480   Zn490   1.997   .     S
O482   Zn490   1.990   .     S
O483   Zn489   1.990   .     S
O484   Zn489   1.991   .     S
O485   Zn490   1.991   .     S
O486   Zn490   1.988   .     S
O487   Zn489   1.988   .     S
O488   H525    0.991   .     S
O488   C497    1.385   .     S
C491   C504    1.436   .     S
C491   O552    1.292   .     A
C491   O539    1.293   .     A
C492   C494    1.422   .     A
C492   O551    1.381   .     S
C492   C517    1.412   .     A
C493   C518    1.421   .     A
C493   C512    1.423   .     A
C494   C513    1.420   .     A
C494   C73     1.527   1_556 S
C495   C497    1.410   .     S
C495   O554    1.280   .     A
C495   O556    1.289   .     A
C496   O557    1.287   .     A
C496   C498    1.414   .     S
C496   O555    1.283   .     A
C498   C567    1.342   .     S
C498   O610    1.389   .     S
C499   O541    1.384   .     S
C499   C501    1.386   .     A
C499   C510    1.414   .     A
C500   O542    1.384   .     S
C500   C511    1.414   .     A
C500   C503    1.385   .     A
C501   Cl519   1.768   .     S
C501   C504    1.403   .     A
C502   C505    1.436   .     S
C502   O550    1.288   .     A
C502   O553    1.297   .     A
C503   C505    1.402   .     A
C503   Cl520   1.768   .     S
C504   C506    1.415   .     A
C505   C507    1.402   .     A
C506   C508    1.387   .     A
C506   O543    1.384   .     S
C507   C509    1.400   .     A
C507   O544    1.383   .     S
C508   C510    1.403   .     A
C508   Cl521   1.769   .     S
C509   Cl522   1.774   .     S
C509   C511    1.406   .     A
C510   C721    1.448   1_545 S
C511   C720    1.448   .     S
C512   O545    1.381   .     S
C512   C514    1.413   .     A
C513   C515    1.411   .     A
C513   O546    1.382   .     S
C514   Cl523   1.758   .     S
C514   N537    1.374   .     A
C515   Cl524   1.750   .     S
C515   N538    1.373   .     A
C516   C518    1.409   .     A
C516   N537    1.375   .     A
C516   O547    1.370   .     S
C517   N538    1.376   .     A
C517   O548    1.369   .     S
C518   O549    1.381   .     S
H526   O548    0.986   .     S
H527   O549    0.990   .     S
H528   O551    0.990   .     S
H529   O610    0.991   .     S
H530   O751    0.989   .     S
H531   O752    0.989   1_545 S
H532   O543    0.989   .     S
H533   O544    0.988   .     S
H534   O125    0.989   1_556 S
H535   O546    0.990   .     S
H536   O547    0.984   .     S
N537   Zn560   2.026   .     S
N538   Zn559   2.026   .     S
O539   Zn559   1.997   .     S
O541   H740    0.989   1_545 S
O542   H741    0.989   .     S
O550   Zn560   1.997   .     S
O552   Zn560   1.990   .     S
O553   Zn559   1.990   .     S
O554   Zn559   1.991   .     S
O555   Zn560   1.991   .     S
O556   Zn560   1.988   .     S
O557   Zn559   1.988   .     S
O558   H595    0.991   .     S
O558   C567    1.385   .     S
C561   C574    1.436   .     S
C561   O622    1.292   .     A
C561   O609    1.293   .     A
C562   C564    1.422   .     A
C562   O621    1.381   .     S
C562   C587    1.412   .     A
C563   C588    1.421   .     A
C563   C582    1.423   .     A
C564   C583    1.420   .     A
C564   C143    1.527   1_556 S
C565   C567    1.410   .     S
C565   O624    1.280   .     A
C565   O626    1.289   .     A
C566   O627    1.287   .     A
C566   C568    1.414   .     S
C566   O625    1.283   .     A
C568   C427    1.342   1_655 S
C568   O470    1.389   1_655 S
C569   O611    1.384   .     S
C569   C571    1.386   .     A
C569   C580    1.414   .     A
C570   O612    1.384   .     S
C570   C581    1.414   .     A
C570   C573    1.385   .     A
C571   Cl589   1.768   .     S
C571   C574    1.403   .     A
C572   C575    1.436   .     S
C572   O620    1.288   .     A
C572   O623    1.297   .     A
C573   C575    1.402   .     A
C573   Cl590   1.768   .     S
C574   C576    1.415   .     A
C575   C577    1.402   .     A
C576   C578    1.387   .     A
C576   O613    1.384   .     S
C577   C579    1.400   .     A
C577   O614    1.383   .     S
C578   C580    1.403   .     A
C578   Cl591   1.769   .     S
C579   Cl592   1.774   .     S
C579   C581    1.406   .     A
C580   C791    1.448   1_545 S
C581   C790    1.448   .     S
C582   O615    1.381   .     S
C582   C584    1.413   .     A
C583   C585    1.411   .     A
C583   O616    1.382   .     S
C584   Cl593   1.758   .     S
C584   N607    1.374   .     A
C585   Cl594   1.750   .     S
C585   N608    1.373   .     A
C586   C588    1.409   .     A
C586   N607    1.375   .     A
C586   O617    1.370   .     S
C587   N608    1.376   .     A
C587   O618    1.369   .     S
C588   O619    1.381   .     S
H596   O618    0.986   .     S
H597   O619    0.990   .     S
H598   O621    0.990   .     S
H599   O470    0.991   1_655 S
H600   O821    0.989   .     S
H601   O822    0.989   1_545 S
H602   O613    0.989   .     S
H603   O614    0.988   .     S
H604   O195    0.989   1_556 S
H605   O616    0.990   .     S
H606   O617    0.984   .     S
N607   Zn630   2.026   .     S
N608   Zn629   2.026   .     S
O609   Zn629   1.997   .     S
O611   H810    0.989   1_545 S
O612   H811    0.989   .     S
O620   Zn630   1.997   .     S
O622   Zn630   1.990   .     S
O623   Zn629   1.990   .     S
O624   Zn629   1.991   .     S
O625   Zn630   1.991   .     S
O626   Zn630   1.988   .     S
O627   Zn629   1.988   .     S
O628   H455    0.991   1_655 S
O628   C427    1.385   1_655 S
C631   C644    1.436   .     S
C631   O692    1.292   .     A
C631   O679    1.293   .     A
C632   C634    1.422   .     A
C632   O691    1.381   .     S
C632   C657    1.412   .     A
C633   C658    1.421   .     A
C633   C652    1.423   .     A
C634   C653    1.420   .     A
C634   C213    1.527   1_556 S
C635   C637    1.410   .     S
C635   O694    1.280   .     A
C635   O696    1.289   .     A
C636   O697    1.287   .     A
C636   C638    1.414   .     S
C636   O695    1.283   .     A
C637   C778    1.342   1_455 S
C637   O838    1.385   1_455 S
C638   C707    1.342   .     S
C638   O750    1.389   .     S
C639   O681    1.384   .     S
C639   C641    1.386   .     A
C639   C650    1.414   .     A
C640   O682    1.384   .     S
C640   C651    1.414   .     A
C640   C643    1.385   .     A
C641   Cl659   1.768   .     S
C641   C644    1.403   .     A
C642   C645    1.436   .     S
C642   O690    1.288   .     A
C642   O693    1.297   .     A
C643   C645    1.402   .     A
C643   Cl660   1.768   .     S
C644   C646    1.415   .     A
C645   C647    1.402   .     A
C646   C648    1.387   .     A
C646   O683    1.384   .     S
C647   C649    1.400   .     A
C647   O684    1.383   .     S
C648   C650    1.403   .     A
C648   Cl661   1.769   .     S
C649   Cl662   1.774   .     S
C649   C651    1.406   .     A
C651   C440    1.448   1_565 S
C652   O685    1.381   .     S
C652   C654    1.413   .     A
C653   C655    1.411   .     A
C653   O686    1.382   .     S
C654   Cl663   1.758   .     S
C654   N677    1.374   .     A
C655   Cl664   1.750   .     S
C655   N678    1.373   .     A
C656   C658    1.409   .     A
C656   N677    1.375   .     A
C656   O687    1.370   .     S
C657   N678    1.376   .     A
C657   O688    1.369   .     S
C658   O689    1.381   .     S
H665   O838    0.991   1_455 S
H666   O688    0.986   .     S
H667   O689    0.990   .     S
H668   O691    0.990   .     S
H669   O750    0.991   .     S
H670   O471    0.989   1_565 S
H672   O683    0.989   .     S
H673   O684    0.988   .     S
H674   O265    0.989   1_556 S
H675   O686    0.990   .     S
H676   O687    0.984   .     S
N677   Zn700   2.026   .     S
N678   Zn699   2.026   .     S
O679   Zn699   1.997   .     S
O680   H809    0.991   1_455 S
O680   C778    1.389   1_455 S
O682   H461    0.989   1_565 S
O690   Zn700   1.997   .     S
O692   Zn700   1.990   .     S
O693   Zn699   1.990   .     S
O694   Zn699   1.991   .     S
O695   Zn700   1.991   .     S
O696   Zn700   1.988   .     S
O697   Zn699   1.988   .     S
O698   H735    0.991   .     S
O698   C707    1.385   .     S
C701   C714    1.436   .     S
C701   O762    1.292   .     A
C701   O749    1.293   .     A
C702   C704    1.422   .     A
C702   O761    1.381   .     S
C702   C727    1.412   .     A
C703   C728    1.421   .     A
C703   C722    1.423   .     A
C704   C723    1.420   .     A
C704   C283    1.527   1_556 S
C705   C707    1.410   .     S
C705   O764    1.280   .     A
C705   O766    1.289   .     A
C706   O767    1.287   .     A
C706   C708    1.414   .     S
C706   O765    1.283   .     A
C708   C777    1.342   .     S
C708   O820    1.389   .     S
C709   O751    1.384   .     S
C709   C711    1.386   .     A
C709   C720    1.414   .     A
C710   O752    1.384   .     S
C710   C721    1.414   .     A
C710   C713    1.385   .     A
C711   Cl729   1.768   .     S
C711   C714    1.403   .     A
C712   C715    1.436   .     S
C712   O760    1.288   .     A
C712   O763    1.297   .     A
C713   C715    1.402   .     A
C713   Cl730   1.768   .     S
C714   C716    1.415   .     A
C715   C717    1.402   .     A
C716   C718    1.387   .     A
C716   O753    1.384   .     S
C717   C719    1.400   .     A
C717   O754    1.383   .     S
C718   C720    1.403   .     A
C718   Cl731   1.769   .     S
C719   Cl732   1.774   .     S
C719   C721    1.406   .     A
C721   C510    1.448   1_565 S
C722   O755    1.381   .     S
C722   C724    1.413   .     A
C723   C725    1.411   .     A
C723   O756    1.382   .     S
C724   Cl733   1.758   .     S
C724   N747    1.374   .     A
C725   Cl734   1.750   .     S
C725   N748    1.373   .     A
C726   C728    1.409   .     A
C726   N747    1.375   .     A
C726   O757    1.370   .     S
C727   N748    1.376   .     A
C727   O758    1.369   .     S
C728   O759    1.381   .     S
H736   O758    0.986   .     S
H737   O759    0.990   .     S
H738   O761    0.990   .     S
H739   O820    0.991   .     S
H740   O541    0.989   1_565 S
H742   O753    0.989   .     S
H743   O754    0.988   .     S
H744   O335    0.989   1_556 S
H745   O756    0.990   .     S
H746   O757    0.984   .     S
N747   Zn770   2.026   .     S
N748   Zn769   2.026   .     S
O749   Zn769   1.997   .     S
O752   H531    0.989   1_565 S
O760   Zn770   1.997   .     S
O762   Zn770   1.990   .     S
O763   Zn769   1.990   .     S
O764   Zn769   1.991   .     S
O765   Zn770   1.991   .     S
O766   Zn770   1.988   .     S
O767   Zn769   1.988   .     S
O768   H805    0.991   .     S
O768   C777    1.385   .     S
C771   C784    1.436   .     S
C771   O832    1.292   .     A
C771   O819    1.293   .     A
C772   C774    1.422   .     A
C772   O831    1.381   .     S
C772   C797    1.412   .     A
C773   C798    1.421   .     A
C773   C792    1.423   .     A
C774   C793    1.420   .     A
C774   C353    1.527   1_556 S
C775   C777    1.410   .     S
C775   O834    1.280   .     A
C775   O836    1.289   .     A
C776   O837    1.287   .     A
C776   C778    1.414   .     S
C776   O835    1.283   .     A
C778   C637    1.342   1_655 S
C778   O680    1.389   1_655 S
C779   O821    1.384   .     S
C779   C781    1.386   .     A
C779   C790    1.414   .     A
C780   O822    1.384   .     S
C780   C791    1.414   .     A
C780   C783    1.385   .     A
C781   Cl799   1.768   .     S
C781   C784    1.403   .     A
C782   C785    1.436   .     S
C782   O830    1.288   .     A
C782   O833    1.297   .     A
C783   C785    1.402   .     A
C783   Cl800   1.768   .     S
C784   C786    1.415   .     A
C785   C787    1.402   .     A
C786   C788    1.387   .     A
C786   O823    1.384   .     S
C787   C789    1.400   .     A
C787   O824    1.383   .     S
C788   C790    1.403   .     A
C788   Cl801   1.769   .     S
C789   Cl802   1.774   .     S
C789   C791    1.406   .     A
C791   C580    1.448   1_565 S
C792   O825    1.381   .     S
C792   C794    1.413   .     A
C793   C795    1.411   .     A
C793   O826    1.382   .     S
C794   Cl803   1.758   .     S
C794   N817    1.374   .     A
C795   Cl804   1.750   .     S
C795   N818    1.373   .     A
C796   C798    1.409   .     A
C796   N817    1.375   .     A
C796   O827    1.370   .     S
C797   N818    1.376   .     A
C797   O828    1.369   .     S
C798   O829    1.381   .     S
H806   O828    0.986   .     S
H807   O829    0.990   .     S
H808   O831    0.990   .     S
H809   O680    0.991   1_655 S
H810   O611    0.989   1_565 S
H812   O823    0.989   .     S
H813   O824    0.988   .     S
H814   O405    0.989   1_556 S
H815   O826    0.990   .     S
H816   O827    0.984   .     S
N817   Zn840   2.026   .     S
N818   Zn839   2.026   .     S
O819   Zn839   1.997   .     S
O822   H601    0.989   1_565 S
O830   Zn840   1.997   .     S
O832   Zn840   1.990   .     S
O833   Zn839   1.990   .     S
O834   Zn839   1.991   .     S
O835   Zn840   1.991   .     S
O836   Zn840   1.988   .     S
O837   Zn839   1.988   .     S
O838   H665    0.991   1_655 S
O838   C637    1.385   1_655 S
