data_str_m3_o2_o10_pcu_sym.183
_audit_creation_date              2020-01-03
_audit_creation_method            'Materials Studio'
_symmetry_space_group_name_H-M    'P1'
_symmetry_Int_Tables_number       1
_symmetry_cell_setting            triclinic
loop_
_symmetry_equiv_pos_as_xyz
  x,y,z
_cell_length_a                    25.7787
_cell_length_b                    29.8918
_cell_length_c                    28.3499
_cell_angle_alpha                 89.8613
_cell_angle_beta                  98.6553
_cell_angle_gamma                 90.0526
loop_
_atom_site_label
_atom_site_type_symbol
_atom_site_fract_x
_atom_site_fract_y
_atom_site_fract_z
_atom_site_U_iso_or_equiv
_atom_site_adp_type
_atom_site_occupancy
C1     C     0.16734   0.16383   0.25015   0.00000  Uiso   1.00
C2     C     0.16735   0.33616   0.25002   0.00000  Uiso   1.00
C3     C     0.14274   0.21530   0.04943   0.00000  Uiso   1.00
C4     C     0.20841   0.26896   0.45303   0.00000  Uiso   1.00
C5     C     0.14301   0.21602   0.09908   0.00000  Uiso   1.00
C6     C     0.20751   0.26872   0.40329   0.00000  Uiso   1.00
C7     C     0.19041   0.28395   0.10542   0.00000  Uiso   1.00
C8     C     0.12587   0.23128   0.39227   0.00000  Uiso   1.00
C9     C     0.19077   0.28467   0.05585   0.00000  Uiso   1.00
C10    C     0.12503   0.23107   0.44177   0.00000  Uiso   1.00
C11    C     0.16676   0.24999   0.02670   0.00000  Uiso   1.00
C12    C     0.16673   0.25001   0.47334   0.00000  Uiso   1.00
C13    C     0.06700   0.25000   0.23753   0.00000  Uiso   1.00
C14    C     0.26633   0.25002   0.26247   0.00000  Uiso   1.00
C15    C     0.01198   0.25004   0.23081   0.00000  Uiso   1.00
C16    C     0.32135   0.25004   0.26921   0.00000  Uiso   1.00
C17    C     0.20598   0.04900   0.29209   0.00000  Uiso   1.00
C18    C     0.20671   0.45092   0.21911   0.00000  Uiso   1.00
C19    C     0.19951   0.09503   0.29152   0.00000  Uiso   1.00
C20    C     0.20026   0.40488   0.21793   0.00000  Uiso   1.00
C21    C     0.17234   0.11597   0.25096   0.00000  Uiso   1.00
C22    C     0.17234   0.38400   0.25054   0.00000  Uiso   1.00
C23    C     0.15198   0.09130   0.21065   0.00000  Uiso   1.00
C24    C     0.15112   0.40873   0.28471   0.00000  Uiso   1.00
C25    C     0.15742   0.04538   0.21132   0.00000  Uiso   1.00
C26    C     0.15651   0.45466   0.28548   0.00000  Uiso   1.00
C27    C     0.18416   0.02418   0.25187   0.00000  Uiso   1.00
C28    C     0.18407   0.47580   0.25279   0.00000  Uiso   1.00
H29    H     0.32468   0.25006   0.19439   0.00000  Uiso   1.00
H30    H     0.00865   0.25003   0.30563   0.00000  Uiso   1.00
H31    H     0.21627   0.11458   0.32228   0.00000  Uiso   1.00
H32    H     0.21765   0.38526   0.19221   0.00000  Uiso   1.00
H33    H     0.13104   0.10743   0.17916   0.00000  Uiso   1.00
H34    H     0.12956   0.39263   0.31004   0.00000  Uiso   1.00
H35    H     0.13988   0.02618   0.18061   0.00000  Uiso   1.00
H36    H     0.13835   0.47390   0.31093   0.00000  Uiso   1.00
H37    H     0.12442   0.18732   0.02923   0.00000  Uiso   1.00
H38    H     0.24200   0.28335   0.47532   0.00000  Uiso   1.00
H39    H     0.12436   0.18917   0.11594   0.00000  Uiso   1.00
H40    H     0.23974   0.28345   0.38829   0.00000  Uiso   1.00
H41    H     0.20907   0.31076   0.12729   0.00000  Uiso   1.00
H42    H     0.09363   0.21648   0.36860   0.00000  Uiso   1.00
H43    H     0.20913   0.31264   0.04056   0.00000  Uiso   1.00
H44    H     0.09146   0.21666   0.45497   0.00000  Uiso   1.00
N45    N     0.16667   0.24999   0.12624   0.00000  Uiso   1.00
N46    N     0.16667   0.25001   0.37377   0.00000  Uiso   1.00
O47    O     0.16667   0.18454   0.28974   0.00000  Uiso   1.00
O48    O     0.16666   0.31547   0.21026   0.00000  Uiso   1.00
O49    O     0.16667   0.18453   0.21026   0.00000  Uiso   1.00
O50    O     0.16666   0.31547   0.28974   0.00000  Uiso   1.00
O51    O     0.09058   0.25000   0.28045   0.00000  Uiso   1.00
O52    O     0.24275   0.25000   0.21956   0.00000  Uiso   1.00
O53    O     0.09058   0.25000   0.20097   0.00000  Uiso   1.00
O54    O     0.24275   0.25001   0.29904   0.00000  Uiso   1.00
Zn55   Zn    0.16667   0.25001   0.30307   0.00000  Uiso   1.00
Zn56   Zn    0.16667   0.25000   0.19693   0.00000  Uiso   1.00
C57    C     0.23524   0.02804   0.33379   0.00000  Uiso   1.00
N58    N     0.25868   0.01122   0.36717   0.00000  Uiso   1.00
C59    C     0.23683   0.47183   0.18604   0.00000  Uiso   1.00
N60    N     0.26096   0.48859   0.15956   0.00000  Uiso   1.00
C61    C     0.50067   0.16383   0.25015   0.00000  Uiso   1.00
C62    C     0.50068   0.33616   0.25002   0.00000  Uiso   1.00
C63    C     0.47607   0.21530   0.04943   0.00000  Uiso   1.00
C64    C     0.54174   0.26896   0.45303   0.00000  Uiso   1.00
C65    C     0.47635   0.21602   0.09908   0.00000  Uiso   1.00
C66    C     0.54084   0.26872   0.40329   0.00000  Uiso   1.00
C67    C     0.52374   0.28395   0.10542   0.00000  Uiso   1.00
C68    C     0.45921   0.23128   0.39227   0.00000  Uiso   1.00
C69    C     0.52410   0.28467   0.05585   0.00000  Uiso   1.00
C70    C     0.45837   0.23107   0.44177   0.00000  Uiso   1.00
C71    C     0.50009   0.24999   0.02670   0.00000  Uiso   1.00
C72    C     0.50007   0.25001   0.47334   0.00000  Uiso   1.00
C73    C     0.40034   0.25000   0.23753   0.00000  Uiso   1.00
C74    C     0.59967   0.25002   0.26247   0.00000  Uiso   1.00
C75    C     0.34531   0.25004   0.23081   0.00000  Uiso   1.00
C76    C     0.65468   0.25004   0.26921   0.00000  Uiso   1.00
C77    C     0.53931   0.04900   0.29209   0.00000  Uiso   1.00
C78    C     0.54004   0.45092   0.21911   0.00000  Uiso   1.00
C79    C     0.53284   0.09503   0.29152   0.00000  Uiso   1.00
C80    C     0.53360   0.40488   0.21793   0.00000  Uiso   1.00
C81    C     0.50568   0.11597   0.25096   0.00000  Uiso   1.00
C82    C     0.50567   0.38400   0.25054   0.00000  Uiso   1.00
C83    C     0.48532   0.09130   0.21065   0.00000  Uiso   1.00
C84    C     0.48446   0.40873   0.28471   0.00000  Uiso   1.00
C85    C     0.49076   0.04538   0.21132   0.00000  Uiso   1.00
C86    C     0.48985   0.45466   0.28548   0.00000  Uiso   1.00
C87    C     0.51749   0.02418   0.25187   0.00000  Uiso   1.00
C88    C     0.51741   0.47580   0.25279   0.00000  Uiso   1.00
H89    H     0.65801   0.25006   0.19439   0.00000  Uiso   1.00
H90    H     0.34198   0.25003   0.30563   0.00000  Uiso   1.00
H91    H     0.54960   0.11458   0.32228   0.00000  Uiso   1.00
H92    H     0.55098   0.38526   0.19221   0.00000  Uiso   1.00
H93    H     0.46438   0.10743   0.17916   0.00000  Uiso   1.00
H94    H     0.46290   0.39263   0.31004   0.00000  Uiso   1.00
H95    H     0.47321   0.02618   0.18061   0.00000  Uiso   1.00
H96    H     0.47168   0.47390   0.31093   0.00000  Uiso   1.00
H97    H     0.45775   0.18732   0.02923   0.00000  Uiso   1.00
H98    H     0.57533   0.28335   0.47532   0.00000  Uiso   1.00
H99    H     0.45770   0.18917   0.11594   0.00000  Uiso   1.00
H100   H     0.57308   0.28345   0.38829   0.00000  Uiso   1.00
H101   H     0.54240   0.31076   0.12729   0.00000  Uiso   1.00
H102   H     0.42697   0.21648   0.36860   0.00000  Uiso   1.00
H103   H     0.54247   0.31264   0.04056   0.00000  Uiso   1.00
H104   H     0.42480   0.21666   0.45497   0.00000  Uiso   1.00
N105   N     0.50000   0.24999   0.12624   0.00000  Uiso   1.00
N106   N     0.50000   0.25001   0.37377   0.00000  Uiso   1.00
O107   O     0.50000   0.18454   0.28974   0.00000  Uiso   1.00
O108   O     0.50000   0.31547   0.21026   0.00000  Uiso   1.00
O109   O     0.50000   0.18453   0.21026   0.00000  Uiso   1.00
O110   O     0.50000   0.31547   0.28974   0.00000  Uiso   1.00
O111   O     0.42392   0.25000   0.28045   0.00000  Uiso   1.00
O112   O     0.57608   0.25000   0.21956   0.00000  Uiso   1.00
O113   O     0.42392   0.25000   0.20097   0.00000  Uiso   1.00
O114   O     0.57608   0.25001   0.29904   0.00000  Uiso   1.00
Zn115  Zn    0.50000   0.25001   0.30307   0.00000  Uiso   1.00
Zn116  Zn    0.50000   0.25000   0.19693   0.00000  Uiso   1.00
C117   C     0.56858   0.02804   0.33379   0.00000  Uiso   1.00
N118   N     0.59201   0.01122   0.36717   0.00000  Uiso   1.00
C119   C     0.57017   0.47183   0.18604   0.00000  Uiso   1.00
N120   N     0.59430   0.48859   0.15956   0.00000  Uiso   1.00
C121   C     0.83400   0.16383   0.25015   0.00000  Uiso   1.00
C122   C     0.83401   0.33616   0.25002   0.00000  Uiso   1.00
C123   C     0.80940   0.21530   0.04943   0.00000  Uiso   1.00
C124   C     0.87507   0.26896   0.45303   0.00000  Uiso   1.00
C125   C     0.80968   0.21602   0.09908   0.00000  Uiso   1.00
C126   C     0.87417   0.26872   0.40329   0.00000  Uiso   1.00
C127   C     0.85708   0.28395   0.10542   0.00000  Uiso   1.00
C128   C     0.79254   0.23128   0.39227   0.00000  Uiso   1.00
C129   C     0.85744   0.28467   0.05585   0.00000  Uiso   1.00
C130   C     0.79170   0.23107   0.44177   0.00000  Uiso   1.00
C131   C     0.83342   0.24999   0.02670   0.00000  Uiso   1.00
C132   C     0.83340   0.25001   0.47334   0.00000  Uiso   1.00
C133   C     0.73367   0.25000   0.23753   0.00000  Uiso   1.00
C134   C     0.93300   0.25002   0.26247   0.00000  Uiso   1.00
C135   C     0.67865   0.25004   0.23081   0.00000  Uiso   1.00
C136   C     0.98802   0.25004   0.26921   0.00000  Uiso   1.00
C137   C     0.87265   0.04900   0.29209   0.00000  Uiso   1.00
C138   C     0.87338   0.45092   0.21911   0.00000  Uiso   1.00
C139   C     0.86618   0.09503   0.29152   0.00000  Uiso   1.00
C140   C     0.86693   0.40488   0.21793   0.00000  Uiso   1.00
C141   C     0.83901   0.11597   0.25096   0.00000  Uiso   1.00
C142   C     0.83900   0.38400   0.25054   0.00000  Uiso   1.00
C143   C     0.81865   0.09130   0.21065   0.00000  Uiso   1.00
C144   C     0.81779   0.40873   0.28471   0.00000  Uiso   1.00
C145   C     0.82409   0.04538   0.21132   0.00000  Uiso   1.00
C146   C     0.82318   0.45466   0.28548   0.00000  Uiso   1.00
C147   C     0.85082   0.02418   0.25187   0.00000  Uiso   1.00
C148   C     0.85074   0.47580   0.25279   0.00000  Uiso   1.00
H149   H     0.99134   0.25006   0.19439   0.00000  Uiso   1.00
H150   H     0.67532   0.25003   0.30563   0.00000  Uiso   1.00
H151   H     0.88294   0.11458   0.32228   0.00000  Uiso   1.00
H152   H     0.88431   0.38526   0.19221   0.00000  Uiso   1.00
H153   H     0.79771   0.10743   0.17916   0.00000  Uiso   1.00
H154   H     0.79623   0.39263   0.31004   0.00000  Uiso   1.00
H155   H     0.80655   0.02618   0.18061   0.00000  Uiso   1.00
H156   H     0.80501   0.47390   0.31093   0.00000  Uiso   1.00
H157   H     0.79109   0.18732   0.02923   0.00000  Uiso   1.00
H158   H     0.90867   0.28335   0.47532   0.00000  Uiso   1.00
H159   H     0.79103   0.18917   0.11594   0.00000  Uiso   1.00
H160   H     0.90641   0.28345   0.38829   0.00000  Uiso   1.00
H161   H     0.87574   0.31076   0.12729   0.00000  Uiso   1.00
H162   H     0.76030   0.21648   0.36860   0.00000  Uiso   1.00
H163   H     0.87580   0.31264   0.04056   0.00000  Uiso   1.00
H164   H     0.75813   0.21666   0.45497   0.00000  Uiso   1.00
N165   N     0.83333   0.24999   0.12624   0.00000  Uiso   1.00
N166   N     0.83333   0.25001   0.37377   0.00000  Uiso   1.00
O167   O     0.83334   0.18454   0.28974   0.00000  Uiso   1.00
O168   O     0.83333   0.31547   0.21026   0.00000  Uiso   1.00
O169   O     0.83334   0.18453   0.21026   0.00000  Uiso   1.00
O170   O     0.83333   0.31547   0.28974   0.00000  Uiso   1.00
O171   O     0.75725   0.25000   0.28045   0.00000  Uiso   1.00
O172   O     0.90942   0.25000   0.21956   0.00000  Uiso   1.00
O173   O     0.75725   0.25000   0.20097   0.00000  Uiso   1.00
O174   O     0.90942   0.25001   0.29904   0.00000  Uiso   1.00
Zn175  Zn    0.83333   0.25001   0.30307   0.00000  Uiso   1.00
Zn176  Zn    0.83333   0.25000   0.19693   0.00000  Uiso   1.00
C177   C     0.90191   0.02804   0.33379   0.00000  Uiso   1.00
N178   N     0.92534   0.01122   0.36717   0.00000  Uiso   1.00
C179   C     0.90350   0.47183   0.18604   0.00000  Uiso   1.00
N180   N     0.92763   0.48859   0.15956   0.00000  Uiso   1.00
C181   C     0.16734   0.66383   0.25015   0.00000  Uiso   1.00
C182   C     0.16735   0.83616   0.25002   0.00000  Uiso   1.00
C183   C     0.14274   0.71530   0.04943   0.00000  Uiso   1.00
C184   C     0.20841   0.76896   0.45303   0.00000  Uiso   1.00
C185   C     0.14301   0.71602   0.09908   0.00000  Uiso   1.00
C186   C     0.20751   0.76872   0.40329   0.00000  Uiso   1.00
C187   C     0.19041   0.78395   0.10542   0.00000  Uiso   1.00
C188   C     0.12587   0.73128   0.39227   0.00000  Uiso   1.00
C189   C     0.19077   0.78467   0.05585   0.00000  Uiso   1.00
C190   C     0.12503   0.73107   0.44177   0.00000  Uiso   1.00
C191   C     0.16676   0.74999   0.02670   0.00000  Uiso   1.00
C192   C     0.16673   0.75001   0.47334   0.00000  Uiso   1.00
C193   C     0.06700   0.75000   0.23753   0.00000  Uiso   1.00
C194   C     0.26633   0.75002   0.26247   0.00000  Uiso   1.00
C195   C     0.01198   0.75004   0.23081   0.00000  Uiso   1.00
C196   C     0.32135   0.75004   0.26921   0.00000  Uiso   1.00
C197   C     0.20598   0.54900   0.29209   0.00000  Uiso   1.00
C198   C     0.20671   0.95092   0.21911   0.00000  Uiso   1.00
C199   C     0.19951   0.59503   0.29152   0.00000  Uiso   1.00
C200   C     0.20026   0.90488   0.21793   0.00000  Uiso   1.00
C201   C     0.17234   0.61597   0.25096   0.00000  Uiso   1.00
C202   C     0.17234   0.88400   0.25054   0.00000  Uiso   1.00
C203   C     0.15198   0.59130   0.21065   0.00000  Uiso   1.00
C204   C     0.15112   0.90873   0.28471   0.00000  Uiso   1.00
C205   C     0.15742   0.54538   0.21132   0.00000  Uiso   1.00
C206   C     0.15651   0.95466   0.28548   0.00000  Uiso   1.00
C207   C     0.18416   0.52418   0.25187   0.00000  Uiso   1.00
C208   C     0.18407   0.97580   0.25279   0.00000  Uiso   1.00
H209   H     0.32468   0.75006   0.19439   0.00000  Uiso   1.00
H210   H     0.00865   0.75003   0.30563   0.00000  Uiso   1.00
H211   H     0.21627   0.61458   0.32228   0.00000  Uiso   1.00
H212   H     0.21765   0.88526   0.19221   0.00000  Uiso   1.00
H213   H     0.13104   0.60743   0.17916   0.00000  Uiso   1.00
H214   H     0.12956   0.89263   0.31004   0.00000  Uiso   1.00
H215   H     0.13988   0.52618   0.18061   0.00000  Uiso   1.00
H216   H     0.13835   0.97390   0.31093   0.00000  Uiso   1.00
H217   H     0.12442   0.68732   0.02923   0.00000  Uiso   1.00
H218   H     0.24200   0.78335   0.47532   0.00000  Uiso   1.00
H219   H     0.12436   0.68917   0.11594   0.00000  Uiso   1.00
H220   H     0.23974   0.78345   0.38829   0.00000  Uiso   1.00
H221   H     0.20907   0.81076   0.12729   0.00000  Uiso   1.00
H222   H     0.09363   0.71648   0.36860   0.00000  Uiso   1.00
H223   H     0.20913   0.81264   0.04056   0.00000  Uiso   1.00
H224   H     0.09146   0.71666   0.45497   0.00000  Uiso   1.00
N225   N     0.16667   0.74999   0.12624   0.00000  Uiso   1.00
N226   N     0.16667   0.75001   0.37377   0.00000  Uiso   1.00
O227   O     0.16667   0.68454   0.28974   0.00000  Uiso   1.00
O228   O     0.16666   0.81547   0.21026   0.00000  Uiso   1.00
O229   O     0.16667   0.68453   0.21026   0.00000  Uiso   1.00
O230   O     0.16666   0.81547   0.28974   0.00000  Uiso   1.00
O231   O     0.09058   0.75000   0.28045   0.00000  Uiso   1.00
O232   O     0.24275   0.75000   0.21956   0.00000  Uiso   1.00
O233   O     0.09058   0.75000   0.20097   0.00000  Uiso   1.00
O234   O     0.24275   0.75001   0.29904   0.00000  Uiso   1.00
Zn235  Zn    0.16667   0.75001   0.30307   0.00000  Uiso   1.00
Zn236  Zn    0.16667   0.75000   0.19693   0.00000  Uiso   1.00
C237   C     0.23524   0.52804   0.33379   0.00000  Uiso   1.00
N238   N     0.25868   0.51122   0.36717   0.00000  Uiso   1.00
C239   C     0.23683   0.97183   0.18604   0.00000  Uiso   1.00
N240   N     0.26096   0.98859   0.15956   0.00000  Uiso   1.00
C241   C     0.50067   0.66383   0.25015   0.00000  Uiso   1.00
C242   C     0.50068   0.83616   0.25002   0.00000  Uiso   1.00
C243   C     0.47607   0.71530   0.04943   0.00000  Uiso   1.00
C244   C     0.54174   0.76896   0.45303   0.00000  Uiso   1.00
C245   C     0.47635   0.71602   0.09908   0.00000  Uiso   1.00
C246   C     0.54084   0.76872   0.40329   0.00000  Uiso   1.00
C247   C     0.52374   0.78395   0.10542   0.00000  Uiso   1.00
C248   C     0.45921   0.73128   0.39227   0.00000  Uiso   1.00
C249   C     0.52410   0.78467   0.05585   0.00000  Uiso   1.00
C250   C     0.45837   0.73107   0.44177   0.00000  Uiso   1.00
C251   C     0.50009   0.74999   0.02670   0.00000  Uiso   1.00
C252   C     0.50007   0.75001   0.47334   0.00000  Uiso   1.00
C253   C     0.40034   0.75000   0.23753   0.00000  Uiso   1.00
C254   C     0.59967   0.75002   0.26247   0.00000  Uiso   1.00
C255   C     0.34531   0.75004   0.23081   0.00000  Uiso   1.00
C256   C     0.65468   0.75004   0.26921   0.00000  Uiso   1.00
C257   C     0.53931   0.54900   0.29209   0.00000  Uiso   1.00
C258   C     0.54004   0.95092   0.21911   0.00000  Uiso   1.00
C259   C     0.53284   0.59503   0.29152   0.00000  Uiso   1.00
C260   C     0.53360   0.90488   0.21793   0.00000  Uiso   1.00
C261   C     0.50568   0.61597   0.25096   0.00000  Uiso   1.00
C262   C     0.50567   0.88400   0.25054   0.00000  Uiso   1.00
C263   C     0.48532   0.59130   0.21065   0.00000  Uiso   1.00
C264   C     0.48446   0.90873   0.28471   0.00000  Uiso   1.00
C265   C     0.49076   0.54538   0.21132   0.00000  Uiso   1.00
C266   C     0.48985   0.95466   0.28548   0.00000  Uiso   1.00
C267   C     0.51749   0.52418   0.25187   0.00000  Uiso   1.00
C268   C     0.51741   0.97580   0.25279   0.00000  Uiso   1.00
H269   H     0.65801   0.75006   0.19439   0.00000  Uiso   1.00
H270   H     0.34198   0.75003   0.30563   0.00000  Uiso   1.00
H271   H     0.54960   0.61458   0.32228   0.00000  Uiso   1.00
H272   H     0.55098   0.88526   0.19221   0.00000  Uiso   1.00
H273   H     0.46438   0.60743   0.17916   0.00000  Uiso   1.00
H274   H     0.46290   0.89263   0.31004   0.00000  Uiso   1.00
H275   H     0.47321   0.52618   0.18061   0.00000  Uiso   1.00
H276   H     0.47168   0.97390   0.31093   0.00000  Uiso   1.00
H277   H     0.45775   0.68732   0.02923   0.00000  Uiso   1.00
H278   H     0.57533   0.78335   0.47532   0.00000  Uiso   1.00
H279   H     0.45770   0.68917   0.11594   0.00000  Uiso   1.00
H280   H     0.57308   0.78345   0.38829   0.00000  Uiso   1.00
H281   H     0.54240   0.81076   0.12729   0.00000  Uiso   1.00
H282   H     0.42697   0.71648   0.36860   0.00000  Uiso   1.00
H283   H     0.54247   0.81264   0.04056   0.00000  Uiso   1.00
H284   H     0.42480   0.71666   0.45497   0.00000  Uiso   1.00
N285   N     0.50000   0.74999   0.12624   0.00000  Uiso   1.00
N286   N     0.50000   0.75001   0.37377   0.00000  Uiso   1.00
O287   O     0.50000   0.68454   0.28974   0.00000  Uiso   1.00
O288   O     0.50000   0.81547   0.21026   0.00000  Uiso   1.00
O289   O     0.50000   0.68453   0.21026   0.00000  Uiso   1.00
O290   O     0.50000   0.81547   0.28974   0.00000  Uiso   1.00
O291   O     0.42392   0.75000   0.28045   0.00000  Uiso   1.00
O292   O     0.57608   0.75000   0.21956   0.00000  Uiso   1.00
O293   O     0.42392   0.75000   0.20097   0.00000  Uiso   1.00
O294   O     0.57608   0.75001   0.29904   0.00000  Uiso   1.00
Zn295  Zn    0.50000   0.75001   0.30307   0.00000  Uiso   1.00
Zn296  Zn    0.50000   0.75000   0.19693   0.00000  Uiso   1.00
C297   C     0.56858   0.52804   0.33379   0.00000  Uiso   1.00
N298   N     0.59201   0.51122   0.36717   0.00000  Uiso   1.00
C299   C     0.57017   0.97183   0.18604   0.00000  Uiso   1.00
N300   N     0.59430   0.98859   0.15956   0.00000  Uiso   1.00
C301   C     0.83400   0.66383   0.25015   0.00000  Uiso   1.00
C302   C     0.83401   0.83616   0.25002   0.00000  Uiso   1.00
C303   C     0.80940   0.71530   0.04943   0.00000  Uiso   1.00
C304   C     0.87507   0.76896   0.45303   0.00000  Uiso   1.00
C305   C     0.80968   0.71602   0.09908   0.00000  Uiso   1.00
C306   C     0.87417   0.76872   0.40329   0.00000  Uiso   1.00
C307   C     0.85708   0.78395   0.10542   0.00000  Uiso   1.00
C308   C     0.79254   0.73128   0.39227   0.00000  Uiso   1.00
C309   C     0.85744   0.78467   0.05585   0.00000  Uiso   1.00
C310   C     0.79170   0.73107   0.44177   0.00000  Uiso   1.00
C311   C     0.83342   0.74999   0.02670   0.00000  Uiso   1.00
C312   C     0.83340   0.75001   0.47334   0.00000  Uiso   1.00
C313   C     0.73367   0.75000   0.23753   0.00000  Uiso   1.00
C314   C     0.93300   0.75002   0.26247   0.00000  Uiso   1.00
C315   C     0.67865   0.75004   0.23081   0.00000  Uiso   1.00
C316   C     0.98802   0.75004   0.26921   0.00000  Uiso   1.00
C317   C     0.87265   0.54900   0.29209   0.00000  Uiso   1.00
C318   C     0.87338   0.95092   0.21911   0.00000  Uiso   1.00
C319   C     0.86618   0.59503   0.29152   0.00000  Uiso   1.00
C320   C     0.86693   0.90488   0.21793   0.00000  Uiso   1.00
C321   C     0.83901   0.61597   0.25096   0.00000  Uiso   1.00
C322   C     0.83900   0.88400   0.25054   0.00000  Uiso   1.00
C323   C     0.81865   0.59130   0.21065   0.00000  Uiso   1.00
C324   C     0.81779   0.90873   0.28471   0.00000  Uiso   1.00
C325   C     0.82409   0.54538   0.21132   0.00000  Uiso   1.00
C326   C     0.82318   0.95466   0.28548   0.00000  Uiso   1.00
C327   C     0.85082   0.52418   0.25187   0.00000  Uiso   1.00
C328   C     0.85074   0.97580   0.25279   0.00000  Uiso   1.00
H329   H     0.99134   0.75006   0.19439   0.00000  Uiso   1.00
H330   H     0.67532   0.75003   0.30563   0.00000  Uiso   1.00
H331   H     0.88294   0.61458   0.32228   0.00000  Uiso   1.00
H332   H     0.88431   0.88526   0.19221   0.00000  Uiso   1.00
H333   H     0.79771   0.60743   0.17916   0.00000  Uiso   1.00
H334   H     0.79623   0.89263   0.31004   0.00000  Uiso   1.00
H335   H     0.80655   0.52618   0.18061   0.00000  Uiso   1.00
H336   H     0.80501   0.97390   0.31093   0.00000  Uiso   1.00
H337   H     0.79109   0.68732   0.02923   0.00000  Uiso   1.00
H338   H     0.90867   0.78335   0.47532   0.00000  Uiso   1.00
H339   H     0.79103   0.68917   0.11594   0.00000  Uiso   1.00
H340   H     0.90641   0.78345   0.38829   0.00000  Uiso   1.00
H341   H     0.87574   0.81076   0.12729   0.00000  Uiso   1.00
H342   H     0.76030   0.71648   0.36860   0.00000  Uiso   1.00
H343   H     0.87580   0.81264   0.04056   0.00000  Uiso   1.00
H344   H     0.75813   0.71666   0.45497   0.00000  Uiso   1.00
N345   N     0.83333   0.74999   0.12624   0.00000  Uiso   1.00
N346   N     0.83333   0.75001   0.37377   0.00000  Uiso   1.00
O347   O     0.83334   0.68454   0.28974   0.00000  Uiso   1.00
O348   O     0.83333   0.81547   0.21026   0.00000  Uiso   1.00
O349   O     0.83334   0.68453   0.21026   0.00000  Uiso   1.00
O350   O     0.83333   0.81547   0.28974   0.00000  Uiso   1.00
O351   O     0.75725   0.75000   0.28045   0.00000  Uiso   1.00
O352   O     0.90942   0.75000   0.21956   0.00000  Uiso   1.00
O353   O     0.75725   0.75000   0.20097   0.00000  Uiso   1.00
O354   O     0.90942   0.75001   0.29904   0.00000  Uiso   1.00
Zn355  Zn    0.83333   0.75001   0.30307   0.00000  Uiso   1.00
Zn356  Zn    0.83333   0.75000   0.19693   0.00000  Uiso   1.00
C357   C     0.90191   0.52804   0.33379   0.00000  Uiso   1.00
N358   N     0.92534   0.51122   0.36717   0.00000  Uiso   1.00
C359   C     0.90350   0.97183   0.18604   0.00000  Uiso   1.00
N360   N     0.92763   0.98859   0.15956   0.00000  Uiso   1.00
C361   C     0.16734   0.16383   0.75015   0.00000  Uiso   1.00
C362   C     0.16735   0.33616   0.75002   0.00000  Uiso   1.00
C363   C     0.14274   0.21530   0.54943   0.00000  Uiso   1.00
C364   C     0.20841   0.26896   0.95303   0.00000  Uiso   1.00
C365   C     0.14301   0.21602   0.59908   0.00000  Uiso   1.00
C366   C     0.20751   0.26872   0.90329   0.00000  Uiso   1.00
C367   C     0.19041   0.28395   0.60542   0.00000  Uiso   1.00
C368   C     0.12587   0.23128   0.89227   0.00000  Uiso   1.00
C369   C     0.19077   0.28467   0.55585   0.00000  Uiso   1.00
C370   C     0.12503   0.23107   0.94177   0.00000  Uiso   1.00
C371   C     0.16676   0.24999   0.52670   0.00000  Uiso   1.00
C372   C     0.16673   0.25001   0.97334   0.00000  Uiso   1.00
C373   C     0.06700   0.25000   0.73753   0.00000  Uiso   1.00
C374   C     0.26633   0.25002   0.76247   0.00000  Uiso   1.00
C375   C     0.01198   0.25004   0.73081   0.00000  Uiso   1.00
C376   C     0.32135   0.25004   0.76921   0.00000  Uiso   1.00
C377   C     0.20598   0.04900   0.79209   0.00000  Uiso   1.00
C378   C     0.20671   0.45092   0.71911   0.00000  Uiso   1.00
C379   C     0.19951   0.09503   0.79152   0.00000  Uiso   1.00
C380   C     0.20026   0.40488   0.71793   0.00000  Uiso   1.00
C381   C     0.17234   0.11597   0.75096   0.00000  Uiso   1.00
C382   C     0.17234   0.38400   0.75054   0.00000  Uiso   1.00
C383   C     0.15198   0.09130   0.71065   0.00000  Uiso   1.00
C384   C     0.15112   0.40873   0.78471   0.00000  Uiso   1.00
C385   C     0.15742   0.04538   0.71132   0.00000  Uiso   1.00
C386   C     0.15651   0.45466   0.78548   0.00000  Uiso   1.00
C387   C     0.18416   0.02418   0.75187   0.00000  Uiso   1.00
C388   C     0.18407   0.47580   0.75279   0.00000  Uiso   1.00
H389   H     0.32468   0.25006   0.69439   0.00000  Uiso   1.00
H390   H     0.00865   0.25003   0.80563   0.00000  Uiso   1.00
H391   H     0.21627   0.11458   0.82228   0.00000  Uiso   1.00
H392   H     0.21765   0.38526   0.69221   0.00000  Uiso   1.00
H393   H     0.13104   0.10743   0.67916   0.00000  Uiso   1.00
H394   H     0.12956   0.39263   0.81004   0.00000  Uiso   1.00
H395   H     0.13988   0.02618   0.68061   0.00000  Uiso   1.00
H396   H     0.13835   0.47390   0.81093   0.00000  Uiso   1.00
H397   H     0.12442   0.18732   0.52923   0.00000  Uiso   1.00
H398   H     0.24200   0.28335   0.97532   0.00000  Uiso   1.00
H399   H     0.12436   0.18917   0.61594   0.00000  Uiso   1.00
H400   H     0.23974   0.28345   0.88829   0.00000  Uiso   1.00
H401   H     0.20907   0.31076   0.62729   0.00000  Uiso   1.00
H402   H     0.09363   0.21648   0.86860   0.00000  Uiso   1.00
H403   H     0.20913   0.31264   0.54056   0.00000  Uiso   1.00
H404   H     0.09146   0.21666   0.95497   0.00000  Uiso   1.00
N405   N     0.16667   0.24999   0.62624   0.00000  Uiso   1.00
N406   N     0.16667   0.25001   0.87377   0.00000  Uiso   1.00
O407   O     0.16667   0.18454   0.78974   0.00000  Uiso   1.00
O408   O     0.16666   0.31547   0.71026   0.00000  Uiso   1.00
O409   O     0.16667   0.18453   0.71026   0.00000  Uiso   1.00
O410   O     0.16666   0.31547   0.78974   0.00000  Uiso   1.00
O411   O     0.09058   0.25000   0.78045   0.00000  Uiso   1.00
O412   O     0.24275   0.25000   0.71956   0.00000  Uiso   1.00
O413   O     0.09058   0.25000   0.70097   0.00000  Uiso   1.00
O414   O     0.24275   0.25001   0.79904   0.00000  Uiso   1.00
Zn415  Zn    0.16667   0.25001   0.80307   0.00000  Uiso   1.00
Zn416  Zn    0.16667   0.25000   0.69693   0.00000  Uiso   1.00
C417   C     0.23524   0.02804   0.83379   0.00000  Uiso   1.00
N418   N     0.25868   0.01122   0.86717   0.00000  Uiso   1.00
C419   C     0.23683   0.47183   0.68604   0.00000  Uiso   1.00
N420   N     0.26096   0.48859   0.65956   0.00000  Uiso   1.00
C421   C     0.50067   0.16383   0.75015   0.00000  Uiso   1.00
C422   C     0.50068   0.33616   0.75002   0.00000  Uiso   1.00
C423   C     0.47607   0.21530   0.54943   0.00000  Uiso   1.00
C424   C     0.54174   0.26896   0.95303   0.00000  Uiso   1.00
C425   C     0.47635   0.21602   0.59908   0.00000  Uiso   1.00
C426   C     0.54084   0.26872   0.90329   0.00000  Uiso   1.00
C427   C     0.52374   0.28395   0.60542   0.00000  Uiso   1.00
C428   C     0.45921   0.23128   0.89227   0.00000  Uiso   1.00
C429   C     0.52410   0.28467   0.55585   0.00000  Uiso   1.00
C430   C     0.45837   0.23107   0.94177   0.00000  Uiso   1.00
C431   C     0.50009   0.24999   0.52670   0.00000  Uiso   1.00
C432   C     0.50007   0.25001   0.97334   0.00000  Uiso   1.00
C433   C     0.40034   0.25000   0.73753   0.00000  Uiso   1.00
C434   C     0.59967   0.25002   0.76247   0.00000  Uiso   1.00
C435   C     0.34531   0.25004   0.73081   0.00000  Uiso   1.00
C436   C     0.65468   0.25004   0.76921   0.00000  Uiso   1.00
C437   C     0.53931   0.04900   0.79209   0.00000  Uiso   1.00
C438   C     0.54004   0.45092   0.71911   0.00000  Uiso   1.00
C439   C     0.53284   0.09503   0.79152   0.00000  Uiso   1.00
C440   C     0.53360   0.40488   0.71793   0.00000  Uiso   1.00
C441   C     0.50568   0.11597   0.75096   0.00000  Uiso   1.00
C442   C     0.50567   0.38400   0.75054   0.00000  Uiso   1.00
C443   C     0.48532   0.09130   0.71065   0.00000  Uiso   1.00
C444   C     0.48446   0.40873   0.78471   0.00000  Uiso   1.00
C445   C     0.49076   0.04538   0.71132   0.00000  Uiso   1.00
C446   C     0.48985   0.45466   0.78548   0.00000  Uiso   1.00
C447   C     0.51749   0.02418   0.75187   0.00000  Uiso   1.00
C448   C     0.51741   0.47580   0.75279   0.00000  Uiso   1.00
H449   H     0.65801   0.25006   0.69439   0.00000  Uiso   1.00
H450   H     0.34198   0.25003   0.80563   0.00000  Uiso   1.00
H451   H     0.54960   0.11458   0.82228   0.00000  Uiso   1.00
H452   H     0.55098   0.38526   0.69221   0.00000  Uiso   1.00
H453   H     0.46438   0.10743   0.67916   0.00000  Uiso   1.00
H454   H     0.46290   0.39263   0.81004   0.00000  Uiso   1.00
H455   H     0.47321   0.02618   0.68061   0.00000  Uiso   1.00
H456   H     0.47168   0.47390   0.81093   0.00000  Uiso   1.00
H457   H     0.45775   0.18732   0.52923   0.00000  Uiso   1.00
H458   H     0.57533   0.28335   0.97532   0.00000  Uiso   1.00
H459   H     0.45770   0.18917   0.61594   0.00000  Uiso   1.00
H460   H     0.57308   0.28345   0.88829   0.00000  Uiso   1.00
H461   H     0.54240   0.31076   0.62729   0.00000  Uiso   1.00
H462   H     0.42697   0.21648   0.86860   0.00000  Uiso   1.00
H463   H     0.54247   0.31264   0.54056   0.00000  Uiso   1.00
H464   H     0.42480   0.21666   0.95497   0.00000  Uiso   1.00
N465   N     0.50000   0.24999   0.62624   0.00000  Uiso   1.00
N466   N     0.50000   0.25001   0.87377   0.00000  Uiso   1.00
O467   O     0.50000   0.18454   0.78974   0.00000  Uiso   1.00
O468   O     0.50000   0.31547   0.71026   0.00000  Uiso   1.00
O469   O     0.50000   0.18453   0.71026   0.00000  Uiso   1.00
O470   O     0.50000   0.31547   0.78974   0.00000  Uiso   1.00
O471   O     0.42392   0.25000   0.78045   0.00000  Uiso   1.00
O472   O     0.57608   0.25000   0.71956   0.00000  Uiso   1.00
O473   O     0.42392   0.25000   0.70097   0.00000  Uiso   1.00
O474   O     0.57608   0.25001   0.79904   0.00000  Uiso   1.00
Zn475  Zn    0.50000   0.25001   0.80307   0.00000  Uiso   1.00
Zn476  Zn    0.50000   0.25000   0.69693   0.00000  Uiso   1.00
C477   C     0.56858   0.02804   0.83379   0.00000  Uiso   1.00
N478   N     0.59201   0.01122   0.86717   0.00000  Uiso   1.00
C479   C     0.57017   0.47183   0.68604   0.00000  Uiso   1.00
N480   N     0.59430   0.48859   0.65956   0.00000  Uiso   1.00
C481   C     0.83400   0.16383   0.75015   0.00000  Uiso   1.00
C482   C     0.83401   0.33616   0.75002   0.00000  Uiso   1.00
C483   C     0.80940   0.21530   0.54943   0.00000  Uiso   1.00
C484   C     0.87507   0.26896   0.95303   0.00000  Uiso   1.00
C485   C     0.80968   0.21602   0.59908   0.00000  Uiso   1.00
C486   C     0.87417   0.26872   0.90329   0.00000  Uiso   1.00
C487   C     0.85708   0.28395   0.60542   0.00000  Uiso   1.00
C488   C     0.79254   0.23128   0.89227   0.00000  Uiso   1.00
C489   C     0.85744   0.28467   0.55585   0.00000  Uiso   1.00
C490   C     0.79170   0.23107   0.94177   0.00000  Uiso   1.00
C491   C     0.83342   0.24999   0.52670   0.00000  Uiso   1.00
C492   C     0.83340   0.25001   0.97334   0.00000  Uiso   1.00
C493   C     0.73367   0.25000   0.73753   0.00000  Uiso   1.00
C494   C     0.93300   0.25002   0.76247   0.00000  Uiso   1.00
C495   C     0.67865   0.25004   0.73081   0.00000  Uiso   1.00
C496   C     0.98802   0.25004   0.76921   0.00000  Uiso   1.00
C497   C     0.87265   0.04900   0.79209   0.00000  Uiso   1.00
C498   C     0.87338   0.45092   0.71911   0.00000  Uiso   1.00
C499   C     0.86618   0.09503   0.79152   0.00000  Uiso   1.00
C500   C     0.86693   0.40488   0.71793   0.00000  Uiso   1.00
C501   C     0.83901   0.11597   0.75096   0.00000  Uiso   1.00
C502   C     0.83900   0.38400   0.75054   0.00000  Uiso   1.00
C503   C     0.81865   0.09130   0.71065   0.00000  Uiso   1.00
C504   C     0.81779   0.40873   0.78471   0.00000  Uiso   1.00
C505   C     0.82409   0.04538   0.71132   0.00000  Uiso   1.00
C506   C     0.82318   0.45466   0.78548   0.00000  Uiso   1.00
C507   C     0.85082   0.02418   0.75187   0.00000  Uiso   1.00
C508   C     0.85074   0.47580   0.75279   0.00000  Uiso   1.00
H509   H     0.99134   0.25006   0.69439   0.00000  Uiso   1.00
H510   H     0.67532   0.25003   0.80563   0.00000  Uiso   1.00
H511   H     0.88294   0.11458   0.82228   0.00000  Uiso   1.00
H512   H     0.88431   0.38526   0.69221   0.00000  Uiso   1.00
H513   H     0.79771   0.10743   0.67916   0.00000  Uiso   1.00
H514   H     0.79623   0.39263   0.81004   0.00000  Uiso   1.00
H515   H     0.80655   0.02618   0.68061   0.00000  Uiso   1.00
H516   H     0.80501   0.47390   0.81093   0.00000  Uiso   1.00
H517   H     0.79109   0.18732   0.52923   0.00000  Uiso   1.00
H518   H     0.90867   0.28335   0.97532   0.00000  Uiso   1.00
H519   H     0.79103   0.18917   0.61594   0.00000  Uiso   1.00
H520   H     0.90641   0.28345   0.88829   0.00000  Uiso   1.00
H521   H     0.87574   0.31076   0.62729   0.00000  Uiso   1.00
H522   H     0.76030   0.21648   0.86860   0.00000  Uiso   1.00
H523   H     0.87580   0.31264   0.54056   0.00000  Uiso   1.00
H524   H     0.75813   0.21666   0.95497   0.00000  Uiso   1.00
N525   N     0.83333   0.24999   0.62624   0.00000  Uiso   1.00
N526   N     0.83333   0.25001   0.87377   0.00000  Uiso   1.00
O527   O     0.83334   0.18454   0.78974   0.00000  Uiso   1.00
O528   O     0.83333   0.31547   0.71026   0.00000  Uiso   1.00
O529   O     0.83334   0.18453   0.71026   0.00000  Uiso   1.00
O530   O     0.83333   0.31547   0.78974   0.00000  Uiso   1.00
O531   O     0.75725   0.25000   0.78045   0.00000  Uiso   1.00
O532   O     0.90942   0.25000   0.71956   0.00000  Uiso   1.00
O533   O     0.75725   0.25000   0.70097   0.00000  Uiso   1.00
O534   O     0.90942   0.25001   0.79904   0.00000  Uiso   1.00
Zn535  Zn    0.83333   0.25001   0.80307   0.00000  Uiso   1.00
Zn536  Zn    0.83333   0.25000   0.69693   0.00000  Uiso   1.00
C537   C     0.90191   0.02804   0.83379   0.00000  Uiso   1.00
N538   N     0.92534   0.01122   0.86717   0.00000  Uiso   1.00
C539   C     0.90350   0.47183   0.68604   0.00000  Uiso   1.00
N540   N     0.92763   0.48859   0.65956   0.00000  Uiso   1.00
C541   C     0.16734   0.66383   0.75015   0.00000  Uiso   1.00
C542   C     0.16735   0.83616   0.75002   0.00000  Uiso   1.00
C543   C     0.14274   0.71530   0.54943   0.00000  Uiso   1.00
C544   C     0.20841   0.76896   0.95303   0.00000  Uiso   1.00
C545   C     0.14301   0.71602   0.59908   0.00000  Uiso   1.00
C546   C     0.20751   0.76872   0.90329   0.00000  Uiso   1.00
C547   C     0.19041   0.78395   0.60542   0.00000  Uiso   1.00
C548   C     0.12587   0.73128   0.89227   0.00000  Uiso   1.00
C549   C     0.19077   0.78467   0.55585   0.00000  Uiso   1.00
C550   C     0.12503   0.73107   0.94177   0.00000  Uiso   1.00
C551   C     0.16676   0.74999   0.52670   0.00000  Uiso   1.00
C552   C     0.16673   0.75001   0.97334   0.00000  Uiso   1.00
C553   C     0.06700   0.75000   0.73753   0.00000  Uiso   1.00
C554   C     0.26633   0.75002   0.76247   0.00000  Uiso   1.00
C555   C     0.01198   0.75004   0.73081   0.00000  Uiso   1.00
C556   C     0.32135   0.75004   0.76921   0.00000  Uiso   1.00
C557   C     0.20598   0.54900   0.79209   0.00000  Uiso   1.00
C558   C     0.20671   0.95092   0.71911   0.00000  Uiso   1.00
C559   C     0.19951   0.59503   0.79152   0.00000  Uiso   1.00
C560   C     0.20026   0.90488   0.71793   0.00000  Uiso   1.00
C561   C     0.17234   0.61597   0.75096   0.00000  Uiso   1.00
C562   C     0.17234   0.88400   0.75054   0.00000  Uiso   1.00
C563   C     0.15198   0.59130   0.71065   0.00000  Uiso   1.00
C564   C     0.15112   0.90873   0.78471   0.00000  Uiso   1.00
C565   C     0.15742   0.54538   0.71132   0.00000  Uiso   1.00
C566   C     0.15651   0.95466   0.78548   0.00000  Uiso   1.00
C567   C     0.18416   0.52418   0.75187   0.00000  Uiso   1.00
C568   C     0.18407   0.97580   0.75279   0.00000  Uiso   1.00
H569   H     0.32468   0.75006   0.69439   0.00000  Uiso   1.00
H570   H     0.00865   0.75003   0.80563   0.00000  Uiso   1.00
H571   H     0.21627   0.61458   0.82228   0.00000  Uiso   1.00
H572   H     0.21765   0.88526   0.69221   0.00000  Uiso   1.00
H573   H     0.13104   0.60743   0.67916   0.00000  Uiso   1.00
H574   H     0.12956   0.89263   0.81004   0.00000  Uiso   1.00
H575   H     0.13988   0.52618   0.68061   0.00000  Uiso   1.00
H576   H     0.13835   0.97390   0.81093   0.00000  Uiso   1.00
H577   H     0.12442   0.68732   0.52923   0.00000  Uiso   1.00
H578   H     0.24200   0.78335   0.97532   0.00000  Uiso   1.00
H579   H     0.12436   0.68917   0.61594   0.00000  Uiso   1.00
H580   H     0.23974   0.78345   0.88829   0.00000  Uiso   1.00
H581   H     0.20907   0.81076   0.62729   0.00000  Uiso   1.00
H582   H     0.09363   0.71648   0.86860   0.00000  Uiso   1.00
H583   H     0.20913   0.81264   0.54056   0.00000  Uiso   1.00
H584   H     0.09146   0.71666   0.95497   0.00000  Uiso   1.00
N585   N     0.16667   0.74999   0.62624   0.00000  Uiso   1.00
N586   N     0.16667   0.75001   0.87377   0.00000  Uiso   1.00
O587   O     0.16667   0.68454   0.78974   0.00000  Uiso   1.00
O588   O     0.16666   0.81547   0.71026   0.00000  Uiso   1.00
O589   O     0.16667   0.68453   0.71026   0.00000  Uiso   1.00
O590   O     0.16666   0.81547   0.78974   0.00000  Uiso   1.00
O591   O     0.09058   0.75000   0.78045   0.00000  Uiso   1.00
O592   O     0.24275   0.75000   0.71956   0.00000  Uiso   1.00
O593   O     0.09058   0.75000   0.70097   0.00000  Uiso   1.00
O594   O     0.24275   0.75001   0.79904   0.00000  Uiso   1.00
Zn595  Zn    0.16667   0.75001   0.80307   0.00000  Uiso   1.00
Zn596  Zn    0.16667   0.75000   0.69693   0.00000  Uiso   1.00
C597   C     0.23524   0.52804   0.83379   0.00000  Uiso   1.00
N598   N     0.25868   0.51122   0.86717   0.00000  Uiso   1.00
C599   C     0.23683   0.97183   0.68604   0.00000  Uiso   1.00
N600   N     0.26096   0.98859   0.65956   0.00000  Uiso   1.00
C601   C     0.50067   0.66383   0.75015   0.00000  Uiso   1.00
C602   C     0.50068   0.83616   0.75002   0.00000  Uiso   1.00
C603   C     0.47607   0.71530   0.54943   0.00000  Uiso   1.00
C604   C     0.54174   0.76896   0.95303   0.00000  Uiso   1.00
C605   C     0.47635   0.71602   0.59908   0.00000  Uiso   1.00
C606   C     0.54084   0.76872   0.90329   0.00000  Uiso   1.00
C607   C     0.52374   0.78395   0.60542   0.00000  Uiso   1.00
C608   C     0.45921   0.73128   0.89227   0.00000  Uiso   1.00
C609   C     0.52410   0.78467   0.55585   0.00000  Uiso   1.00
C610   C     0.45837   0.73107   0.94177   0.00000  Uiso   1.00
C611   C     0.50009   0.74999   0.52670   0.00000  Uiso   1.00
C612   C     0.50007   0.75001   0.97334   0.00000  Uiso   1.00
C613   C     0.40034   0.75000   0.73753   0.00000  Uiso   1.00
C614   C     0.59967   0.75002   0.76247   0.00000  Uiso   1.00
C615   C     0.34531   0.75004   0.73081   0.00000  Uiso   1.00
C616   C     0.65468   0.75004   0.76921   0.00000  Uiso   1.00
C617   C     0.53931   0.54900   0.79209   0.00000  Uiso   1.00
C618   C     0.54004   0.95092   0.71911   0.00000  Uiso   1.00
C619   C     0.53284   0.59503   0.79152   0.00000  Uiso   1.00
C620   C     0.53360   0.90488   0.71793   0.00000  Uiso   1.00
C621   C     0.50568   0.61597   0.75096   0.00000  Uiso   1.00
C622   C     0.50567   0.88400   0.75054   0.00000  Uiso   1.00
C623   C     0.48532   0.59130   0.71065   0.00000  Uiso   1.00
C624   C     0.48446   0.90873   0.78471   0.00000  Uiso   1.00
C625   C     0.49076   0.54538   0.71132   0.00000  Uiso   1.00
C626   C     0.48985   0.95466   0.78548   0.00000  Uiso   1.00
C627   C     0.51749   0.52418   0.75187   0.00000  Uiso   1.00
C628   C     0.51741   0.97580   0.75279   0.00000  Uiso   1.00
H629   H     0.65801   0.75006   0.69439   0.00000  Uiso   1.00
H630   H     0.34198   0.75003   0.80563   0.00000  Uiso   1.00
H631   H     0.54960   0.61458   0.82228   0.00000  Uiso   1.00
H632   H     0.55098   0.88526   0.69221   0.00000  Uiso   1.00
H633   H     0.46438   0.60743   0.67916   0.00000  Uiso   1.00
H634   H     0.46290   0.89263   0.81004   0.00000  Uiso   1.00
H635   H     0.47321   0.52618   0.68061   0.00000  Uiso   1.00
H636   H     0.47168   0.97390   0.81093   0.00000  Uiso   1.00
H637   H     0.45775   0.68732   0.52923   0.00000  Uiso   1.00
H638   H     0.57533   0.78335   0.97532   0.00000  Uiso   1.00
H639   H     0.45770   0.68917   0.61594   0.00000  Uiso   1.00
H640   H     0.57308   0.78345   0.88829   0.00000  Uiso   1.00
H641   H     0.54240   0.81076   0.62729   0.00000  Uiso   1.00
H642   H     0.42697   0.71648   0.86860   0.00000  Uiso   1.00
H643   H     0.54247   0.81264   0.54056   0.00000  Uiso   1.00
H644   H     0.42480   0.71666   0.95497   0.00000  Uiso   1.00
N645   N     0.50000   0.74999   0.62624   0.00000  Uiso   1.00
N646   N     0.50000   0.75001   0.87377   0.00000  Uiso   1.00
O647   O     0.50000   0.68454   0.78974   0.00000  Uiso   1.00
O648   O     0.50000   0.81547   0.71026   0.00000  Uiso   1.00
O649   O     0.50000   0.68453   0.71026   0.00000  Uiso   1.00
O650   O     0.50000   0.81547   0.78974   0.00000  Uiso   1.00
O651   O     0.42392   0.75000   0.78045   0.00000  Uiso   1.00
O652   O     0.57608   0.75000   0.71956   0.00000  Uiso   1.00
O653   O     0.42392   0.75000   0.70097   0.00000  Uiso   1.00
O654   O     0.57608   0.75001   0.79904   0.00000  Uiso   1.00
Zn655  Zn    0.50000   0.75001   0.80307   0.00000  Uiso   1.00
Zn656  Zn    0.50000   0.75000   0.69693   0.00000  Uiso   1.00
C657   C     0.56858   0.52804   0.83379   0.00000  Uiso   1.00
N658   N     0.59201   0.51122   0.86717   0.00000  Uiso   1.00
C659   C     0.57017   0.97183   0.68604   0.00000  Uiso   1.00
N660   N     0.59430   0.98859   0.65956   0.00000  Uiso   1.00
C661   C     0.83400   0.66383   0.75015   0.00000  Uiso   1.00
C662   C     0.83401   0.83616   0.75002   0.00000  Uiso   1.00
C663   C     0.80940   0.71530   0.54943   0.00000  Uiso   1.00
C664   C     0.87507   0.76896   0.95303   0.00000  Uiso   1.00
C665   C     0.80968   0.71602   0.59908   0.00000  Uiso   1.00
C666   C     0.87417   0.76872   0.90329   0.00000  Uiso   1.00
C667   C     0.85708   0.78395   0.60542   0.00000  Uiso   1.00
C668   C     0.79254   0.73128   0.89227   0.00000  Uiso   1.00
C669   C     0.85744   0.78467   0.55585   0.00000  Uiso   1.00
C670   C     0.79170   0.73107   0.94177   0.00000  Uiso   1.00
C671   C     0.83342   0.74999   0.52670   0.00000  Uiso   1.00
C672   C     0.83340   0.75001   0.97334   0.00000  Uiso   1.00
C673   C     0.73367   0.75000   0.73753   0.00000  Uiso   1.00
C674   C     0.93300   0.75002   0.76247   0.00000  Uiso   1.00
C675   C     0.67865   0.75004   0.73081   0.00000  Uiso   1.00
C676   C     0.98802   0.75004   0.76921   0.00000  Uiso   1.00
C677   C     0.87265   0.54900   0.79209   0.00000  Uiso   1.00
C678   C     0.87338   0.95092   0.71911   0.00000  Uiso   1.00
C679   C     0.86618   0.59503   0.79152   0.00000  Uiso   1.00
C680   C     0.86693   0.90488   0.71793   0.00000  Uiso   1.00
C681   C     0.83901   0.61597   0.75096   0.00000  Uiso   1.00
C682   C     0.83900   0.88400   0.75054   0.00000  Uiso   1.00
C683   C     0.81865   0.59130   0.71065   0.00000  Uiso   1.00
C684   C     0.81779   0.90873   0.78471   0.00000  Uiso   1.00
C685   C     0.82409   0.54538   0.71132   0.00000  Uiso   1.00
C686   C     0.82318   0.95466   0.78548   0.00000  Uiso   1.00
C687   C     0.85082   0.52418   0.75187   0.00000  Uiso   1.00
C688   C     0.85074   0.97580   0.75279   0.00000  Uiso   1.00
H689   H     0.99134   0.75006   0.69439   0.00000  Uiso   1.00
H690   H     0.67532   0.75003   0.80563   0.00000  Uiso   1.00
H691   H     0.88294   0.61458   0.82228   0.00000  Uiso   1.00
H692   H     0.88431   0.88526   0.69221   0.00000  Uiso   1.00
H693   H     0.79771   0.60743   0.67916   0.00000  Uiso   1.00
H694   H     0.79623   0.89263   0.81004   0.00000  Uiso   1.00
H695   H     0.80655   0.52618   0.68061   0.00000  Uiso   1.00
H696   H     0.80501   0.97390   0.81093   0.00000  Uiso   1.00
H697   H     0.79109   0.68732   0.52923   0.00000  Uiso   1.00
H698   H     0.90867   0.78335   0.97532   0.00000  Uiso   1.00
H699   H     0.79103   0.68917   0.61594   0.00000  Uiso   1.00
H700   H     0.90641   0.78345   0.88829   0.00000  Uiso   1.00
H701   H     0.87574   0.81076   0.62729   0.00000  Uiso   1.00
H702   H     0.76030   0.71648   0.86860   0.00000  Uiso   1.00
H703   H     0.87580   0.81264   0.54056   0.00000  Uiso   1.00
H704   H     0.75813   0.71666   0.95497   0.00000  Uiso   1.00
N705   N     0.83333   0.74999   0.62624   0.00000  Uiso   1.00
N706   N     0.83333   0.75001   0.87377   0.00000  Uiso   1.00
O707   O     0.83334   0.68454   0.78974   0.00000  Uiso   1.00
O708   O     0.83333   0.81547   0.71026   0.00000  Uiso   1.00
O709   O     0.83334   0.68453   0.71026   0.00000  Uiso   1.00
O710   O     0.83333   0.81547   0.78974   0.00000  Uiso   1.00
O711   O     0.75725   0.75000   0.78045   0.00000  Uiso   1.00
O712   O     0.90942   0.75000   0.71956   0.00000  Uiso   1.00
O713   O     0.75725   0.75000   0.70097   0.00000  Uiso   1.00
O714   O     0.90942   0.75001   0.79904   0.00000  Uiso   1.00
Zn715  Zn    0.83333   0.75001   0.80307   0.00000  Uiso   1.00
Zn716  Zn    0.83333   0.75000   0.69693   0.00000  Uiso   1.00
C717   C     0.90191   0.52804   0.83379   0.00000  Uiso   1.00
N718   N     0.92534   0.51122   0.86717   0.00000  Uiso   1.00
C719   C     0.90350   0.97183   0.68604   0.00000  Uiso   1.00
N720   N     0.92763   0.98859   0.65956   0.00000  Uiso   1.00
loop_
_geom_bond_atom_site_label_1
_geom_bond_atom_site_label_2
_geom_bond_distance
_geom_bond_site_symmetry_2
_ccdc_geom_bond_type
C1     C21     1.436   .     S
C1     O47     1.285   .     A
C1     O49     1.286   .     A
C2     C22     1.436   .     S
C2     O50     1.286   .     A
C2     O48     1.285   .     A
C3     C5      1.407   .     A
C3     C11     1.411   .     A
C3     H37     1.082   .     S
C4     C6      1.407   .     A
C4     C12     1.410   .     A
C4     H38     1.082   .     S
C5     H39     1.082   .     S
C5     N45     1.363   .     A
C6     N46     1.363   .     A
C6     H40     1.082   .     S
C7     N45     1.363   .     A
C7     C9      1.407   .     A
C7     H41     1.082   .     S
C8     N46     1.363   .     A
C8     H42     1.081   .     S
C8     C10     1.407   .     A
C9     C11     1.411   .     A
C9     H43     1.082   .     S
C10    C12     1.410   .     A
C10    H44     1.082   .     S
C11    C372    1.513   1_554 S
C12    C371    1.513   .     S
C13    C15     1.402   .     S
C13    O51     1.275   .     A
C13    O53     1.278   .     A
C14    O52     1.276   .     A
C14    O54     1.278   .     A
C14    C16     1.402   .     S
C15    C136    1.330   1_455 S
C15    H149    1.088   1_455 S
C16    C75     1.330   .     S
C16    H90     1.088   .     S
C17    C57     1.445   .     S
C17    C27     1.406   .     A
C17    C19     1.386   .     A
C18    C28     1.406   .     A
C18    C59     1.445   .     S
C18    C20     1.386   .     A
C19    H31     1.085   .     S
C19    C21     1.400   .     A
C20    C22     1.400   .     A
C20    H32     1.085   .     S
C21    C23     1.396   .     A
C22    C24     1.396   .     A
C23    C25     1.380   .     A
C23    H33     1.084   .     S
C24    H34     1.084   .     S
C24    C26     1.380   .     A
C25    C27     1.399   .     A
C25    H35     1.084   .     S
C26    C28     1.399   .     A
C26    H36     1.084   .     S
C27    C208    1.446   1_545 S
C28    C207    1.446   .     S
H29    C75     1.088   .     S
H30    C136    1.088   1_455 S
N45    Zn56    2.004   .     S
N46    Zn55    2.004   .     S
O47    Zn55    1.994   .     S
O48    Zn56    1.994   .     S
O49    Zn56    1.992   .     S
O50    Zn55    1.992   .     S
O51    Zn55    1.970   .     S
O52    Zn56    1.970   .     S
O53    Zn56    1.982   .     S
O54    Zn55    1.982   .     S
C57    N58     1.157   .     T
C59    N60     1.157   .     T
C61    C81     1.436   .     S
C61    O107    1.285   .     A
C61    O109    1.286   .     A
C62    C82     1.436   .     S
C62    O110    1.286   .     A
C62    O108    1.285   .     A
C63    C65     1.407   .     A
C63    C71     1.411   .     A
C63    H97     1.082   .     S
C64    C66     1.407   .     A
C64    C72     1.410   .     A
C64    H98     1.082   .     S
C65    H99     1.082   .     S
C65    N105    1.363   .     A
C66    N106    1.363   .     A
C66    H100    1.082   .     S
C67    N105    1.363   .     A
C67    C69     1.407   .     A
C67    H101    1.082   .     S
C68    N106    1.363   .     A
C68    H102    1.081   .     S
C68    C70     1.407   .     A
C69    C71     1.411   .     A
C69    H103    1.082   .     S
C70    C72     1.410   .     A
C70    H104    1.082   .     S
C71    C432    1.513   1_554 S
C72    C431    1.513   .     S
C73    C75     1.402   .     S
C73    O111    1.275   .     A
C73    O113    1.278   .     A
C74    O112    1.276   .     A
C74    O114    1.278   .     A
C74    C76     1.402   .     S
C76    C135    1.330   .     S
C76    H150    1.088   .     S
C77    C117    1.445   .     S
C77    C87     1.406   .     A
C77    C79     1.386   .     A
C78    C88     1.406   .     A
C78    C119    1.445   .     S
C78    C80     1.386   .     A
C79    H91     1.085   .     S
C79    C81     1.400   .     A
C80    C82     1.400   .     A
C80    H92     1.085   .     S
C81    C83     1.396   .     A
C82    C84     1.396   .     A
C83    C85     1.380   .     A
C83    H93     1.084   .     S
C84    H94     1.084   .     S
C84    C86     1.380   .     A
C85    C87     1.399   .     A
C85    H95     1.084   .     S
C86    C88     1.399   .     A
C86    H96     1.084   .     S
C87    C268    1.446   1_545 S
C88    C267    1.446   .     S
H89    C135    1.088   .     S
N105   Zn116   2.004   .     S
N106   Zn115   2.004   .     S
O107   Zn115   1.994   .     S
O108   Zn116   1.994   .     S
O109   Zn116   1.992   .     S
O110   Zn115   1.992   .     S
O111   Zn115   1.970   .     S
O112   Zn116   1.970   .     S
O113   Zn116   1.982   .     S
O114   Zn115   1.982   .     S
C117   N118    1.157   .     T
C119   N120    1.157   .     T
C121   C141    1.436   .     S
C121   O167    1.285   .     A
C121   O169    1.286   .     A
C122   C142    1.436   .     S
C122   O170    1.286   .     A
C122   O168    1.285   .     A
C123   C125    1.407   .     A
C123   C131    1.411   .     A
C123   H157    1.082   .     S
C124   C126    1.407   .     A
C124   C132    1.410   .     A
C124   H158    1.082   .     S
C125   H159    1.082   .     S
C125   N165    1.363   .     A
C126   N166    1.363   .     A
C126   H160    1.082   .     S
C127   N165    1.363   .     A
C127   C129    1.407   .     A
C127   H161    1.082   .     S
C128   N166    1.363   .     A
C128   H162    1.081   .     S
C128   C130    1.407   .     A
C129   C131    1.411   .     A
C129   H163    1.082   .     S
C130   C132    1.410   .     A
C130   H164    1.082   .     S
C131   C492    1.513   1_554 S
C132   C491    1.513   .     S
C133   C135    1.402   .     S
C133   O171    1.275   .     A
C133   O173    1.278   .     A
C134   O172    1.276   .     A
C134   O174    1.278   .     A
C134   C136    1.402   .     S
C136   C15     1.330   1_655 S
C136   H30     1.088   1_655 S
C137   C177    1.445   .     S
C137   C147    1.406   .     A
C137   C139    1.386   .     A
C138   C148    1.406   .     A
C138   C179    1.445   .     S
C138   C140    1.386   .     A
C139   H151    1.085   .     S
C139   C141    1.400   .     A
C140   C142    1.400   .     A
C140   H152    1.085   .     S
C141   C143    1.396   .     A
C142   C144    1.396   .     A
C143   C145    1.380   .     A
C143   H153    1.084   .     S
C144   H154    1.084   .     S
C144   C146    1.380   .     A
C145   C147    1.399   .     A
C145   H155    1.084   .     S
C146   C148    1.399   .     A
C146   H156    1.084   .     S
C147   C328    1.446   1_545 S
C148   C327    1.446   .     S
H149   C15     1.088   1_655 S
N165   Zn176   2.004   .     S
N166   Zn175   2.004   .     S
O167   Zn175   1.994   .     S
O168   Zn176   1.994   .     S
O169   Zn176   1.992   .     S
O170   Zn175   1.992   .     S
O171   Zn175   1.970   .     S
O172   Zn176   1.970   .     S
O173   Zn176   1.982   .     S
O174   Zn175   1.982   .     S
C177   N178    1.157   .     T
C179   N180    1.157   .     T
C181   C201    1.436   .     S
C181   O227    1.285   .     A
C181   O229    1.286   .     A
C182   C202    1.436   .     S
C182   O230    1.286   .     A
C182   O228    1.285   .     A
C183   C185    1.407   .     A
C183   C191    1.411   .     A
C183   H217    1.082   .     S
C184   C186    1.407   .     A
C184   C192    1.410   .     A
C184   H218    1.082   .     S
C185   H219    1.082   .     S
C185   N225    1.363   .     A
C186   N226    1.363   .     A
C186   H220    1.082   .     S
C187   N225    1.363   .     A
C187   C189    1.407   .     A
C187   H221    1.082   .     S
C188   N226    1.363   .     A
C188   H222    1.081   .     S
C188   C190    1.407   .     A
C189   C191    1.411   .     A
C189   H223    1.082   .     S
C190   C192    1.410   .     A
C190   H224    1.082   .     S
C191   C552    1.513   1_554 S
C192   C551    1.513   .     S
C193   C195    1.402   .     S
C193   O231    1.275   .     A
C193   O233    1.278   .     A
C194   O232    1.276   .     A
C194   O234    1.278   .     A
C194   C196    1.402   .     S
C195   C316    1.330   1_455 S
C195   H329    1.088   1_455 S
C196   C255    1.330   .     S
C196   H270    1.088   .     S
C197   C237    1.445   .     S
C197   C207    1.406   .     A
C197   C199    1.386   .     A
C198   C208    1.406   .     A
C198   C239    1.445   .     S
C198   C200    1.386   .     A
C199   H211    1.085   .     S
C199   C201    1.400   .     A
C200   C202    1.400   .     A
C200   H212    1.085   .     S
C201   C203    1.396   .     A
C202   C204    1.396   .     A
C203   C205    1.380   .     A
C203   H213    1.084   .     S
C204   H214    1.084   .     S
C204   C206    1.380   .     A
C205   C207    1.399   .     A
C205   H215    1.084   .     S
C206   C208    1.399   .     A
C206   H216    1.084   .     S
C208   C27     1.446   1_565 S
H209   C255    1.088   .     S
H210   C316    1.088   1_455 S
N225   Zn236   2.004   .     S
N226   Zn235   2.004   .     S
O227   Zn235   1.994   .     S
O228   Zn236   1.994   .     S
O229   Zn236   1.992   .     S
O230   Zn235   1.992   .     S
O231   Zn235   1.970   .     S
O232   Zn236   1.970   .     S
O233   Zn236   1.982   .     S
O234   Zn235   1.982   .     S
C237   N238    1.157   .     T
C239   N240    1.157   .     T
C241   C261    1.436   .     S
C241   O287    1.285   .     A
C241   O289    1.286   .     A
C242   C262    1.436   .     S
C242   O290    1.286   .     A
C242   O288    1.285   .     A
C243   C245    1.407   .     A
C243   C251    1.411   .     A
C243   H277    1.082   .     S
C244   C246    1.407   .     A
C244   C252    1.410   .     A
C244   H278    1.082   .     S
C245   H279    1.082   .     S
C245   N285    1.363   .     A
C246   N286    1.363   .     A
C246   H280    1.082   .     S
C247   N285    1.363   .     A
C247   C249    1.407   .     A
C247   H281    1.082   .     S
C248   N286    1.363   .     A
C248   H282    1.081   .     S
C248   C250    1.407   .     A
C249   C251    1.411   .     A
C249   H283    1.082   .     S
C250   C252    1.410   .     A
C250   H284    1.082   .     S
C251   C612    1.513   1_554 S
C252   C611    1.513   .     S
C253   C255    1.402   .     S
C253   O291    1.275   .     A
C253   O293    1.278   .     A
C254   O292    1.276   .     A
C254   O294    1.278   .     A
C254   C256    1.402   .     S
C256   C315    1.330   .     S
C256   H330    1.088   .     S
C257   C297    1.445   .     S
C257   C267    1.406   .     A
C257   C259    1.386   .     A
C258   C268    1.406   .     A
C258   C299    1.445   .     S
C258   C260    1.386   .     A
C259   H271    1.085   .     S
C259   C261    1.400   .     A
C260   C262    1.400   .     A
C260   H272    1.085   .     S
C261   C263    1.396   .     A
C262   C264    1.396   .     A
C263   C265    1.380   .     A
C263   H273    1.084   .     S
C264   H274    1.084   .     S
C264   C266    1.380   .     A
C265   C267    1.399   .     A
C265   H275    1.084   .     S
C266   C268    1.399   .     A
C266   H276    1.084   .     S
C268   C87     1.446   1_565 S
H269   C315    1.088   .     S
N285   Zn296   2.004   .     S
N286   Zn295   2.004   .     S
O287   Zn295   1.994   .     S
O288   Zn296   1.994   .     S
O289   Zn296   1.992   .     S
O290   Zn295   1.992   .     S
O291   Zn295   1.970   .     S
O292   Zn296   1.970   .     S
O293   Zn296   1.982   .     S
O294   Zn295   1.982   .     S
C297   N298    1.157   .     T
C299   N300    1.157   .     T
C301   C321    1.436   .     S
C301   O347    1.285   .     A
C301   O349    1.286   .     A
C302   C322    1.436   .     S
C302   O350    1.286   .     A
C302   O348    1.285   .     A
C303   C305    1.407   .     A
C303   C311    1.411   .     A
C303   H337    1.082   .     S
C304   C306    1.407   .     A
C304   C312    1.410   .     A
C304   H338    1.082   .     S
C305   H339    1.082   .     S
C305   N345    1.363   .     A
C306   N346    1.363   .     A
C306   H340    1.082   .     S
C307   N345    1.363   .     A
C307   C309    1.407   .     A
C307   H341    1.082   .     S
C308   N346    1.363   .     A
C308   H342    1.081   .     S
C308   C310    1.407   .     A
C309   C311    1.411   .     A
C309   H343    1.082   .     S
C310   C312    1.410   .     A
C310   H344    1.082   .     S
C311   C672    1.513   1_554 S
C312   C671    1.513   .     S
C313   C315    1.402   .     S
C313   O351    1.275   .     A
C313   O353    1.278   .     A
C314   O352    1.276   .     A
C314   O354    1.278   .     A
C314   C316    1.402   .     S
C316   C195    1.330   1_655 S
C316   H210    1.088   1_655 S
C317   C357    1.445   .     S
C317   C327    1.406   .     A
C317   C319    1.386   .     A
C318   C328    1.406   .     A
C318   C359    1.445   .     S
C318   C320    1.386   .     A
C319   H331    1.085   .     S
C319   C321    1.400   .     A
C320   C322    1.400   .     A
C320   H332    1.085   .     S
C321   C323    1.396   .     A
C322   C324    1.396   .     A
C323   C325    1.380   .     A
C323   H333    1.084   .     S
C324   H334    1.084   .     S
C324   C326    1.380   .     A
C325   C327    1.399   .     A
C325   H335    1.084   .     S
C326   C328    1.399   .     A
C326   H336    1.084   .     S
C328   C147    1.446   1_565 S
H329   C195    1.088   1_655 S
N345   Zn356   2.004   .     S
N346   Zn355   2.004   .     S
O347   Zn355   1.994   .     S
O348   Zn356   1.994   .     S
O349   Zn356   1.992   .     S
O350   Zn355   1.992   .     S
O351   Zn355   1.970   .     S
O352   Zn356   1.970   .     S
O353   Zn356   1.982   .     S
O354   Zn355   1.982   .     S
C357   N358    1.157   .     T
C359   N360    1.157   .     T
C361   C381    1.436   .     S
C361   O407    1.285   .     A
C361   O409    1.286   .     A
C362   C382    1.436   .     S
C362   O410    1.286   .     A
C362   O408    1.285   .     A
C363   C365    1.407   .     A
C363   C371    1.411   .     A
C363   H397    1.082   .     S
C364   C366    1.407   .     A
C364   C372    1.410   .     A
C364   H398    1.082   .     S
C365   H399    1.082   .     S
C365   N405    1.363   .     A
C366   N406    1.363   .     A
C366   H400    1.082   .     S
C367   N405    1.363   .     A
C367   C369    1.407   .     A
C367   H401    1.082   .     S
C368   N406    1.363   .     A
C368   H402    1.081   .     S
C368   C370    1.407   .     A
C369   C371    1.411   .     A
C369   H403    1.082   .     S
C370   C372    1.410   .     A
C370   H404    1.082   .     S
C372   C11     1.513   1_556 S
C373   C375    1.402   .     S
C373   O411    1.275   .     A
C373   O413    1.278   .     A
C374   O412    1.276   .     A
C374   O414    1.278   .     A
C374   C376    1.402   .     S
C375   C496    1.330   1_455 S
C375   H509    1.088   1_455 S
C376   C435    1.330   .     S
C376   H450    1.088   .     S
C377   C417    1.445   .     S
C377   C387    1.406   .     A
C377   C379    1.386   .     A
C378   C388    1.406   .     A
C378   C419    1.445   .     S
C378   C380    1.386   .     A
C379   H391    1.085   .     S
C379   C381    1.400   .     A
C380   C382    1.400   .     A
C380   H392    1.085   .     S
C381   C383    1.396   .     A
C382   C384    1.396   .     A
C383   C385    1.380   .     A
C383   H393    1.084   .     S
C384   H394    1.084   .     S
C384   C386    1.380   .     A
C385   C387    1.399   .     A
C385   H395    1.084   .     S
C386   C388    1.399   .     A
C386   H396    1.084   .     S
C387   C568    1.446   1_545 S
C388   C567    1.446   .     S
H389   C435    1.088   .     S
H390   C496    1.088   1_455 S
N405   Zn416   2.004   .     S
N406   Zn415   2.004   .     S
O407   Zn415   1.994   .     S
O408   Zn416   1.994   .     S
O409   Zn416   1.992   .     S
O410   Zn415   1.992   .     S
O411   Zn415   1.970   .     S
O412   Zn416   1.970   .     S
O413   Zn416   1.982   .     S
O414   Zn415   1.982   .     S
C417   N418    1.157   .     T
C419   N420    1.157   .     T
C421   C441    1.436   .     S
C421   O467    1.285   .     A
C421   O469    1.286   .     A
C422   C442    1.436   .     S
C422   O470    1.286   .     A
C422   O468    1.285   .     A
C423   C425    1.407   .     A
C423   C431    1.411   .     A
C423   H457    1.082   .     S
C424   C426    1.407   .     A
C424   C432    1.410   .     A
C424   H458    1.082   .     S
C425   H459    1.082   .     S
C425   N465    1.363   .     A
C426   N466    1.363   .     A
C426   H460    1.082   .     S
C427   N465    1.363   .     A
C427   C429    1.407   .     A
C427   H461    1.082   .     S
C428   N466    1.363   .     A
C428   H462    1.081   .     S
C428   C430    1.407   .     A
C429   C431    1.411   .     A
C429   H463    1.082   .     S
C430   C432    1.410   .     A
C430   H464    1.082   .     S
C432   C71     1.513   1_556 S
C433   C435    1.402   .     S
C433   O471    1.275   .     A
C433   O473    1.278   .     A
C434   O472    1.276   .     A
C434   O474    1.278   .     A
C434   C436    1.402   .     S
C436   C495    1.330   .     S
C436   H510    1.088   .     S
C437   C477    1.445   .     S
C437   C447    1.406   .     A
C437   C439    1.386   .     A
C438   C448    1.406   .     A
C438   C479    1.445   .     S
C438   C440    1.386   .     A
C439   H451    1.085   .     S
C439   C441    1.400   .     A
C440   C442    1.400   .     A
C440   H452    1.085   .     S
C441   C443    1.396   .     A
C442   C444    1.396   .     A
C443   C445    1.380   .     A
C443   H453    1.084   .     S
C444   H454    1.084   .     S
C444   C446    1.380   .     A
C445   C447    1.399   .     A
C445   H455    1.084   .     S
C446   C448    1.399   .     A
C446   H456    1.084   .     S
C447   C628    1.446   1_545 S
C448   C627    1.446   .     S
H449   C495    1.088   .     S
N465   Zn476   2.004   .     S
N466   Zn475   2.004   .     S
O467   Zn475   1.994   .     S
O468   Zn476   1.994   .     S
O469   Zn476   1.992   .     S
O470   Zn475   1.992   .     S
O471   Zn475   1.970   .     S
O472   Zn476   1.970   .     S
O473   Zn476   1.982   .     S
O474   Zn475   1.982   .     S
C477   N478    1.157   .     T
C479   N480    1.157   .     T
C481   C501    1.436   .     S
C481   O527    1.285   .     A
C481   O529    1.286   .     A
C482   C502    1.436   .     S
C482   O530    1.286   .     A
C482   O528    1.285   .     A
C483   C485    1.407   .     A
C483   C491    1.411   .     A
C483   H517    1.082   .     S
C484   C486    1.407   .     A
C484   C492    1.410   .     A
C484   H518    1.082   .     S
C485   H519    1.082   .     S
C485   N525    1.363   .     A
C486   N526    1.363   .     A
C486   H520    1.082   .     S
C487   N525    1.363   .     A
C487   C489    1.407   .     A
C487   H521    1.082   .     S
C488   N526    1.363   .     A
C488   H522    1.081   .     S
C488   C490    1.407   .     A
C489   C491    1.411   .     A
C489   H523    1.082   .     S
C490   C492    1.410   .     A
C490   H524    1.082   .     S
C492   C131    1.513   1_556 S
C493   C495    1.402   .     S
C493   O531    1.275   .     A
C493   O533    1.278   .     A
C494   O532    1.276   .     A
C494   O534    1.278   .     A
C494   C496    1.402   .     S
C496   C375    1.330   1_655 S
C496   H390    1.088   1_655 S
C497   C537    1.445   .     S
C497   C507    1.406   .     A
C497   C499    1.386   .     A
C498   C508    1.406   .     A
C498   C539    1.445   .     S
C498   C500    1.386   .     A
C499   H511    1.085   .     S
C499   C501    1.400   .     A
C500   C502    1.400   .     A
C500   H512    1.085   .     S
C501   C503    1.396   .     A
C502   C504    1.396   .     A
C503   C505    1.380   .     A
C503   H513    1.084   .     S
C504   H514    1.084   .     S
C504   C506    1.380   .     A
C505   C507    1.399   .     A
C505   H515    1.084   .     S
C506   C508    1.399   .     A
C506   H516    1.084   .     S
C507   C688    1.446   1_545 S
C508   C687    1.446   .     S
H509   C375    1.088   1_655 S
N525   Zn536   2.004   .     S
N526   Zn535   2.004   .     S
O527   Zn535   1.994   .     S
O528   Zn536   1.994   .     S
O529   Zn536   1.992   .     S
O530   Zn535   1.992   .     S
O531   Zn535   1.970   .     S
O532   Zn536   1.970   .     S
O533   Zn536   1.982   .     S
O534   Zn535   1.982   .     S
C537   N538    1.157   .     T
C539   N540    1.157   .     T
C541   C561    1.436   .     S
C541   O587    1.285   .     A
C541   O589    1.286   .     A
C542   C562    1.436   .     S
C542   O590    1.286   .     A
C542   O588    1.285   .     A
C543   C545    1.407   .     A
C543   C551    1.411   .     A
C543   H577    1.082   .     S
C544   C546    1.407   .     A
C544   C552    1.410   .     A
C544   H578    1.082   .     S
C545   H579    1.082   .     S
C545   N585    1.363   .     A
C546   N586    1.363   .     A
C546   H580    1.082   .     S
C547   N585    1.363   .     A
C547   C549    1.407   .     A
C547   H581    1.082   .     S
C548   N586    1.363   .     A
C548   H582    1.081   .     S
C548   C550    1.407   .     A
C549   C551    1.411   .     A
C549   H583    1.082   .     S
C550   C552    1.410   .     A
C550   H584    1.082   .     S
C552   C191    1.513   1_556 S
C553   C555    1.402   .     S
C553   O591    1.275   .     A
C553   O593    1.278   .     A
C554   O592    1.276   .     A
C554   O594    1.278   .     A
C554   C556    1.402   .     S
C555   C676    1.330   1_455 S
C555   H689    1.088   1_455 S
C556   C615    1.330   .     S
C556   H630    1.088   .     S
C557   C597    1.445   .     S
C557   C567    1.406   .     A
C557   C559    1.386   .     A
C558   C568    1.406   .     A
C558   C599    1.445   .     S
C558   C560    1.386   .     A
C559   H571    1.085   .     S
C559   C561    1.400   .     A
C560   C562    1.400   .     A
C560   H572    1.085   .     S
C561   C563    1.396   .     A
C562   C564    1.396   .     A
C563   C565    1.380   .     A
C563   H573    1.084   .     S
C564   H574    1.084   .     S
C564   C566    1.380   .     A
C565   C567    1.399   .     A
C565   H575    1.084   .     S
C566   C568    1.399   .     A
C566   H576    1.084   .     S
C568   C387    1.446   1_565 S
H569   C615    1.088   .     S
H570   C676    1.088   1_455 S
N585   Zn596   2.004   .     S
N586   Zn595   2.004   .     S
O587   Zn595   1.994   .     S
O588   Zn596   1.994   .     S
O589   Zn596   1.992   .     S
O590   Zn595   1.992   .     S
O591   Zn595   1.970   .     S
O592   Zn596   1.970   .     S
O593   Zn596   1.982   .     S
O594   Zn595   1.982   .     S
C597   N598    1.157   .     T
C599   N600    1.157   .     T
C601   C621    1.436   .     S
C601   O647    1.285   .     A
C601   O649    1.286   .     A
C602   C622    1.436   .     S
C602   O650    1.286   .     A
C602   O648    1.285   .     A
C603   C605    1.407   .     A
C603   C611    1.411   .     A
C603   H637    1.082   .     S
C604   C606    1.407   .     A
C604   C612    1.410   .     A
C604   H638    1.082   .     S
C605   H639    1.082   .     S
C605   N645    1.363   .     A
C606   N646    1.363   .     A
C606   H640    1.082   .     S
C607   N645    1.363   .     A
C607   C609    1.407   .     A
C607   H641    1.082   .     S
C608   N646    1.363   .     A
C608   H642    1.081   .     S
C608   C610    1.407   .     A
C609   C611    1.411   .     A
C609   H643    1.082   .     S
C610   C612    1.410   .     A
C610   H644    1.082   .     S
C612   C251    1.513   1_556 S
C613   C615    1.402   .     S
C613   O651    1.275   .     A
C613   O653    1.278   .     A
C614   O652    1.276   .     A
C614   O654    1.278   .     A
C614   C616    1.402   .     S
C616   C675    1.330   .     S
C616   H690    1.088   .     S
C617   C657    1.445   .     S
C617   C627    1.406   .     A
C617   C619    1.386   .     A
C618   C628    1.406   .     A
C618   C659    1.445   .     S
C618   C620    1.386   .     A
C619   H631    1.085   .     S
C619   C621    1.400   .     A
C620   C622    1.400   .     A
C620   H632    1.085   .     S
C621   C623    1.396   .     A
C622   C624    1.396   .     A
C623   C625    1.380   .     A
C623   H633    1.084   .     S
C624   H634    1.084   .     S
C624   C626    1.380   .     A
C625   C627    1.399   .     A
C625   H635    1.084   .     S
C626   C628    1.399   .     A
C626   H636    1.084   .     S
C628   C447    1.446   1_565 S
H629   C675    1.088   .     S
N645   Zn656   2.004   .     S
N646   Zn655   2.004   .     S
O647   Zn655   1.994   .     S
O648   Zn656   1.994   .     S
O649   Zn656   1.992   .     S
O650   Zn655   1.992   .     S
O651   Zn655   1.970   .     S
O652   Zn656   1.970   .     S
O653   Zn656   1.982   .     S
O654   Zn655   1.982   .     S
C657   N658    1.157   .     T
C659   N660    1.157   .     T
C661   C681    1.436   .     S
C661   O707    1.285   .     A
C661   O709    1.286   .     A
C662   C682    1.436   .     S
C662   O710    1.286   .     A
C662   O708    1.285   .     A
C663   C665    1.407   .     A
C663   C671    1.411   .     A
C663   H697    1.082   .     S
C664   C666    1.407   .     A
C664   C672    1.410   .     A
C664   H698    1.082   .     S
C665   H699    1.082   .     S
C665   N705    1.363   .     A
C666   N706    1.363   .     A
C666   H700    1.082   .     S
C667   N705    1.363   .     A
C667   C669    1.407   .     A
C667   H701    1.082   .     S
C668   N706    1.363   .     A
C668   H702    1.081   .     S
C668   C670    1.407   .     A
C669   C671    1.411   .     A
C669   H703    1.082   .     S
C670   C672    1.410   .     A
C670   H704    1.082   .     S
C672   C311    1.513   1_556 S
C673   C675    1.402   .     S
C673   O711    1.275   .     A
C673   O713    1.278   .     A
C674   O712    1.276   .     A
C674   O714    1.278   .     A
C674   C676    1.402   .     S
C676   C555    1.330   1_655 S
C676   H570    1.088   1_655 S
C677   C717    1.445   .     S
C677   C687    1.406   .     A
C677   C679    1.386   .     A
C678   C688    1.406   .     A
C678   C719    1.445   .     S
C678   C680    1.386   .     A
C679   H691    1.085   .     S
C679   C681    1.400   .     A
C680   C682    1.400   .     A
C680   H692    1.085   .     S
C681   C683    1.396   .     A
C682   C684    1.396   .     A
C683   C685    1.380   .     A
C683   H693    1.084   .     S
C684   H694    1.084   .     S
C684   C686    1.380   .     A
C685   C687    1.399   .     A
C685   H695    1.084   .     S
C686   C688    1.399   .     A
C686   H696    1.084   .     S
C688   C507    1.446   1_565 S
H689   C555    1.088   1_655 S
N705   Zn716   2.004   .     S
N706   Zn715   2.004   .     S
O707   Zn715   1.994   .     S
O708   Zn716   1.994   .     S
O709   Zn716   1.992   .     S
O710   Zn715   1.992   .     S
O711   Zn715   1.970   .     S
O712   Zn716   1.970   .     S
O713   Zn716   1.982   .     S
O714   Zn715   1.982   .     S
C717   N718    1.157   .     T
C719   N720    1.157   .     T
