data_str_m1_o1_o17_pcu_sym.4
_audit_creation_date              2020-01-03
_audit_creation_method            'Materials Studio'
_symmetry_space_group_name_H-M    'P1'
_symmetry_Int_Tables_number       1
_symmetry_cell_setting            triclinic
loop_
_symmetry_equiv_pos_as_xyz
  x,y,z
_cell_length_a                    36.6620
_cell_length_b                    36.6620
_cell_length_c                    34.4641
_cell_angle_alpha                 90.0000
_cell_angle_beta                  90.0000
_cell_angle_gamma                 90.0000
loop_
_atom_site_label
_atom_site_type_symbol
_atom_site_fract_x
_atom_site_fract_y
_atom_site_fract_z
_atom_site_U_iso_or_equiv
_atom_site_adp_type
_atom_site_occupancy
C1     C     0.48739   0.28126   0.41779   0.00000  Uiso   1.00
C2     C     0.23739   0.46874   0.08221   0.00000  Uiso   1.00
C3     C     0.21915   0.01319   0.54118   0.00000  Uiso   1.00
C4     C     0.48681   0.28085   0.45882   0.00000  Uiso   1.00
C5     C     0.01319   0.21915   0.54118   0.00000  Uiso   1.00
C6     C     0.21915   0.01319   0.45882   0.00000  Uiso   1.00
C7     C     0.28085   0.48681   0.54118   0.00000  Uiso   1.00
C8     C     0.23681   0.46915   0.95882   0.00000  Uiso   1.00
C9     C     0.26319   0.03085   0.04118   0.00000  Uiso   1.00
C10    C     0.03085   0.26318   0.95882   0.00000  Uiso   1.00
C11    C     0.46915   0.23682   0.04118   0.00000  Uiso   1.00
C12    C     0.26319   0.03085   0.95882   0.00000  Uiso   1.00
C13    C     0.46873   0.23740   0.91779   0.00000  Uiso   1.00
C14    C     0.23681   0.46915   0.04118   0.00000  Uiso   1.00
C15    C     0.46915   0.23682   0.95882   0.00000  Uiso   1.00
C16    C     0.03085   0.26318   0.04118   0.00000  Uiso   1.00
C17    C     0.09828   0.34798   0.24976   0.00000  Uiso   1.00
C18    C     0.40172   0.15202   0.75024   0.00000  Uiso   1.00
C19    C     0.15172   0.09798   0.25024   0.00000  Uiso   1.00
C20    C     0.34828   0.40202   0.74976   0.00000  Uiso   1.00
C21    C     0.40172   0.15202   0.24976   0.00000  Uiso   1.00
C22    C     0.09828   0.34798   0.75024   0.00000  Uiso   1.00
C23    C     0.34828   0.40202   0.25024   0.00000  Uiso   1.00
C24    C     0.03127   0.26260   0.08221   0.00000  Uiso   1.00
C25    C     0.15172   0.09798   0.74976   0.00000  Uiso   1.00
C26    C     0.09798   0.15172   0.74976   0.00000  Uiso   1.00
C27    C     0.40202   0.34828   0.25024   0.00000  Uiso   1.00
C28    C     0.15202   0.40172   0.75024   0.00000  Uiso   1.00
C29    C     0.34798   0.09828   0.24976   0.00000  Uiso   1.00
C30    C     0.40202   0.34828   0.74976   0.00000  Uiso   1.00
C31    C     0.09798   0.15172   0.25024   0.00000  Uiso   1.00
C32    C     0.34798   0.09828   0.75024   0.00000  Uiso   1.00
C33    C     0.15202   0.40172   0.24976   0.00000  Uiso   1.00
C34    C     0.00000   0.25000   0.47934   0.00000  Uiso   1.00
C35    C     0.23739   0.46874   0.91779   0.00000  Uiso   1.00
C36    C    -0.00000   0.25000   0.52066   0.00000  Uiso   1.00
C37    C     0.25000  -0.00000   0.47934   0.00000  Uiso   1.00
C38    C     0.25000  -0.00000   0.52066   0.00000  Uiso   1.00
C39    C     0.25000   0.00000   0.97934   0.00000  Uiso   1.00
C40    C     0.25000   0.00000   0.02066   0.00000  Uiso   1.00
C41    C    -0.00000   0.25000   0.97934   0.00000  Uiso   1.00
C42    C    -0.00000   0.25000   0.02066   0.00000  Uiso   1.00
C43    C     0.47577   0.31525   0.39502   0.00000  Uiso   1.00
C44    C     0.43435   0.31716   0.39023   0.00000  Uiso   1.00
C45    C     0.02423   0.18475   0.60498   0.00000  Uiso   1.00
C46    C     0.26261   0.03126   0.08221   0.00000  Uiso   1.00
C47    C     0.06565   0.18284   0.60977   0.00000  Uiso   1.00
C48    C     0.18476   0.02423   0.39502   0.00000  Uiso   1.00
C49    C     0.18284   0.06566   0.39023   0.00000  Uiso   1.00
C50    C     0.31524   0.47577   0.60498   0.00000  Uiso   1.00
C51    C     0.31715   0.43434   0.60977   0.00000  Uiso   1.00
C52    C     0.02423   0.18475   0.39502   0.00000  Uiso   1.00
C53    C     0.06565   0.18284   0.39023   0.00000  Uiso   1.00
C54    C     0.47577   0.31525   0.60498   0.00000  Uiso   1.00
C55    C     0.43435   0.31716   0.60977   0.00000  Uiso   1.00
C56    C     0.31524   0.47577   0.39502   0.00000  Uiso   1.00
C57    C     0.03127   0.26260   0.91779   0.00000  Uiso   1.00
C58    C     0.31716   0.43434   0.39023   0.00000  Uiso   1.00
C59    C     0.18476   0.02423   0.60498   0.00000  Uiso   1.00
C60    C     0.18284   0.06566   0.60977   0.00000  Uiso   1.00
C61    C     0.27423   0.06524   0.89502   0.00000  Uiso   1.00
C62    C     0.31565   0.06716   0.89023   0.00000  Uiso   1.00
C63    C     0.22577   0.43476   0.10498   0.00000  Uiso   1.00
C64    C     0.18434   0.43284   0.10977   0.00000  Uiso   1.00
C65    C     0.43475   0.22579   0.89502   0.00000  Uiso   1.00
C66    C     0.43283   0.18436   0.89023   0.00000  Uiso   1.00
C67    C     0.06525   0.27422   0.10498   0.00000  Uiso   1.00
C68    C     0.46873   0.23740   0.08221   0.00000  Uiso   1.00
C69    C     0.06717   0.31564   0.10977   0.00000  Uiso   1.00
C70    C     0.22577   0.43476   0.89502   0.00000  Uiso   1.00
C71    C     0.18435   0.43284   0.89023   0.00000  Uiso   1.00
C72    C     0.27423   0.06524   0.10498   0.00000  Uiso   1.00
C73    C     0.31566   0.06716   0.10977   0.00000  Uiso   1.00
C74    C     0.06525   0.27421   0.89502   0.00000  Uiso   1.00
C75    C     0.06717   0.31564   0.89023   0.00000  Uiso   1.00
C76    C     0.43475   0.22578   0.10498   0.00000  Uiso   1.00
C77    C     0.43283   0.18436   0.10977   0.00000  Uiso   1.00
C78    C    -0.00000   0.25000   0.39786   0.00000  Uiso   1.00
C79    C    -0.00000   0.25000   0.60214   0.00000  Uiso   1.00
C80    C     0.25000  -0.00000   0.39786   0.00000  Uiso   1.00
C81    C     0.01261   0.21874   0.58221   0.00000  Uiso   1.00
C82    C     0.25000  -0.00000   0.60214   0.00000  Uiso   1.00
C83    C     0.25000   0.00000   0.89786   0.00000  Uiso   1.00
C84    C     0.25000   0.00000   0.10214   0.00000  Uiso   1.00
C85    C    -0.00000   0.25000   0.89786   0.00000  Uiso   1.00
C86    C    -0.00000   0.25000   0.10214   0.00000  Uiso   1.00
C87    C     0.02655   0.18927   0.47997   0.00000  Uiso   1.00
C88    C     0.47345   0.31073   0.52003   0.00000  Uiso   1.00
C89    C     0.31073   0.47344   0.47997   0.00000  Uiso   1.00
C90    C     0.18927   0.02656   0.52003   0.00000  Uiso   1.00
C91    C     0.47345   0.31073   0.47997   0.00000  Uiso   1.00
C92    C     0.21874   0.01261   0.41779   0.00000  Uiso   1.00
C93    C     0.02655   0.18927   0.52003   0.00000  Uiso   1.00
C94    C     0.18927   0.02656   0.47997   0.00000  Uiso   1.00
C95    C     0.31073   0.47344   0.52003   0.00000  Uiso   1.00
C96    C     0.22345   0.43927   0.97997   0.00000  Uiso   1.00
C97    C     0.27655   0.06073   0.02003   0.00000  Uiso   1.00
C98    C     0.06074   0.27654   0.97997   0.00000  Uiso   1.00
C99    C     0.43926   0.22346   0.02003   0.00000  Uiso   1.00
C100   C     0.27655   0.06073   0.97997   0.00000  Uiso   1.00
C101   C     0.22345   0.43927   0.02003   0.00000  Uiso   1.00
C102   C     0.43926   0.22346   0.97997   0.00000  Uiso   1.00
C103   C     0.28126   0.48739   0.58221   0.00000  Uiso   1.00
C104   C     0.06074   0.27654   0.02003   0.00000  Uiso   1.00
C105   C     0.25000  -0.00000   0.35566   0.00000  Uiso   1.00
C106   C     0.25000  -0.00000   0.64434   0.00000  Uiso   1.00
C107   C    -0.00000   0.25000   0.35566   0.00000  Uiso   1.00
C108   C    -0.00000   0.25000   0.64434   0.00000  Uiso   1.00
C109   C     0.00000   0.25000   0.85566   0.00000  Uiso   1.00
C110   C    -0.00000   0.25000   0.14434   0.00000  Uiso   1.00
C111   C     0.25000  -0.00000   0.85566   0.00000  Uiso   1.00
C112   C     0.25000  -0.00000   0.14434   0.00000  Uiso   1.00
C113   C     0.17990   0.07002   0.25007   0.00000  Uiso   1.00
C114   C     0.01261   0.21874   0.41779   0.00000  Uiso   1.00
C115   C     0.32010   0.42998   0.74993   0.00000  Uiso   1.00
C116   C     0.42990   0.17998   0.24993   0.00000  Uiso   1.00
C117   C     0.07010   0.32002   0.75007   0.00000  Uiso   1.00
C118   C     0.32010   0.42998   0.25007   0.00000  Uiso   1.00
C119   C     0.17990   0.07002   0.74993   0.00000  Uiso   1.00
C120   C     0.07010   0.32002   0.24993   0.00000  Uiso   1.00
C121   C     0.42990   0.17998   0.75007   0.00000  Uiso   1.00
C122   C     0.17998   0.42990   0.75007   0.00000  Uiso   1.00
C123   C     0.32002   0.07010   0.24993   0.00000  Uiso   1.00
C124   C     0.42998   0.32010   0.74993   0.00000  Uiso   1.00
C125   C     0.48739   0.28126   0.58221   0.00000  Uiso   1.00
C126   C     0.07002   0.17990   0.25007   0.00000  Uiso   1.00
C127   C     0.32002   0.07010   0.75007   0.00000  Uiso   1.00
C128   C     0.17998   0.42990   0.24993   0.00000  Uiso   1.00
C129   C     0.07002   0.17990   0.74993   0.00000  Uiso   1.00
C130   C     0.42998   0.32010   0.25007   0.00000  Uiso   1.00
C131   C     0.12341   0.40333   0.22282   0.00000  Uiso   1.00
C132   C     0.37659   0.09667   0.77719   0.00000  Uiso   1.00
C133   C     0.09628   0.12301   0.22346   0.00000  Uiso   1.00
C134   C     0.40372   0.37699   0.77654   0.00000  Uiso   1.00
C135   C     0.37659   0.09667   0.22282   0.00000  Uiso   1.00
C136   C     0.28126   0.48739   0.41779   0.00000  Uiso   1.00
C137   C     0.12341   0.40333   0.77719   0.00000  Uiso   1.00
C138   C     0.40372   0.37699   0.22346   0.00000  Uiso   1.00
C139   C     0.09628   0.12301   0.77654   0.00000  Uiso   1.00
C140   C     0.12301   0.09628   0.77654   0.00000  Uiso   1.00
C141   C     0.37699   0.40372   0.22346   0.00000  Uiso   1.00
C142   C     0.09667   0.37659   0.77719   0.00000  Uiso   1.00
C143   C     0.40333   0.12341   0.22282   0.00000  Uiso   1.00
C144   C     0.37699   0.40372   0.77654   0.00000  Uiso   1.00
C145   C     0.12301   0.09628   0.22346   0.00000  Uiso   1.00
C146   C     0.40333   0.12341   0.77719   0.00000  Uiso   1.00
C147   C     0.21874   0.01261   0.58221   0.00000  Uiso   1.00
C148   C     0.09667   0.37659   0.22282   0.00000  Uiso   1.00
C149   C     0.37301   0.15372   0.72346   0.00000  Uiso   1.00
C150   C     0.12699   0.34628   0.27654   0.00000  Uiso   1.00
C151   C     0.34667   0.37341   0.72282   0.00000  Uiso   1.00
C152   C     0.15333   0.12659   0.27719   0.00000  Uiso   1.00
C153   C     0.12699   0.34628   0.72346   0.00000  Uiso   1.00
C154   C     0.37301   0.15372   0.27654   0.00000  Uiso   1.00
C155   C     0.15333   0.12659   0.72281   0.00000  Uiso   1.00
C156   C     0.34667   0.37341   0.27719   0.00000  Uiso   1.00
C157   C     0.37341   0.34667   0.27719   0.00000  Uiso   1.00
C158   C     0.26261   0.03126   0.91779   0.00000  Uiso   1.00
C159   C     0.12659   0.15333   0.72281   0.00000  Uiso   1.00
C160   C     0.34628   0.12699   0.27654   0.00000  Uiso   1.00
C161   C     0.15372   0.37301   0.72346   0.00000  Uiso   1.00
C162   C     0.12659   0.15333   0.27719   0.00000  Uiso   1.00
C163   C     0.37341   0.34667   0.72282   0.00000  Uiso   1.00
C164   C     0.15372   0.37301   0.27654   0.00000  Uiso   1.00
C165   C     0.34628   0.12699   0.72346   0.00000  Uiso   1.00
C166   C     0.01319   0.21915   0.45882   0.00000  Uiso   1.00
C167   C     0.48681   0.28085   0.54118   0.00000  Uiso   1.00
C168   C     0.28085   0.48681   0.45882   0.00000  Uiso   1.00
H169   H     0.03755   0.16524   0.46622   0.00000  Uiso   1.00
H170   H     0.28756   0.08476   0.03379   0.00000  Uiso   1.00
H171   H     0.43221   0.17043   0.91879   0.00000  Uiso   1.00
H172   H     0.40772   0.17699   0.87399   0.00000  Uiso   1.00
H173   H     0.40957   0.23623   0.90900   0.00000  Uiso   1.00
H174   H     0.43377   0.23835   0.86576   0.00000  Uiso   1.00
H175   H     0.06779   0.32957   0.08121   0.00000  Uiso   1.00
H176   H     0.04323   0.32572   0.12628   0.00000  Uiso   1.00
H177   H     0.09227   0.32302   0.12601   0.00000  Uiso   1.00
H178   H     0.06623   0.26166   0.13424   0.00000  Uiso   1.00
H179   H     0.09043   0.26378   0.09101   0.00000  Uiso   1.00
H180   H     0.17041   0.43223   0.91879   0.00000  Uiso   1.00
H181   H     0.08477   0.28754   0.96622   0.00000  Uiso   1.00
H182   H     0.17427   0.45679   0.87372   0.00000  Uiso   1.00
H183   H     0.17697   0.40774   0.87399   0.00000  Uiso   1.00
H184   H     0.23833   0.43377   0.86576   0.00000  Uiso   1.00
H185   H     0.23620   0.40957   0.90900   0.00000  Uiso   1.00
H186   H     0.32573   0.04321   0.12628   0.00000  Uiso   1.00
H187   H     0.32959   0.06777   0.08121   0.00000  Uiso   1.00
H188   H     0.32304   0.09225   0.12601   0.00000  Uiso   1.00
H189   H     0.26380   0.09043   0.09100   0.00000  Uiso   1.00
H190   H     0.26167   0.06623   0.13424   0.00000  Uiso   1.00
H191   H     0.04323   0.32572   0.87372   0.00000  Uiso   1.00
H192   H     0.41523   0.21246   0.03379   0.00000  Uiso   1.00
H193   H     0.06779   0.32957   0.91879   0.00000  Uiso   1.00
H194   H     0.09227   0.32301   0.87399   0.00000  Uiso   1.00
H195   H     0.09043   0.26377   0.90900   0.00000  Uiso   1.00
H196   H     0.06623   0.26165   0.86576   0.00000  Uiso   1.00
H197   H     0.43221   0.17043   0.08121   0.00000  Uiso   1.00
H198   H     0.45677   0.17428   0.12628   0.00000  Uiso   1.00
H199   H     0.40773   0.17698   0.12601   0.00000  Uiso   1.00
H200   H     0.43377   0.23834   0.13424   0.00000  Uiso   1.00
H201   H     0.40957   0.23622   0.09101   0.00000  Uiso   1.00
H202   H     0.28756   0.08476   0.96622   0.00000  Uiso   1.00
H203   H     0.21244   0.41524   0.03379   0.00000  Uiso   1.00
H204   H     0.41523   0.21246   0.96622   0.00000  Uiso   1.00
H205   H     0.08477   0.28754   0.03379   0.00000  Uiso   1.00
H206   H     0.12169   0.42516   0.20172   0.00000  Uiso   1.00
H207   H     0.37831   0.07484   0.79828   0.00000  Uiso   1.00
H208   H     0.07441   0.12124   0.20240   0.00000  Uiso   1.00
H209   H     0.46245   0.33476   0.53379   0.00000  Uiso   1.00
H210   H     0.42559   0.37876   0.79760   0.00000  Uiso   1.00
H211   H     0.37831   0.07484   0.20172   0.00000  Uiso   1.00
H212   H     0.12169   0.42516   0.79828   0.00000  Uiso   1.00
H213   H     0.42559   0.37876   0.20240   0.00000  Uiso   1.00
H214   H     0.07441   0.12124   0.79760   0.00000  Uiso   1.00
H215   H     0.12124   0.07441   0.79760   0.00000  Uiso   1.00
H216   H     0.37876   0.42559   0.20240   0.00000  Uiso   1.00
H217   H     0.07483   0.37831   0.79828   0.00000  Uiso   1.00
H218   H     0.42516   0.12169   0.20172   0.00000  Uiso   1.00
H219   H     0.37876   0.42559   0.79760   0.00000  Uiso   1.00
H220   H     0.33476   0.46244   0.46622   0.00000  Uiso   1.00
H221   H     0.12124   0.07441   0.20240   0.00000  Uiso   1.00
H222   H     0.42516   0.12169   0.79828   0.00000  Uiso   1.00
H223   H     0.07483   0.37831   0.20172   0.00000  Uiso   1.00
H224   H     0.37124   0.17559   0.70241   0.00000  Uiso   1.00
H225   H     0.12876   0.32441   0.29760   0.00000  Uiso   1.00
H226   H     0.32484   0.37169   0.70172   0.00000  Uiso   1.00
H227   H     0.17516   0.12831   0.29828   0.00000  Uiso   1.00
H228   H     0.12876   0.32441   0.70241   0.00000  Uiso   1.00
H229   H     0.37124   0.17559   0.29760   0.00000  Uiso   1.00
H230   H     0.17516   0.12831   0.70172   0.00000  Uiso   1.00
H231   H     0.16524   0.03756   0.53379   0.00000  Uiso   1.00
H232   H     0.32484   0.37169   0.29828   0.00000  Uiso   1.00
H233   H     0.37169   0.32484   0.29828   0.00000  Uiso   1.00
H234   H     0.12831   0.17516   0.70172   0.00000  Uiso   1.00
H235   H     0.32441   0.12876   0.29760   0.00000  Uiso   1.00
H236   H     0.17559   0.37124   0.70241   0.00000  Uiso   1.00
H237   H     0.12831   0.17516   0.29828   0.00000  Uiso   1.00
H238   H     0.37169   0.32484   0.70172   0.00000  Uiso   1.00
H239   H     0.17559   0.37124   0.29760   0.00000  Uiso   1.00
H240   H     0.32441   0.12876   0.70241   0.00000  Uiso   1.00
H241   H     0.42427   0.29321   0.37372   0.00000  Uiso   1.00
H242   H     0.46245   0.33476   0.46622   0.00000  Uiso   1.00
H243   H     0.42041   0.31777   0.41879   0.00000  Uiso   1.00
H244   H     0.42697   0.34226   0.37399   0.00000  Uiso   1.00
H245   H     0.48621   0.34043   0.40900   0.00000  Uiso   1.00
H246   H     0.48833   0.31623   0.36576   0.00000  Uiso   1.00
H247   H     0.07959   0.18223   0.58121   0.00000  Uiso   1.00
H248   H     0.07573   0.20678   0.62628   0.00000  Uiso   1.00
H249   H     0.07303   0.15774   0.62601   0.00000  Uiso   1.00
H250   H     0.01167   0.18377   0.63424   0.00000  Uiso   1.00
H251   H     0.01379   0.15957   0.59100   0.00000  Uiso   1.00
H252   H     0.18223   0.07959   0.41879   0.00000  Uiso   1.00
H253   H     0.03755   0.16524   0.53379   0.00000  Uiso   1.00
H254   H     0.20679   0.07573   0.37372   0.00000  Uiso   1.00
H255   H     0.15774   0.07303   0.37399   0.00000  Uiso   1.00
H256   H     0.18377   0.01167   0.36576   0.00000  Uiso   1.00
H257   H     0.15957   0.01380   0.40900   0.00000  Uiso   1.00
H258   H     0.29321   0.42427   0.62628   0.00000  Uiso   1.00
H259   H     0.31777   0.42041   0.58121   0.00000  Uiso   1.00
H260   H     0.34225   0.42696   0.62601   0.00000  Uiso   1.00
H261   H     0.34043   0.48620   0.59100   0.00000  Uiso   1.00
H262   H     0.31623   0.48832   0.63424   0.00000  Uiso   1.00
H263   H     0.07573   0.20679   0.37372   0.00000  Uiso   1.00
H264   H     0.16524   0.03756   0.46622   0.00000  Uiso   1.00
H265   H     0.07959   0.18223   0.41879   0.00000  Uiso   1.00
H266   H     0.07303   0.15774   0.37399   0.00000  Uiso   1.00
H267   H     0.01379   0.15957   0.40900   0.00000  Uiso   1.00
H268   H     0.01167   0.18377   0.36576   0.00000  Uiso   1.00
H269   H     0.42041   0.31778   0.58121   0.00000  Uiso   1.00
H270   H     0.42427   0.29322   0.62628   0.00000  Uiso   1.00
H271   H     0.42697   0.34226   0.62601   0.00000  Uiso   1.00
H272   H     0.48833   0.31623   0.63424   0.00000  Uiso   1.00
H273   H     0.48621   0.34043   0.59100   0.00000  Uiso   1.00
H274   H     0.31777   0.42041   0.41879   0.00000  Uiso   1.00
H275   H     0.33476   0.46244   0.53379   0.00000  Uiso   1.00
H276   H     0.29321   0.42427   0.37372   0.00000  Uiso   1.00
H277   H     0.34226   0.42696   0.37399   0.00000  Uiso   1.00
H278   H     0.31623   0.48833   0.36576   0.00000  Uiso   1.00
H279   H     0.34043   0.48620   0.40900   0.00000  Uiso   1.00
H280   H     0.20679   0.07573   0.62628   0.00000  Uiso   1.00
H281   H     0.18223   0.07959   0.58121   0.00000  Uiso   1.00
H282   H     0.15775   0.07304   0.62601   0.00000  Uiso   1.00
H283   H     0.15957   0.01380   0.59100   0.00000  Uiso   1.00
H284   H     0.18377   0.01168   0.63424   0.00000  Uiso   1.00
H285   H     0.32959   0.06777   0.91879   0.00000  Uiso   1.00
H286   H     0.21244   0.41524   0.96622   0.00000  Uiso   1.00
H287   H     0.32573   0.04321   0.87372   0.00000  Uiso   1.00
H288   H     0.32303   0.09226   0.87399   0.00000  Uiso   1.00
H289   H     0.26167   0.06623   0.86576   0.00000  Uiso   1.00
H290   H     0.26380   0.09043   0.90900   0.00000  Uiso   1.00
H291   H     0.17427   0.45679   0.12628   0.00000  Uiso   1.00
H292   H     0.17041   0.43223   0.08121   0.00000  Uiso   1.00
H293   H     0.17697   0.40774   0.12601   0.00000  Uiso   1.00
H294   H     0.23620   0.40957   0.09100   0.00000  Uiso   1.00
H295   H     0.23833   0.43377   0.13424   0.00000  Uiso   1.00
H296   H     0.45677   0.17428   0.87372   0.00000  Uiso   1.00
O297   O     0.25000   0.00000   0.25000   0.00000  Uiso   1.00
O298   O     0.25000   0.46963   0.66245   0.00000  Uiso   1.00
O299   O     0.46963   0.25000   0.33755   0.00000  Uiso   1.00
O300   O     0.03036   0.25000   0.66245   0.00000  Uiso   1.00
O301   O    -0.00000   0.21964   0.83755   0.00000  Uiso   1.00
O302   O     0.00000   0.28036   0.16245   0.00000  Uiso   1.00
O303   O     0.28036   0.00000   0.83755   0.00000  Uiso   1.00
O304   O     0.21963  -0.00000   0.16245   0.00000  Uiso   1.00
O305   O    -0.00000   0.28037   0.83755   0.00000  Uiso   1.00
O306   O     0.00000   0.21963   0.16245   0.00000  Uiso   1.00
O307   O     0.21963   0.00000   0.83755   0.00000  Uiso   1.00
O308   O     0.25000  -0.00000   0.75000   0.00000  Uiso   1.00
O309   O     0.28036  -0.00000   0.16245   0.00000  Uiso   1.00
O310   O     0.20724   0.07308   0.27302   0.00000  Uiso   1.00
O311   O     0.29275   0.42692   0.72698   0.00000  Uiso   1.00
O312   O     0.42692   0.20725   0.27302   0.00000  Uiso   1.00
O313   O     0.07307   0.29275   0.72698   0.00000  Uiso   1.00
O314   O     0.29275   0.42692   0.27302   0.00000  Uiso   1.00
O315   O     0.20724   0.07308   0.72698   0.00000  Uiso   1.00
O316   O     0.07307   0.29275   0.27302   0.00000  Uiso   1.00
O317   O     0.42692   0.20725   0.72698   0.00000  Uiso   1.00
O318   O     0.20724   0.42692   0.72698   0.00000  Uiso   1.00
O319   O    -0.00000   0.25000   0.25000   0.00000  Uiso   1.00
O320   O     0.29275   0.07308   0.27302   0.00000  Uiso   1.00
O321   O     0.42692   0.29276   0.72698   0.00000  Uiso   1.00
O322   O     0.07307   0.20724   0.27302   0.00000  Uiso   1.00
O323   O     0.29275   0.07308   0.72698   0.00000  Uiso   1.00
O324   O     0.20724   0.42692   0.27302   0.00000  Uiso   1.00
O325   O     0.07307   0.20724   0.72698   0.00000  Uiso   1.00
O326   O     0.42692   0.29276   0.27302   0.00000  Uiso   1.00
O327   O     0.45724   0.32308   0.77302   0.00000  Uiso   1.00
O328   O     0.04275   0.17692   0.22698   0.00000  Uiso   1.00
O329   O     0.17692   0.45724   0.77302   0.00000  Uiso   1.00
O330   O    -0.00000   0.25000   0.75000   0.00000  Uiso   1.00
O331   O     0.32307   0.04276   0.22698   0.00000  Uiso   1.00
O332   O     0.04275   0.17692   0.77302   0.00000  Uiso   1.00
O333   O     0.45724   0.32308   0.22698   0.00000  Uiso   1.00
O334   O     0.32307   0.04276   0.77302   0.00000  Uiso   1.00
O335   O     0.17692   0.45724   0.22698   0.00000  Uiso   1.00
O336   O     0.45724   0.17693   0.22698   0.00000  Uiso   1.00
O337   O     0.04275   0.32307   0.77302   0.00000  Uiso   1.00
O338   O     0.17692   0.04276   0.22698   0.00000  Uiso   1.00
O339   O     0.32307   0.45724   0.77302   0.00000  Uiso   1.00
O340   O     0.04275   0.32307   0.22698   0.00000  Uiso   1.00
O341   O     0.25000   0.46963   0.33755   0.00000  Uiso   1.00
O342   O     0.45724   0.17693   0.77302   0.00000  Uiso   1.00
O343   O     0.32307   0.45724   0.22698   0.00000  Uiso   1.00
O344   O     0.17692   0.04276   0.77302   0.00000  Uiso   1.00
O345   O     0.25000   0.03037   0.66245   0.00000  Uiso   1.00
O346   O     0.03036   0.25000   0.33755   0.00000  Uiso   1.00
O347   O     0.46963   0.25000   0.66245   0.00000  Uiso   1.00
O348   O     0.25000   0.03037   0.33755   0.00000  Uiso   1.00
Zn349  Zn    0.20659   0.00000   0.21735   0.00000  Uiso   1.00
Zn350  Zn    0.04340   0.25000   0.28265   0.00000  Uiso   1.00
Zn351  Zn    0.25000   0.45659   0.71735   0.00000  Uiso   1.00
Zn352  Zn    0.25000   0.04341   0.28265   0.00000  Uiso   1.00
Zn353  Zn    0.04340   0.25000   0.71735   0.00000  Uiso   1.00
Zn354  Zn    0.45659   0.25000   0.28265   0.00000  Uiso   1.00
Zn355  Zn    0.25000   0.04341   0.71735   0.00000  Uiso   1.00
Zn356  Zn    0.25000   0.45659   0.28265   0.00000  Uiso   1.00
Zn357  Zn    0.29340  -0.00000   0.78265   0.00000  Uiso   1.00
Zn358  Zn   -0.00000   0.20660   0.21735   0.00000  Uiso   1.00
Zn359  Zn    0.00000   0.29340   0.78265   0.00000  Uiso   1.00
Zn360  Zn    0.29340   0.00000   0.21735   0.00000  Uiso   1.00
Zn361  Zn    0.20659  -0.00000   0.78265   0.00000  Uiso   1.00
Zn362  Zn    0.00000   0.29340   0.21735   0.00000  Uiso   1.00
Zn363  Zn    0.00000   0.20659   0.78265   0.00000  Uiso   1.00
Zn364  Zn    0.45659   0.25000   0.71735   0.00000  Uiso   1.00
C365   C     0.98739   0.28126   0.41779   0.00000  Uiso   1.00
C366   C     0.73739   0.46874   0.08221   0.00000  Uiso   1.00
C367   C     0.71915   0.01319   0.54118   0.00000  Uiso   1.00
C368   C     0.98681   0.28085   0.45882   0.00000  Uiso   1.00
C369   C     0.51319   0.21915   0.54118   0.00000  Uiso   1.00
C370   C     0.71915   0.01319   0.45882   0.00000  Uiso   1.00
C371   C     0.78085   0.48681   0.54118   0.00000  Uiso   1.00
C372   C     0.73681   0.46915   0.95882   0.00000  Uiso   1.00
C373   C     0.76319   0.03085   0.04118   0.00000  Uiso   1.00
C374   C     0.53085   0.26318   0.95882   0.00000  Uiso   1.00
C375   C     0.96915   0.23682   0.04118   0.00000  Uiso   1.00
C376   C     0.76319   0.03085   0.95882   0.00000  Uiso   1.00
C377   C     0.96873   0.23740   0.91779   0.00000  Uiso   1.00
C378   C     0.73681   0.46915   0.04118   0.00000  Uiso   1.00
C379   C     0.96915   0.23682   0.95882   0.00000  Uiso   1.00
C380   C     0.53085   0.26318   0.04118   0.00000  Uiso   1.00
C381   C     0.59828   0.34798   0.24976   0.00000  Uiso   1.00
C382   C     0.90172   0.15202   0.75024   0.00000  Uiso   1.00
C383   C     0.65172   0.09798   0.25024   0.00000  Uiso   1.00
C384   C     0.84828   0.40202   0.74976   0.00000  Uiso   1.00
C385   C     0.90172   0.15202   0.24976   0.00000  Uiso   1.00
C386   C     0.59828   0.34798   0.75024   0.00000  Uiso   1.00
C387   C     0.84828   0.40202   0.25024   0.00000  Uiso   1.00
C388   C     0.53127   0.26260   0.08221   0.00000  Uiso   1.00
C389   C     0.65172   0.09798   0.74976   0.00000  Uiso   1.00
C390   C     0.59798   0.15172   0.74976   0.00000  Uiso   1.00
C391   C     0.90202   0.34828   0.25024   0.00000  Uiso   1.00
C392   C     0.65202   0.40172   0.75024   0.00000  Uiso   1.00
C393   C     0.84798   0.09828   0.24976   0.00000  Uiso   1.00
C394   C     0.90202   0.34828   0.74976   0.00000  Uiso   1.00
C395   C     0.59798   0.15172   0.25024   0.00000  Uiso   1.00
C396   C     0.84798   0.09828   0.75024   0.00000  Uiso   1.00
C397   C     0.65202   0.40172   0.24976   0.00000  Uiso   1.00
C398   C     0.50000   0.25000   0.47934   0.00000  Uiso   1.00
C399   C     0.73739   0.46874   0.91779   0.00000  Uiso   1.00
C400   C     0.50000   0.25000   0.52066   0.00000  Uiso   1.00
C401   C     0.75000  -0.00000   0.47934   0.00000  Uiso   1.00
C402   C     0.75000  -0.00000   0.52066   0.00000  Uiso   1.00
C403   C     0.75000   0.00000   0.97934   0.00000  Uiso   1.00
C404   C     0.75000   0.00000   0.02066   0.00000  Uiso   1.00
C405   C     0.50000   0.25000   0.97934   0.00000  Uiso   1.00
C406   C     0.50000   0.25000   0.02066   0.00000  Uiso   1.00
C407   C     0.97577   0.31525   0.39502   0.00000  Uiso   1.00
C408   C     0.93435   0.31716   0.39023   0.00000  Uiso   1.00
C409   C     0.52423   0.18475   0.60498   0.00000  Uiso   1.00
C410   C     0.76261   0.03126   0.08221   0.00000  Uiso   1.00
C411   C     0.56565   0.18284   0.60977   0.00000  Uiso   1.00
C412   C     0.68476   0.02423   0.39502   0.00000  Uiso   1.00
C413   C     0.68284   0.06566   0.39023   0.00000  Uiso   1.00
C414   C     0.81524   0.47577   0.60498   0.00000  Uiso   1.00
C415   C     0.81715   0.43434   0.60977   0.00000  Uiso   1.00
C416   C     0.52423   0.18475   0.39502   0.00000  Uiso   1.00
C417   C     0.56565   0.18284   0.39023   0.00000  Uiso   1.00
C418   C     0.97577   0.31525   0.60498   0.00000  Uiso   1.00
C419   C     0.93435   0.31716   0.60977   0.00000  Uiso   1.00
C420   C     0.81524   0.47577   0.39502   0.00000  Uiso   1.00
C421   C     0.53127   0.26260   0.91779   0.00000  Uiso   1.00
C422   C     0.81716   0.43434   0.39023   0.00000  Uiso   1.00
C423   C     0.68476   0.02423   0.60498   0.00000  Uiso   1.00
C424   C     0.68284   0.06566   0.60977   0.00000  Uiso   1.00
C425   C     0.77423   0.06524   0.89502   0.00000  Uiso   1.00
C426   C     0.81565   0.06716   0.89023   0.00000  Uiso   1.00
C427   C     0.72577   0.43476   0.10498   0.00000  Uiso   1.00
C428   C     0.68434   0.43284   0.10977   0.00000  Uiso   1.00
C429   C     0.93475   0.22579   0.89502   0.00000  Uiso   1.00
C430   C     0.93283   0.18436   0.89023   0.00000  Uiso   1.00
C431   C     0.56525   0.27422   0.10498   0.00000  Uiso   1.00
C432   C     0.96873   0.23740   0.08221   0.00000  Uiso   1.00
C433   C     0.56717   0.31564   0.10977   0.00000  Uiso   1.00
C434   C     0.72577   0.43476   0.89502   0.00000  Uiso   1.00
C435   C     0.68435   0.43284   0.89023   0.00000  Uiso   1.00
C436   C     0.77423   0.06524   0.10498   0.00000  Uiso   1.00
C437   C     0.81566   0.06716   0.10977   0.00000  Uiso   1.00
C438   C     0.56525   0.27421   0.89502   0.00000  Uiso   1.00
C439   C     0.56717   0.31564   0.89023   0.00000  Uiso   1.00
C440   C     0.93475   0.22578   0.10498   0.00000  Uiso   1.00
C441   C     0.93283   0.18436   0.10977   0.00000  Uiso   1.00
C442   C     0.50000   0.25000   0.39786   0.00000  Uiso   1.00
C443   C     0.50000   0.25000   0.60214   0.00000  Uiso   1.00
C444   C     0.75000  -0.00000   0.39786   0.00000  Uiso   1.00
C445   C     0.51261   0.21874   0.58221   0.00000  Uiso   1.00
C446   C     0.75000  -0.00000   0.60214   0.00000  Uiso   1.00
C447   C     0.75000   0.00000   0.89786   0.00000  Uiso   1.00
C448   C     0.75000   0.00000   0.10214   0.00000  Uiso   1.00
C449   C     0.50000   0.25000   0.89786   0.00000  Uiso   1.00
C450   C     0.50000   0.25000   0.10214   0.00000  Uiso   1.00
C451   C     0.52655   0.18927   0.47997   0.00000  Uiso   1.00
C452   C     0.97345   0.31073   0.52003   0.00000  Uiso   1.00
C453   C     0.81073   0.47344   0.47997   0.00000  Uiso   1.00
C454   C     0.68927   0.02656   0.52003   0.00000  Uiso   1.00
C455   C     0.97345   0.31073   0.47997   0.00000  Uiso   1.00
C456   C     0.71874   0.01261   0.41779   0.00000  Uiso   1.00
C457   C     0.52655   0.18927   0.52003   0.00000  Uiso   1.00
C458   C     0.68927   0.02656   0.47997   0.00000  Uiso   1.00
C459   C     0.81073   0.47344   0.52003   0.00000  Uiso   1.00
C460   C     0.72345   0.43927   0.97997   0.00000  Uiso   1.00
C461   C     0.77655   0.06073   0.02003   0.00000  Uiso   1.00
C462   C     0.56074   0.27654   0.97997   0.00000  Uiso   1.00
C463   C     0.93926   0.22346   0.02003   0.00000  Uiso   1.00
C464   C     0.77655   0.06073   0.97997   0.00000  Uiso   1.00
C465   C     0.72345   0.43927   0.02003   0.00000  Uiso   1.00
C466   C     0.93926   0.22346   0.97997   0.00000  Uiso   1.00
C467   C     0.78126   0.48739   0.58221   0.00000  Uiso   1.00
C468   C     0.56074   0.27654   0.02003   0.00000  Uiso   1.00
C469   C     0.75000  -0.00000   0.35566   0.00000  Uiso   1.00
C470   C     0.75000  -0.00000   0.64434   0.00000  Uiso   1.00
C471   C     0.50000   0.25000   0.35566   0.00000  Uiso   1.00
C472   C     0.50000   0.25000   0.64434   0.00000  Uiso   1.00
C473   C     0.50000   0.25000   0.85566   0.00000  Uiso   1.00
C474   C     0.50000   0.25000   0.14434   0.00000  Uiso   1.00
C475   C     0.75000  -0.00000   0.85566   0.00000  Uiso   1.00
C476   C     0.75000  -0.00000   0.14434   0.00000  Uiso   1.00
C477   C     0.67990   0.07002   0.25007   0.00000  Uiso   1.00
C478   C     0.51261   0.21874   0.41779   0.00000  Uiso   1.00
C479   C     0.82010   0.42998   0.74993   0.00000  Uiso   1.00
C480   C     0.92990   0.17998   0.24993   0.00000  Uiso   1.00
C481   C     0.57010   0.32002   0.75007   0.00000  Uiso   1.00
C482   C     0.82010   0.42998   0.25007   0.00000  Uiso   1.00
C483   C     0.67990   0.07002   0.74993   0.00000  Uiso   1.00
C484   C     0.57010   0.32002   0.24993   0.00000  Uiso   1.00
C485   C     0.92990   0.17998   0.75007   0.00000  Uiso   1.00
C486   C     0.67998   0.42990   0.75007   0.00000  Uiso   1.00
C487   C     0.82002   0.07010   0.24993   0.00000  Uiso   1.00
C488   C     0.92998   0.32010   0.74993   0.00000  Uiso   1.00
C489   C     0.98739   0.28126   0.58221   0.00000  Uiso   1.00
C490   C     0.57002   0.17990   0.25007   0.00000  Uiso   1.00
C491   C     0.82002   0.07010   0.75007   0.00000  Uiso   1.00
C492   C     0.67998   0.42990   0.24993   0.00000  Uiso   1.00
C493   C     0.57002   0.17990   0.74993   0.00000  Uiso   1.00
C494   C     0.92998   0.32010   0.25007   0.00000  Uiso   1.00
C495   C     0.62341   0.40333   0.22282   0.00000  Uiso   1.00
C496   C     0.87659   0.09667   0.77719   0.00000  Uiso   1.00
C497   C     0.59628   0.12301   0.22346   0.00000  Uiso   1.00
C498   C     0.90372   0.37699   0.77654   0.00000  Uiso   1.00
C499   C     0.87659   0.09667   0.22282   0.00000  Uiso   1.00
C500   C     0.78126   0.48739   0.41779   0.00000  Uiso   1.00
C501   C     0.62341   0.40333   0.77719   0.00000  Uiso   1.00
C502   C     0.90372   0.37699   0.22346   0.00000  Uiso   1.00
C503   C     0.59628   0.12301   0.77654   0.00000  Uiso   1.00
C504   C     0.62301   0.09628   0.77654   0.00000  Uiso   1.00
C505   C     0.87699   0.40372   0.22346   0.00000  Uiso   1.00
C506   C     0.59667   0.37659   0.77719   0.00000  Uiso   1.00
C507   C     0.90333   0.12341   0.22282   0.00000  Uiso   1.00
C508   C     0.87699   0.40372   0.77654   0.00000  Uiso   1.00
C509   C     0.62301   0.09628   0.22346   0.00000  Uiso   1.00
C510   C     0.90333   0.12341   0.77719   0.00000  Uiso   1.00
C511   C     0.71874   0.01261   0.58221   0.00000  Uiso   1.00
C512   C     0.59667   0.37659   0.22282   0.00000  Uiso   1.00
C513   C     0.87301   0.15372   0.72346   0.00000  Uiso   1.00
C514   C     0.62699   0.34628   0.27654   0.00000  Uiso   1.00
C515   C     0.84667   0.37341   0.72282   0.00000  Uiso   1.00
C516   C     0.65333   0.12659   0.27719   0.00000  Uiso   1.00
C517   C     0.62699   0.34628   0.72346   0.00000  Uiso   1.00
C518   C     0.87301   0.15372   0.27654   0.00000  Uiso   1.00
C519   C     0.65333   0.12659   0.72281   0.00000  Uiso   1.00
C520   C     0.84667   0.37341   0.27719   0.00000  Uiso   1.00
C521   C     0.87341   0.34667   0.27719   0.00000  Uiso   1.00
C522   C     0.76261   0.03126   0.91779   0.00000  Uiso   1.00
C523   C     0.62659   0.15333   0.72281   0.00000  Uiso   1.00
C524   C     0.84628   0.12699   0.27654   0.00000  Uiso   1.00
C525   C     0.65372   0.37301   0.72346   0.00000  Uiso   1.00
C526   C     0.62659   0.15333   0.27719   0.00000  Uiso   1.00
C527   C     0.87341   0.34667   0.72282   0.00000  Uiso   1.00
C528   C     0.65372   0.37301   0.27654   0.00000  Uiso   1.00
C529   C     0.84628   0.12699   0.72346   0.00000  Uiso   1.00
C530   C     0.51319   0.21915   0.45882   0.00000  Uiso   1.00
C531   C     0.98681   0.28085   0.54118   0.00000  Uiso   1.00
C532   C     0.78085   0.48681   0.45882   0.00000  Uiso   1.00
H533   H     0.53755   0.16524   0.46622   0.00000  Uiso   1.00
H534   H     0.78756   0.08476   0.03379   0.00000  Uiso   1.00
H535   H     0.93221   0.17043   0.91879   0.00000  Uiso   1.00
H536   H     0.90772   0.17699   0.87399   0.00000  Uiso   1.00
H537   H     0.90957   0.23623   0.90900   0.00000  Uiso   1.00
H538   H     0.93377   0.23835   0.86576   0.00000  Uiso   1.00
H539   H     0.56779   0.32957   0.08121   0.00000  Uiso   1.00
H540   H     0.54323   0.32572   0.12628   0.00000  Uiso   1.00
H541   H     0.59227   0.32302   0.12601   0.00000  Uiso   1.00
H542   H     0.56623   0.26166   0.13424   0.00000  Uiso   1.00
H543   H     0.59043   0.26378   0.09101   0.00000  Uiso   1.00
H544   H     0.67041   0.43223   0.91879   0.00000  Uiso   1.00
H545   H     0.58477   0.28754   0.96622   0.00000  Uiso   1.00
H546   H     0.67427   0.45679   0.87372   0.00000  Uiso   1.00
H547   H     0.67697   0.40774   0.87399   0.00000  Uiso   1.00
H548   H     0.73833   0.43377   0.86576   0.00000  Uiso   1.00
H549   H     0.73620   0.40957   0.90900   0.00000  Uiso   1.00
H550   H     0.82573   0.04321   0.12628   0.00000  Uiso   1.00
H551   H     0.82959   0.06777   0.08121   0.00000  Uiso   1.00
H552   H     0.82304   0.09225   0.12601   0.00000  Uiso   1.00
H553   H     0.76380   0.09043   0.09100   0.00000  Uiso   1.00
H554   H     0.76167   0.06623   0.13424   0.00000  Uiso   1.00
H555   H     0.54323   0.32572   0.87372   0.00000  Uiso   1.00
H556   H     0.91523   0.21246   0.03379   0.00000  Uiso   1.00
H557   H     0.56779   0.32957   0.91879   0.00000  Uiso   1.00
H558   H     0.59227   0.32301   0.87399   0.00000  Uiso   1.00
H559   H     0.59043   0.26377   0.90900   0.00000  Uiso   1.00
H560   H     0.56623   0.26165   0.86576   0.00000  Uiso   1.00
H561   H     0.93221   0.17043   0.08121   0.00000  Uiso   1.00
H562   H     0.95677   0.17428   0.12628   0.00000  Uiso   1.00
H563   H     0.90773   0.17698   0.12601   0.00000  Uiso   1.00
H564   H     0.93377   0.23834   0.13424   0.00000  Uiso   1.00
H565   H     0.90957   0.23622   0.09101   0.00000  Uiso   1.00
H566   H     0.78756   0.08476   0.96622   0.00000  Uiso   1.00
H567   H     0.71244   0.41524   0.03379   0.00000  Uiso   1.00
H568   H     0.91523   0.21246   0.96622   0.00000  Uiso   1.00
H569   H     0.58477   0.28754   0.03379   0.00000  Uiso   1.00
H570   H     0.62169   0.42516   0.20172   0.00000  Uiso   1.00
H571   H     0.87831   0.07484   0.79828   0.00000  Uiso   1.00
H572   H     0.57441   0.12124   0.20240   0.00000  Uiso   1.00
H573   H     0.96245   0.33476   0.53379   0.00000  Uiso   1.00
H574   H     0.92559   0.37876   0.79760   0.00000  Uiso   1.00
H575   H     0.87831   0.07484   0.20172   0.00000  Uiso   1.00
H576   H     0.62169   0.42516   0.79828   0.00000  Uiso   1.00
H577   H     0.92559   0.37876   0.20240   0.00000  Uiso   1.00
H578   H     0.57441   0.12124   0.79760   0.00000  Uiso   1.00
H579   H     0.62124   0.07441   0.79760   0.00000  Uiso   1.00
H580   H     0.87876   0.42559   0.20240   0.00000  Uiso   1.00
H581   H     0.57483   0.37831   0.79828   0.00000  Uiso   1.00
H582   H     0.92516   0.12169   0.20172   0.00000  Uiso   1.00
H583   H     0.87876   0.42559   0.79760   0.00000  Uiso   1.00
H584   H     0.83476   0.46244   0.46622   0.00000  Uiso   1.00
H585   H     0.62124   0.07441   0.20240   0.00000  Uiso   1.00
H586   H     0.92516   0.12169   0.79828   0.00000  Uiso   1.00
H587   H     0.57483   0.37831   0.20172   0.00000  Uiso   1.00
H588   H     0.87124   0.17559   0.70241   0.00000  Uiso   1.00
H589   H     0.62876   0.32441   0.29760   0.00000  Uiso   1.00
H590   H     0.82484   0.37169   0.70172   0.00000  Uiso   1.00
H591   H     0.67516   0.12831   0.29828   0.00000  Uiso   1.00
H592   H     0.62876   0.32441   0.70241   0.00000  Uiso   1.00
H593   H     0.87124   0.17559   0.29760   0.00000  Uiso   1.00
H594   H     0.67516   0.12831   0.70172   0.00000  Uiso   1.00
H595   H     0.66524   0.03756   0.53379   0.00000  Uiso   1.00
H596   H     0.82484   0.37169   0.29828   0.00000  Uiso   1.00
H597   H     0.87169   0.32484   0.29828   0.00000  Uiso   1.00
H598   H     0.62831   0.17516   0.70172   0.00000  Uiso   1.00
H599   H     0.82441   0.12876   0.29760   0.00000  Uiso   1.00
H600   H     0.67559   0.37124   0.70241   0.00000  Uiso   1.00
H601   H     0.62831   0.17516   0.29828   0.00000  Uiso   1.00
H602   H     0.87169   0.32484   0.70172   0.00000  Uiso   1.00
H603   H     0.67559   0.37124   0.29760   0.00000  Uiso   1.00
H604   H     0.82441   0.12876   0.70241   0.00000  Uiso   1.00
H605   H     0.92427   0.29321   0.37372   0.00000  Uiso   1.00
H606   H     0.96245   0.33476   0.46622   0.00000  Uiso   1.00
H607   H     0.92041   0.31777   0.41879   0.00000  Uiso   1.00
H608   H     0.92697   0.34226   0.37399   0.00000  Uiso   1.00
H609   H     0.98621   0.34043   0.40900   0.00000  Uiso   1.00
H610   H     0.98833   0.31623   0.36576   0.00000  Uiso   1.00
H611   H     0.57959   0.18223   0.58121   0.00000  Uiso   1.00
H612   H     0.57573   0.20678   0.62628   0.00000  Uiso   1.00
H613   H     0.57303   0.15774   0.62601   0.00000  Uiso   1.00
H614   H     0.51167   0.18377   0.63424   0.00000  Uiso   1.00
H615   H     0.51379   0.15957   0.59100   0.00000  Uiso   1.00
H616   H     0.68223   0.07959   0.41879   0.00000  Uiso   1.00
H617   H     0.53755   0.16524   0.53379   0.00000  Uiso   1.00
H618   H     0.70679   0.07573   0.37372   0.00000  Uiso   1.00
H619   H     0.65774   0.07303   0.37399   0.00000  Uiso   1.00
H620   H     0.68377   0.01167   0.36576   0.00000  Uiso   1.00
H621   H     0.65957   0.01380   0.40900   0.00000  Uiso   1.00
H622   H     0.79321   0.42427   0.62628   0.00000  Uiso   1.00
H623   H     0.81777   0.42041   0.58121   0.00000  Uiso   1.00
H624   H     0.84225   0.42696   0.62601   0.00000  Uiso   1.00
H625   H     0.84043   0.48620   0.59100   0.00000  Uiso   1.00
H626   H     0.81623   0.48832   0.63424   0.00000  Uiso   1.00
H627   H     0.57573   0.20679   0.37372   0.00000  Uiso   1.00
H628   H     0.66524   0.03756   0.46622   0.00000  Uiso   1.00
H629   H     0.57959   0.18223   0.41879   0.00000  Uiso   1.00
H630   H     0.57303   0.15774   0.37399   0.00000  Uiso   1.00
H631   H     0.51379   0.15957   0.40900   0.00000  Uiso   1.00
H632   H     0.51167   0.18377   0.36576   0.00000  Uiso   1.00
H633   H     0.92041   0.31778   0.58121   0.00000  Uiso   1.00
H634   H     0.92427   0.29322   0.62628   0.00000  Uiso   1.00
H635   H     0.92697   0.34226   0.62601   0.00000  Uiso   1.00
H636   H     0.98833   0.31623   0.63424   0.00000  Uiso   1.00
H637   H     0.98621   0.34043   0.59100   0.00000  Uiso   1.00
H638   H     0.81777   0.42041   0.41879   0.00000  Uiso   1.00
H639   H     0.83476   0.46244   0.53379   0.00000  Uiso   1.00
H640   H     0.79321   0.42427   0.37372   0.00000  Uiso   1.00
H641   H     0.84226   0.42696   0.37399   0.00000  Uiso   1.00
H642   H     0.81623   0.48833   0.36576   0.00000  Uiso   1.00
H643   H     0.84043   0.48620   0.40900   0.00000  Uiso   1.00
H644   H     0.70679   0.07573   0.62628   0.00000  Uiso   1.00
H645   H     0.68223   0.07959   0.58121   0.00000  Uiso   1.00
H646   H     0.65775   0.07304   0.62601   0.00000  Uiso   1.00
H647   H     0.65957   0.01380   0.59100   0.00000  Uiso   1.00
H648   H     0.68377   0.01168   0.63424   0.00000  Uiso   1.00
H649   H     0.82959   0.06777   0.91879   0.00000  Uiso   1.00
H650   H     0.71244   0.41524   0.96622   0.00000  Uiso   1.00
H651   H     0.82573   0.04321   0.87372   0.00000  Uiso   1.00
H652   H     0.82303   0.09226   0.87399   0.00000  Uiso   1.00
H653   H     0.76167   0.06623   0.86576   0.00000  Uiso   1.00
H654   H     0.76380   0.09043   0.90900   0.00000  Uiso   1.00
H655   H     0.67427   0.45679   0.12628   0.00000  Uiso   1.00
H656   H     0.67041   0.43223   0.08121   0.00000  Uiso   1.00
H657   H     0.67697   0.40774   0.12601   0.00000  Uiso   1.00
H658   H     0.73620   0.40957   0.09100   0.00000  Uiso   1.00
H659   H     0.73833   0.43377   0.13424   0.00000  Uiso   1.00
H660   H     0.95677   0.17428   0.87372   0.00000  Uiso   1.00
O661   O     0.75000   0.00000   0.25000   0.00000  Uiso   1.00
O662   O     0.75000   0.46963   0.66245   0.00000  Uiso   1.00
O663   O     0.96963   0.25000   0.33755   0.00000  Uiso   1.00
O664   O     0.53036   0.25000   0.66245   0.00000  Uiso   1.00
O665   O     0.50000   0.21964   0.83755   0.00000  Uiso   1.00
O666   O     0.50000   0.28036   0.16245   0.00000  Uiso   1.00
O667   O     0.78036   0.00000   0.83755   0.00000  Uiso   1.00
O668   O     0.71963  -0.00000   0.16245   0.00000  Uiso   1.00
O669   O     0.50000   0.28037   0.83755   0.00000  Uiso   1.00
O670   O     0.50000   0.21963   0.16245   0.00000  Uiso   1.00
O671   O     0.71963   0.00000   0.83755   0.00000  Uiso   1.00
O672   O     0.75000  -0.00000   0.75000   0.00000  Uiso   1.00
O673   O     0.78036  -0.00000   0.16245   0.00000  Uiso   1.00
O674   O     0.70724   0.07308   0.27302   0.00000  Uiso   1.00
O675   O     0.79275   0.42692   0.72698   0.00000  Uiso   1.00
O676   O     0.92692   0.20725   0.27302   0.00000  Uiso   1.00
O677   O     0.57307   0.29275   0.72698   0.00000  Uiso   1.00
O678   O     0.79275   0.42692   0.27302   0.00000  Uiso   1.00
O679   O     0.70724   0.07308   0.72698   0.00000  Uiso   1.00
O680   O     0.57307   0.29275   0.27302   0.00000  Uiso   1.00
O681   O     0.92692   0.20725   0.72698   0.00000  Uiso   1.00
O682   O     0.70724   0.42692   0.72698   0.00000  Uiso   1.00
O683   O     0.50000   0.25000   0.25000   0.00000  Uiso   1.00
O684   O     0.79275   0.07308   0.27302   0.00000  Uiso   1.00
O685   O     0.92692   0.29276   0.72698   0.00000  Uiso   1.00
O686   O     0.57307   0.20724   0.27302   0.00000  Uiso   1.00
O687   O     0.79275   0.07308   0.72698   0.00000  Uiso   1.00
O688   O     0.70724   0.42692   0.27302   0.00000  Uiso   1.00
O689   O     0.57307   0.20724   0.72698   0.00000  Uiso   1.00
O690   O     0.92692   0.29276   0.27302   0.00000  Uiso   1.00
O691   O     0.95724   0.32308   0.77302   0.00000  Uiso   1.00
O692   O     0.54275   0.17692   0.22698   0.00000  Uiso   1.00
O693   O     0.67692   0.45724   0.77302   0.00000  Uiso   1.00
O694   O     0.50000   0.25000   0.75000   0.00000  Uiso   1.00
O695   O     0.82307   0.04276   0.22698   0.00000  Uiso   1.00
O696   O     0.54275   0.17692   0.77302   0.00000  Uiso   1.00
O697   O     0.95724   0.32308   0.22698   0.00000  Uiso   1.00
O698   O     0.82307   0.04276   0.77302   0.00000  Uiso   1.00
O699   O     0.67692   0.45724   0.22698   0.00000  Uiso   1.00
O700   O     0.95724   0.17693   0.22698   0.00000  Uiso   1.00
O701   O     0.54275   0.32307   0.77302   0.00000  Uiso   1.00
O702   O     0.67692   0.04276   0.22698   0.00000  Uiso   1.00
O703   O     0.82307   0.45724   0.77302   0.00000  Uiso   1.00
O704   O     0.54275   0.32307   0.22698   0.00000  Uiso   1.00
O705   O     0.75000   0.46963   0.33755   0.00000  Uiso   1.00
O706   O     0.95724   0.17693   0.77302   0.00000  Uiso   1.00
O707   O     0.82307   0.45724   0.22698   0.00000  Uiso   1.00
O708   O     0.67692   0.04276   0.77302   0.00000  Uiso   1.00
O709   O     0.75000   0.03037   0.66245   0.00000  Uiso   1.00
O710   O     0.53036   0.25000   0.33755   0.00000  Uiso   1.00
O711   O     0.96963   0.25000   0.66245   0.00000  Uiso   1.00
O712   O     0.75000   0.03037   0.33755   0.00000  Uiso   1.00
Zn713  Zn    0.70659   0.00000   0.21735   0.00000  Uiso   1.00
Zn714  Zn    0.54340   0.25000   0.28265   0.00000  Uiso   1.00
Zn715  Zn    0.75000   0.45659   0.71735   0.00000  Uiso   1.00
Zn716  Zn    0.75000   0.04341   0.28265   0.00000  Uiso   1.00
Zn717  Zn    0.54340   0.25000   0.71735   0.00000  Uiso   1.00
Zn718  Zn    0.95659   0.25000   0.28265   0.00000  Uiso   1.00
Zn719  Zn    0.75000   0.04341   0.71735   0.00000  Uiso   1.00
Zn720  Zn    0.75000   0.45659   0.28265   0.00000  Uiso   1.00
Zn721  Zn    0.79340  -0.00000   0.78265   0.00000  Uiso   1.00
Zn722  Zn    0.50000   0.20660   0.21735   0.00000  Uiso   1.00
Zn723  Zn    0.50000   0.29340   0.78265   0.00000  Uiso   1.00
Zn724  Zn    0.79340   0.00000   0.21735   0.00000  Uiso   1.00
Zn725  Zn    0.70659  -0.00000   0.78265   0.00000  Uiso   1.00
Zn726  Zn    0.50000   0.29340   0.21735   0.00000  Uiso   1.00
Zn727  Zn    0.50000   0.20659   0.78265   0.00000  Uiso   1.00
Zn728  Zn    0.95659   0.25000   0.71735   0.00000  Uiso   1.00
C729   C     0.48739   0.78126   0.41779   0.00000  Uiso   1.00
C730   C     0.23739   0.96874   0.08221   0.00000  Uiso   1.00
C731   C     0.21915   0.51319   0.54118   0.00000  Uiso   1.00
C732   C     0.48681   0.78085   0.45882   0.00000  Uiso   1.00
C733   C     0.01319   0.71915   0.54118   0.00000  Uiso   1.00
C734   C     0.21915   0.51319   0.45882   0.00000  Uiso   1.00
C735   C     0.28085   0.98681   0.54118   0.00000  Uiso   1.00
C736   C     0.23681   0.96915   0.95882   0.00000  Uiso   1.00
C737   C     0.26319   0.53085   0.04118   0.00000  Uiso   1.00
C738   C     0.03085   0.76318   0.95882   0.00000  Uiso   1.00
C739   C     0.46915   0.73682   0.04118   0.00000  Uiso   1.00
C740   C     0.26319   0.53085   0.95882   0.00000  Uiso   1.00
C741   C     0.46873   0.73740   0.91779   0.00000  Uiso   1.00
C742   C     0.23681   0.96915   0.04118   0.00000  Uiso   1.00
C743   C     0.46915   0.73682   0.95882   0.00000  Uiso   1.00
C744   C     0.03085   0.76318   0.04118   0.00000  Uiso   1.00
C745   C     0.09828   0.84798   0.24976   0.00000  Uiso   1.00
C746   C     0.40172   0.65202   0.75024   0.00000  Uiso   1.00
C747   C     0.15172   0.59798   0.25024   0.00000  Uiso   1.00
C748   C     0.34828   0.90202   0.74976   0.00000  Uiso   1.00
C749   C     0.40172   0.65202   0.24976   0.00000  Uiso   1.00
C750   C     0.09828   0.84798   0.75024   0.00000  Uiso   1.00
C751   C     0.34828   0.90202   0.25024   0.00000  Uiso   1.00
C752   C     0.03127   0.76260   0.08221   0.00000  Uiso   1.00
C753   C     0.15172   0.59798   0.74976   0.00000  Uiso   1.00
C754   C     0.09798   0.65172   0.74976   0.00000  Uiso   1.00
C755   C     0.40202   0.84828   0.25024   0.00000  Uiso   1.00
C756   C     0.15202   0.90172   0.75024   0.00000  Uiso   1.00
C757   C     0.34798   0.59828   0.24976   0.00000  Uiso   1.00
C758   C     0.40202   0.84828   0.74976   0.00000  Uiso   1.00
C759   C     0.09798   0.65172   0.25024   0.00000  Uiso   1.00
C760   C     0.34798   0.59828   0.75024   0.00000  Uiso   1.00
C761   C     0.15202   0.90172   0.24976   0.00000  Uiso   1.00
C762   C     0.00000   0.75000   0.47934   0.00000  Uiso   1.00
C763   C     0.23739   0.96874   0.91779   0.00000  Uiso   1.00
C764   C    -0.00000   0.75000   0.52066   0.00000  Uiso   1.00
C765   C     0.25000   0.50000   0.47934   0.00000  Uiso   1.00
C766   C     0.25000   0.50000   0.52066   0.00000  Uiso   1.00
C767   C     0.25000   0.50000   0.97934   0.00000  Uiso   1.00
C768   C     0.25000   0.50000   0.02066   0.00000  Uiso   1.00
C769   C    -0.00000   0.75000   0.97934   0.00000  Uiso   1.00
C770   C    -0.00000   0.75000   0.02066   0.00000  Uiso   1.00
C771   C     0.47577   0.81525   0.39502   0.00000  Uiso   1.00
C772   C     0.43435   0.81716   0.39023   0.00000  Uiso   1.00
C773   C     0.02423   0.68475   0.60498   0.00000  Uiso   1.00
C774   C     0.26261   0.53126   0.08221   0.00000  Uiso   1.00
C775   C     0.06565   0.68284   0.60977   0.00000  Uiso   1.00
C776   C     0.18476   0.52423   0.39502   0.00000  Uiso   1.00
C777   C     0.18284   0.56566   0.39023   0.00000  Uiso   1.00
C778   C     0.31524   0.97577   0.60498   0.00000  Uiso   1.00
C779   C     0.31715   0.93434   0.60977   0.00000  Uiso   1.00
C780   C     0.02423   0.68475   0.39502   0.00000  Uiso   1.00
C781   C     0.06565   0.68284   0.39023   0.00000  Uiso   1.00
C782   C     0.47577   0.81525   0.60498   0.00000  Uiso   1.00
C783   C     0.43435   0.81716   0.60977   0.00000  Uiso   1.00
C784   C     0.31524   0.97577   0.39502   0.00000  Uiso   1.00
C785   C     0.03127   0.76260   0.91779   0.00000  Uiso   1.00
C786   C     0.31716   0.93434   0.39023   0.00000  Uiso   1.00
C787   C     0.18476   0.52423   0.60498   0.00000  Uiso   1.00
C788   C     0.18284   0.56566   0.60977   0.00000  Uiso   1.00
C789   C     0.27423   0.56524   0.89502   0.00000  Uiso   1.00
C790   C     0.31565   0.56716   0.89023   0.00000  Uiso   1.00
C791   C     0.22577   0.93476   0.10498   0.00000  Uiso   1.00
C792   C     0.18434   0.93284   0.10977   0.00000  Uiso   1.00
C793   C     0.43475   0.72579   0.89502   0.00000  Uiso   1.00
C794   C     0.43283   0.68436   0.89023   0.00000  Uiso   1.00
C795   C     0.06525   0.77422   0.10498   0.00000  Uiso   1.00
C796   C     0.46873   0.73740   0.08221   0.00000  Uiso   1.00
C797   C     0.06717   0.81564   0.10977   0.00000  Uiso   1.00
C798   C     0.22577   0.93476   0.89502   0.00000  Uiso   1.00
C799   C     0.18435   0.93284   0.89023   0.00000  Uiso   1.00
C800   C     0.27423   0.56524   0.10498   0.00000  Uiso   1.00
C801   C     0.31566   0.56716   0.10977   0.00000  Uiso   1.00
C802   C     0.06525   0.77421   0.89502   0.00000  Uiso   1.00
C803   C     0.06717   0.81564   0.89023   0.00000  Uiso   1.00
C804   C     0.43475   0.72578   0.10498   0.00000  Uiso   1.00
C805   C     0.43283   0.68436   0.10977   0.00000  Uiso   1.00
C806   C    -0.00000   0.75000   0.39786   0.00000  Uiso   1.00
C807   C    -0.00000   0.75000   0.60214   0.00000  Uiso   1.00
C808   C     0.25000   0.50000   0.39786   0.00000  Uiso   1.00
C809   C     0.01261   0.71874   0.58221   0.00000  Uiso   1.00
C810   C     0.25000   0.50000   0.60214   0.00000  Uiso   1.00
C811   C     0.25000   0.50000   0.89786   0.00000  Uiso   1.00
C812   C     0.25000   0.50000   0.10214   0.00000  Uiso   1.00
C813   C    -0.00000   0.75000   0.89786   0.00000  Uiso   1.00
C814   C    -0.00000   0.75000   0.10214   0.00000  Uiso   1.00
C815   C     0.02655   0.68927   0.47997   0.00000  Uiso   1.00
C816   C     0.47345   0.81073   0.52003   0.00000  Uiso   1.00
C817   C     0.31073   0.97344   0.47997   0.00000  Uiso   1.00
C818   C     0.18927   0.52656   0.52003   0.00000  Uiso   1.00
C819   C     0.47345   0.81073   0.47997   0.00000  Uiso   1.00
C820   C     0.21874   0.51261   0.41779   0.00000  Uiso   1.00
C821   C     0.02655   0.68927   0.52003   0.00000  Uiso   1.00
C822   C     0.18927   0.52656   0.47997   0.00000  Uiso   1.00
C823   C     0.31073   0.97344   0.52003   0.00000  Uiso   1.00
C824   C     0.22345   0.93927   0.97997   0.00000  Uiso   1.00
C825   C     0.27655   0.56073   0.02003   0.00000  Uiso   1.00
C826   C     0.06074   0.77654   0.97997   0.00000  Uiso   1.00
C827   C     0.43926   0.72346   0.02003   0.00000  Uiso   1.00
C828   C     0.27655   0.56073   0.97997   0.00000  Uiso   1.00
C829   C     0.22345   0.93927   0.02003   0.00000  Uiso   1.00
C830   C     0.43926   0.72346   0.97997   0.00000  Uiso   1.00
C831   C     0.28126   0.98739   0.58221   0.00000  Uiso   1.00
C832   C     0.06074   0.77654   0.02003   0.00000  Uiso   1.00
C833   C     0.25000   0.50000   0.35566   0.00000  Uiso   1.00
C834   C     0.25000   0.50000   0.64434   0.00000  Uiso   1.00
C835   C    -0.00000   0.75000   0.35566   0.00000  Uiso   1.00
C836   C    -0.00000   0.75000   0.64434   0.00000  Uiso   1.00
C837   C     0.00000   0.75000   0.85566   0.00000  Uiso   1.00
C838   C    -0.00000   0.75000   0.14434   0.00000  Uiso   1.00
C839   C     0.25000   0.50000   0.85566   0.00000  Uiso   1.00
C840   C     0.25000   0.50000   0.14434   0.00000  Uiso   1.00
C841   C     0.17990   0.57002   0.25007   0.00000  Uiso   1.00
C842   C     0.01261   0.71874   0.41779   0.00000  Uiso   1.00
C843   C     0.32010   0.92998   0.74993   0.00000  Uiso   1.00
C844   C     0.42990   0.67998   0.24993   0.00000  Uiso   1.00
C845   C     0.07010   0.82002   0.75007   0.00000  Uiso   1.00
C846   C     0.32010   0.92998   0.25007   0.00000  Uiso   1.00
C847   C     0.17990   0.57002   0.74993   0.00000  Uiso   1.00
C848   C     0.07010   0.82002   0.24993   0.00000  Uiso   1.00
C849   C     0.42990   0.67998   0.75007   0.00000  Uiso   1.00
C850   C     0.17998   0.92990   0.75007   0.00000  Uiso   1.00
C851   C     0.32002   0.57010   0.24993   0.00000  Uiso   1.00
C852   C     0.42998   0.82010   0.74993   0.00000  Uiso   1.00
C853   C     0.48739   0.78126   0.58221   0.00000  Uiso   1.00
C854   C     0.07002   0.67990   0.25007   0.00000  Uiso   1.00
C855   C     0.32002   0.57010   0.75007   0.00000  Uiso   1.00
C856   C     0.17998   0.92990   0.24993   0.00000  Uiso   1.00
C857   C     0.07002   0.67990   0.74993   0.00000  Uiso   1.00
C858   C     0.42998   0.82010   0.25007   0.00000  Uiso   1.00
C859   C     0.12341   0.90333   0.22282   0.00000  Uiso   1.00
C860   C     0.37659   0.59667   0.77719   0.00000  Uiso   1.00
C861   C     0.09628   0.62301   0.22346   0.00000  Uiso   1.00
C862   C     0.40372   0.87699   0.77654   0.00000  Uiso   1.00
C863   C     0.37659   0.59667   0.22282   0.00000  Uiso   1.00
C864   C     0.28126   0.98739   0.41779   0.00000  Uiso   1.00
C865   C     0.12341   0.90333   0.77719   0.00000  Uiso   1.00
C866   C     0.40372   0.87699   0.22346   0.00000  Uiso   1.00
C867   C     0.09628   0.62301   0.77654   0.00000  Uiso   1.00
C868   C     0.12301   0.59628   0.77654   0.00000  Uiso   1.00
C869   C     0.37699   0.90372   0.22346   0.00000  Uiso   1.00
C870   C     0.09667   0.87659   0.77719   0.00000  Uiso   1.00
C871   C     0.40333   0.62341   0.22282   0.00000  Uiso   1.00
C872   C     0.37699   0.90372   0.77654   0.00000  Uiso   1.00
C873   C     0.12301   0.59628   0.22346   0.00000  Uiso   1.00
C874   C     0.40333   0.62341   0.77719   0.00000  Uiso   1.00
C875   C     0.21874   0.51261   0.58221   0.00000  Uiso   1.00
C876   C     0.09667   0.87659   0.22282   0.00000  Uiso   1.00
C877   C     0.37301   0.65372   0.72346   0.00000  Uiso   1.00
C878   C     0.12699   0.84628   0.27654   0.00000  Uiso   1.00
C879   C     0.34667   0.87341   0.72282   0.00000  Uiso   1.00
C880   C     0.15333   0.62659   0.27719   0.00000  Uiso   1.00
C881   C     0.12699   0.84628   0.72346   0.00000  Uiso   1.00
C882   C     0.37301   0.65372   0.27654   0.00000  Uiso   1.00
C883   C     0.15333   0.62659   0.72281   0.00000  Uiso   1.00
C884   C     0.34667   0.87341   0.27719   0.00000  Uiso   1.00
C885   C     0.37341   0.84667   0.27719   0.00000  Uiso   1.00
C886   C     0.26261   0.53126   0.91779   0.00000  Uiso   1.00
C887   C     0.12659   0.65333   0.72281   0.00000  Uiso   1.00
C888   C     0.34628   0.62699   0.27654   0.00000  Uiso   1.00
C889   C     0.15372   0.87301   0.72346   0.00000  Uiso   1.00
C890   C     0.12659   0.65333   0.27719   0.00000  Uiso   1.00
C891   C     0.37341   0.84667   0.72282   0.00000  Uiso   1.00
C892   C     0.15372   0.87301   0.27654   0.00000  Uiso   1.00
C893   C     0.34628   0.62699   0.72346   0.00000  Uiso   1.00
C894   C     0.01319   0.71915   0.45882   0.00000  Uiso   1.00
C895   C     0.48681   0.78085   0.54118   0.00000  Uiso   1.00
C896   C     0.28085   0.98681   0.45882   0.00000  Uiso   1.00
H897   H     0.03755   0.66524   0.46622   0.00000  Uiso   1.00
H898   H     0.28756   0.58476   0.03379   0.00000  Uiso   1.00
H899   H     0.43221   0.67043   0.91879   0.00000  Uiso   1.00
H900   H     0.40772   0.67699   0.87399   0.00000  Uiso   1.00
H901   H     0.40957   0.73623   0.90900   0.00000  Uiso   1.00
H902   H     0.43377   0.73835   0.86576   0.00000  Uiso   1.00
H903   H     0.06779   0.82957   0.08121   0.00000  Uiso   1.00
H904   H     0.04323   0.82572   0.12628   0.00000  Uiso   1.00
H905   H     0.09227   0.82302   0.12601   0.00000  Uiso   1.00
H906   H     0.06623   0.76166   0.13424   0.00000  Uiso   1.00
H907   H     0.09043   0.76378   0.09101   0.00000  Uiso   1.00
H908   H     0.17041   0.93223   0.91879   0.00000  Uiso   1.00
H909   H     0.08477   0.78754   0.96622   0.00000  Uiso   1.00
H910   H     0.17427   0.95679   0.87372   0.00000  Uiso   1.00
H911   H     0.17697   0.90774   0.87399   0.00000  Uiso   1.00
H912   H     0.23833   0.93377   0.86576   0.00000  Uiso   1.00
H913   H     0.23620   0.90957   0.90900   0.00000  Uiso   1.00
H914   H     0.32573   0.54321   0.12628   0.00000  Uiso   1.00
H915   H     0.32959   0.56777   0.08121   0.00000  Uiso   1.00
H916   H     0.32304   0.59225   0.12601   0.00000  Uiso   1.00
H917   H     0.26380   0.59043   0.09100   0.00000  Uiso   1.00
H918   H     0.26167   0.56623   0.13424   0.00000  Uiso   1.00
H919   H     0.04323   0.82572   0.87372   0.00000  Uiso   1.00
H920   H     0.41523   0.71246   0.03379   0.00000  Uiso   1.00
H921   H     0.06779   0.82957   0.91879   0.00000  Uiso   1.00
H922   H     0.09227   0.82301   0.87399   0.00000  Uiso   1.00
H923   H     0.09043   0.76377   0.90900   0.00000  Uiso   1.00
H924   H     0.06623   0.76165   0.86576   0.00000  Uiso   1.00
H925   H     0.43221   0.67043   0.08121   0.00000  Uiso   1.00
H926   H     0.45677   0.67428   0.12628   0.00000  Uiso   1.00
H927   H     0.40773   0.67698   0.12601   0.00000  Uiso   1.00
H928   H     0.43377   0.73834   0.13424   0.00000  Uiso   1.00
H929   H     0.40957   0.73622   0.09101   0.00000  Uiso   1.00
H930   H     0.28756   0.58476   0.96622   0.00000  Uiso   1.00
H931   H     0.21244   0.91524   0.03379   0.00000  Uiso   1.00
H932   H     0.41523   0.71246   0.96622   0.00000  Uiso   1.00
H933   H     0.08477   0.78754   0.03379   0.00000  Uiso   1.00
H934   H     0.12169   0.92516   0.20172   0.00000  Uiso   1.00
H935   H     0.37831   0.57484   0.79828   0.00000  Uiso   1.00
H936   H     0.07441   0.62124   0.20240   0.00000  Uiso   1.00
H937   H     0.46245   0.83476   0.53379   0.00000  Uiso   1.00
H938   H     0.42559   0.87876   0.79760   0.00000  Uiso   1.00
H939   H     0.37831   0.57484   0.20172   0.00000  Uiso   1.00
H940   H     0.12169   0.92516   0.79828   0.00000  Uiso   1.00
H941   H     0.42559   0.87876   0.20240   0.00000  Uiso   1.00
H942   H     0.07441   0.62124   0.79760   0.00000  Uiso   1.00
H943   H     0.12124   0.57441   0.79760   0.00000  Uiso   1.00
H944   H     0.37876   0.92559   0.20240   0.00000  Uiso   1.00
H945   H     0.07483   0.87831   0.79828   0.00000  Uiso   1.00
H946   H     0.42516   0.62169   0.20172   0.00000  Uiso   1.00
H947   H     0.37876   0.92559   0.79760   0.00000  Uiso   1.00
H948   H     0.33476   0.96244   0.46622   0.00000  Uiso   1.00
H949   H     0.12124   0.57441   0.20240   0.00000  Uiso   1.00
H950   H     0.42516   0.62169   0.79828   0.00000  Uiso   1.00
H951   H     0.07483   0.87831   0.20172   0.00000  Uiso   1.00
H952   H     0.37124   0.67559   0.70241   0.00000  Uiso   1.00
H953   H     0.12876   0.82441   0.29760   0.00000  Uiso   1.00
H954   H     0.32484   0.87169   0.70172   0.00000  Uiso   1.00
H955   H     0.17516   0.62831   0.29828   0.00000  Uiso   1.00
H956   H     0.12876   0.82441   0.70241   0.00000  Uiso   1.00
H957   H     0.37124   0.67559   0.29760   0.00000  Uiso   1.00
H958   H     0.17516   0.62831   0.70172   0.00000  Uiso   1.00
H959   H     0.16524   0.53756   0.53379   0.00000  Uiso   1.00
H960   H     0.32484   0.87169   0.29828   0.00000  Uiso   1.00
H961   H     0.37169   0.82484   0.29828   0.00000  Uiso   1.00
H962   H     0.12831   0.67516   0.70172   0.00000  Uiso   1.00
H963   H     0.32441   0.62876   0.29760   0.00000  Uiso   1.00
H964   H     0.17559   0.87124   0.70241   0.00000  Uiso   1.00
H965   H     0.12831   0.67516   0.29828   0.00000  Uiso   1.00
H966   H     0.37169   0.82484   0.70172   0.00000  Uiso   1.00
H967   H     0.17559   0.87124   0.29760   0.00000  Uiso   1.00
H968   H     0.32441   0.62876   0.70241   0.00000  Uiso   1.00
H969   H     0.42427   0.79321   0.37372   0.00000  Uiso   1.00
H970   H     0.46245   0.83476   0.46622   0.00000  Uiso   1.00
H971   H     0.42041   0.81777   0.41879   0.00000  Uiso   1.00
H972   H     0.42697   0.84226   0.37399   0.00000  Uiso   1.00
H973   H     0.48621   0.84043   0.40900   0.00000  Uiso   1.00
H974   H     0.48833   0.81623   0.36576   0.00000  Uiso   1.00
H975   H     0.07959   0.68223   0.58121   0.00000  Uiso   1.00
H976   H     0.07573   0.70678   0.62628   0.00000  Uiso   1.00
H977   H     0.07303   0.65774   0.62601   0.00000  Uiso   1.00
H978   H     0.01167   0.68377   0.63424   0.00000  Uiso   1.00
H979   H     0.01379   0.65957   0.59100   0.00000  Uiso   1.00
H980   H     0.18223   0.57959   0.41879   0.00000  Uiso   1.00
H981   H     0.03755   0.66524   0.53379   0.00000  Uiso   1.00
H982   H     0.20679   0.57573   0.37372   0.00000  Uiso   1.00
H983   H     0.15774   0.57303   0.37399   0.00000  Uiso   1.00
H984   H     0.18377   0.51167   0.36576   0.00000  Uiso   1.00
H985   H     0.15957   0.51380   0.40900   0.00000  Uiso   1.00
H986   H     0.29321   0.92427   0.62628   0.00000  Uiso   1.00
H987   H     0.31777   0.92041   0.58121   0.00000  Uiso   1.00
H988   H     0.34225   0.92696   0.62601   0.00000  Uiso   1.00
H989   H     0.34043   0.98620   0.59100   0.00000  Uiso   1.00
H990   H     0.31623   0.98832   0.63424   0.00000  Uiso   1.00
H991   H     0.07573   0.70679   0.37372   0.00000  Uiso   1.00
H992   H     0.16524   0.53756   0.46622   0.00000  Uiso   1.00
H993   H     0.07959   0.68223   0.41879   0.00000  Uiso   1.00
H994   H     0.07303   0.65774   0.37399   0.00000  Uiso   1.00
H995   H     0.01379   0.65957   0.40900   0.00000  Uiso   1.00
H996   H     0.01167   0.68377   0.36576   0.00000  Uiso   1.00
H997   H     0.42041   0.81778   0.58121   0.00000  Uiso   1.00
H998   H     0.42427   0.79322   0.62628   0.00000  Uiso   1.00
H999   H     0.42697   0.84226   0.62601   0.00000  Uiso   1.00
H1000  H     0.48833   0.81623   0.63424   0.00000  Uiso   1.00
H1001  H     0.48621   0.84043   0.59100   0.00000  Uiso   1.00
H1002  H     0.31777   0.92041   0.41879   0.00000  Uiso   1.00
H1003  H     0.33476   0.96244   0.53379   0.00000  Uiso   1.00
H1004  H     0.29321   0.92427   0.37372   0.00000  Uiso   1.00
H1005  H     0.34226   0.92696   0.37399   0.00000  Uiso   1.00
H1006  H     0.31623   0.98833   0.36576   0.00000  Uiso   1.00
H1007  H     0.34043   0.98620   0.40900   0.00000  Uiso   1.00
H1008  H     0.20679   0.57573   0.62628   0.00000  Uiso   1.00
H1009  H     0.18223   0.57959   0.58121   0.00000  Uiso   1.00
H1010  H     0.15775   0.57304   0.62601   0.00000  Uiso   1.00
H1011  H     0.15957   0.51380   0.59100   0.00000  Uiso   1.00
H1012  H     0.18377   0.51168   0.63424   0.00000  Uiso   1.00
H1013  H     0.32959   0.56777   0.91879   0.00000  Uiso   1.00
H1014  H     0.21244   0.91524   0.96622   0.00000  Uiso   1.00
H1015  H     0.32573   0.54321   0.87372   0.00000  Uiso   1.00
H1016  H     0.32303   0.59226   0.87399   0.00000  Uiso   1.00
H1017  H     0.26167   0.56623   0.86576   0.00000  Uiso   1.00
H1018  H     0.26380   0.59043   0.90900   0.00000  Uiso   1.00
H1019  H     0.17427   0.95679   0.12628   0.00000  Uiso   1.00
H1020  H     0.17041   0.93223   0.08121   0.00000  Uiso   1.00
H1021  H     0.17697   0.90774   0.12601   0.00000  Uiso   1.00
H1022  H     0.23620   0.90957   0.09100   0.00000  Uiso   1.00
H1023  H     0.23833   0.93377   0.13424   0.00000  Uiso   1.00
H1024  H     0.45677   0.67428   0.87372   0.00000  Uiso   1.00
O1025  O     0.25000   0.50000   0.25000   0.00000  Uiso   1.00
O1026  O     0.25000   0.96963   0.66245   0.00000  Uiso   1.00
O1027  O     0.46963   0.75000   0.33755   0.00000  Uiso   1.00
O1028  O     0.03036   0.75000   0.66245   0.00000  Uiso   1.00
O1029  O    -0.00000   0.71964   0.83755   0.00000  Uiso   1.00
O1030  O     0.00000   0.78036   0.16245   0.00000  Uiso   1.00
O1031  O     0.28036   0.50000   0.83755   0.00000  Uiso   1.00
O1032  O     0.21963   0.50000   0.16245   0.00000  Uiso   1.00
O1033  O    -0.00000   0.78037   0.83755   0.00000  Uiso   1.00
O1034  O     0.00000   0.71963   0.16245   0.00000  Uiso   1.00
O1035  O     0.21963   0.50000   0.83755   0.00000  Uiso   1.00
O1036  O     0.25000   0.50000   0.75000   0.00000  Uiso   1.00
O1037  O     0.28036   0.50000   0.16245   0.00000  Uiso   1.00
O1038  O     0.20724   0.57308   0.27302   0.00000  Uiso   1.00
O1039  O     0.29275   0.92692   0.72698   0.00000  Uiso   1.00
O1040  O     0.42692   0.70725   0.27302   0.00000  Uiso   1.00
O1041  O     0.07307   0.79275   0.72698   0.00000  Uiso   1.00
O1042  O     0.29275   0.92692   0.27302   0.00000  Uiso   1.00
O1043  O     0.20724   0.57308   0.72698   0.00000  Uiso   1.00
O1044  O     0.07307   0.79275   0.27302   0.00000  Uiso   1.00
O1045  O     0.42692   0.70725   0.72698   0.00000  Uiso   1.00
O1046  O     0.20724   0.92692   0.72698   0.00000  Uiso   1.00
O1047  O    -0.00000   0.75000   0.25000   0.00000  Uiso   1.00
O1048  O     0.29275   0.57308   0.27302   0.00000  Uiso   1.00
O1049  O     0.42692   0.79276   0.72698   0.00000  Uiso   1.00
O1050  O     0.07307   0.70724   0.27302   0.00000  Uiso   1.00
O1051  O     0.29275   0.57308   0.72698   0.00000  Uiso   1.00
O1052  O     0.20724   0.92692   0.27302   0.00000  Uiso   1.00
O1053  O     0.07307   0.70724   0.72698   0.00000  Uiso   1.00
O1054  O     0.42692   0.79276   0.27302   0.00000  Uiso   1.00
O1055  O     0.45724   0.82308   0.77302   0.00000  Uiso   1.00
O1056  O     0.04275   0.67692   0.22698   0.00000  Uiso   1.00
O1057  O     0.17692   0.95724   0.77302   0.00000  Uiso   1.00
O1058  O    -0.00000   0.75000   0.75000   0.00000  Uiso   1.00
O1059  O     0.32307   0.54276   0.22698   0.00000  Uiso   1.00
O1060  O     0.04275   0.67692   0.77302   0.00000  Uiso   1.00
O1061  O     0.45724   0.82308   0.22698   0.00000  Uiso   1.00
O1062  O     0.32307   0.54276   0.77302   0.00000  Uiso   1.00
O1063  O     0.17692   0.95724   0.22698   0.00000  Uiso   1.00
O1064  O     0.45724   0.67693   0.22698   0.00000  Uiso   1.00
O1065  O     0.04275   0.82307   0.77302   0.00000  Uiso   1.00
O1066  O     0.17692   0.54276   0.22698   0.00000  Uiso   1.00
O1067  O     0.32307   0.95724   0.77302   0.00000  Uiso   1.00
O1068  O     0.04275   0.82307   0.22698   0.00000  Uiso   1.00
O1069  O     0.25000   0.96963   0.33755   0.00000  Uiso   1.00
O1070  O     0.45724   0.67693   0.77302   0.00000  Uiso   1.00
O1071  O     0.32307   0.95724   0.22698   0.00000  Uiso   1.00
O1072  O     0.17692   0.54276   0.77302   0.00000  Uiso   1.00
O1073  O     0.25000   0.53037   0.66245   0.00000  Uiso   1.00
O1074  O     0.03036   0.75000   0.33755   0.00000  Uiso   1.00
O1075  O     0.46963   0.75000   0.66245   0.00000  Uiso   1.00
O1076  O     0.25000   0.53037   0.33755   0.00000  Uiso   1.00
Zn1077 Zn    0.20659   0.50000   0.21735   0.00000  Uiso   1.00
Zn1078 Zn    0.04340   0.75000   0.28265   0.00000  Uiso   1.00
Zn1079 Zn    0.25000   0.95659   0.71735   0.00000  Uiso   1.00
Zn1080 Zn    0.25000   0.54341   0.28265   0.00000  Uiso   1.00
Zn1081 Zn    0.04340   0.75000   0.71735   0.00000  Uiso   1.00
Zn1082 Zn    0.45659   0.75000   0.28265   0.00000  Uiso   1.00
Zn1083 Zn    0.25000   0.54341   0.71735   0.00000  Uiso   1.00
Zn1084 Zn    0.25000   0.95659   0.28265   0.00000  Uiso   1.00
Zn1085 Zn    0.29340   0.50000   0.78265   0.00000  Uiso   1.00
Zn1086 Zn   -0.00000   0.70660   0.21735   0.00000  Uiso   1.00
Zn1087 Zn    0.00000   0.79340   0.78265   0.00000  Uiso   1.00
Zn1088 Zn    0.29340   0.50000   0.21735   0.00000  Uiso   1.00
Zn1089 Zn    0.20659   0.50000   0.78265   0.00000  Uiso   1.00
Zn1090 Zn    0.00000   0.79340   0.21735   0.00000  Uiso   1.00
Zn1091 Zn    0.00000   0.70659   0.78265   0.00000  Uiso   1.00
Zn1092 Zn    0.45659   0.75000   0.71735   0.00000  Uiso   1.00
C1093  C     0.98739   0.78126   0.41779   0.00000  Uiso   1.00
C1094  C     0.73739   0.96874   0.08221   0.00000  Uiso   1.00
C1095  C     0.71915   0.51319   0.54118   0.00000  Uiso   1.00
C1096  C     0.98681   0.78085   0.45882   0.00000  Uiso   1.00
C1097  C     0.51319   0.71915   0.54118   0.00000  Uiso   1.00
C1098  C     0.71915   0.51319   0.45882   0.00000  Uiso   1.00
C1099  C     0.78085   0.98681   0.54118   0.00000  Uiso   1.00
C1100  C     0.73681   0.96915   0.95882   0.00000  Uiso   1.00
C1101  C     0.76319   0.53085   0.04118   0.00000  Uiso   1.00
C1102  C     0.53085   0.76318   0.95882   0.00000  Uiso   1.00
C1103  C     0.96915   0.73682   0.04118   0.00000  Uiso   1.00
C1104  C     0.76319   0.53085   0.95882   0.00000  Uiso   1.00
C1105  C     0.96873   0.73740   0.91779   0.00000  Uiso   1.00
C1106  C     0.73681   0.96915   0.04118   0.00000  Uiso   1.00
C1107  C     0.96915   0.73682   0.95882   0.00000  Uiso   1.00
C1108  C     0.53085   0.76318   0.04118   0.00000  Uiso   1.00
C1109  C     0.59828   0.84798   0.24976   0.00000  Uiso   1.00
C1110  C     0.90172   0.65202   0.75024   0.00000  Uiso   1.00
C1111  C     0.65172   0.59798   0.25024   0.00000  Uiso   1.00
C1112  C     0.84828   0.90202   0.74976   0.00000  Uiso   1.00
C1113  C     0.90172   0.65202   0.24976   0.00000  Uiso   1.00
C1114  C     0.59828   0.84798   0.75024   0.00000  Uiso   1.00
C1115  C     0.84828   0.90202   0.25024   0.00000  Uiso   1.00
C1116  C     0.53127   0.76260   0.08221   0.00000  Uiso   1.00
C1117  C     0.65172   0.59798   0.74976   0.00000  Uiso   1.00
C1118  C     0.59798   0.65172   0.74976   0.00000  Uiso   1.00
C1119  C     0.90202   0.84828   0.25024   0.00000  Uiso   1.00
C1120  C     0.65202   0.90172   0.75024   0.00000  Uiso   1.00
C1121  C     0.84798   0.59828   0.24976   0.00000  Uiso   1.00
C1122  C     0.90202   0.84828   0.74976   0.00000  Uiso   1.00
C1123  C     0.59798   0.65172   0.25024   0.00000  Uiso   1.00
C1124  C     0.84798   0.59828   0.75024   0.00000  Uiso   1.00
C1125  C     0.65202   0.90172   0.24976   0.00000  Uiso   1.00
C1126  C     0.50000   0.75000   0.47934   0.00000  Uiso   1.00
C1127  C     0.73739   0.96874   0.91779   0.00000  Uiso   1.00
C1128  C     0.50000   0.75000   0.52066   0.00000  Uiso   1.00
C1129  C     0.75000   0.50000   0.47934   0.00000  Uiso   1.00
C1130  C     0.75000   0.50000   0.52066   0.00000  Uiso   1.00
C1131  C     0.75000   0.50000   0.97934   0.00000  Uiso   1.00
C1132  C     0.75000   0.50000   0.02066   0.00000  Uiso   1.00
C1133  C     0.50000   0.75000   0.97934   0.00000  Uiso   1.00
C1134  C     0.50000   0.75000   0.02066   0.00000  Uiso   1.00
C1135  C     0.97577   0.81525   0.39502   0.00000  Uiso   1.00
C1136  C     0.93435   0.81716   0.39023   0.00000  Uiso   1.00
C1137  C     0.52423   0.68475   0.60498   0.00000  Uiso   1.00
C1138  C     0.76261   0.53126   0.08221   0.00000  Uiso   1.00
C1139  C     0.56565   0.68284   0.60977   0.00000  Uiso   1.00
C1140  C     0.68476   0.52423   0.39502   0.00000  Uiso   1.00
C1141  C     0.68284   0.56566   0.39023   0.00000  Uiso   1.00
C1142  C     0.81524   0.97577   0.60498   0.00000  Uiso   1.00
C1143  C     0.81715   0.93434   0.60977   0.00000  Uiso   1.00
C1144  C     0.52423   0.68475   0.39502   0.00000  Uiso   1.00
C1145  C     0.56565   0.68284   0.39023   0.00000  Uiso   1.00
C1146  C     0.97577   0.81525   0.60498   0.00000  Uiso   1.00
C1147  C     0.93435   0.81716   0.60977   0.00000  Uiso   1.00
C1148  C     0.81524   0.97577   0.39502   0.00000  Uiso   1.00
C1149  C     0.53127   0.76260   0.91779   0.00000  Uiso   1.00
C1150  C     0.81716   0.93434   0.39023   0.00000  Uiso   1.00
C1151  C     0.68476   0.52423   0.60498   0.00000  Uiso   1.00
C1152  C     0.68284   0.56566   0.60977   0.00000  Uiso   1.00
C1153  C     0.77423   0.56524   0.89502   0.00000  Uiso   1.00
C1154  C     0.81565   0.56716   0.89023   0.00000  Uiso   1.00
C1155  C     0.72577   0.93476   0.10498   0.00000  Uiso   1.00
C1156  C     0.68434   0.93284   0.10977   0.00000  Uiso   1.00
C1157  C     0.93475   0.72579   0.89502   0.00000  Uiso   1.00
C1158  C     0.93283   0.68436   0.89023   0.00000  Uiso   1.00
C1159  C     0.56525   0.77422   0.10498   0.00000  Uiso   1.00
C1160  C     0.96873   0.73740   0.08221   0.00000  Uiso   1.00
C1161  C     0.56717   0.81564   0.10977   0.00000  Uiso   1.00
C1162  C     0.72577   0.93476   0.89502   0.00000  Uiso   1.00
C1163  C     0.68435   0.93284   0.89023   0.00000  Uiso   1.00
C1164  C     0.77423   0.56524   0.10498   0.00000  Uiso   1.00
C1165  C     0.81566   0.56716   0.10977   0.00000  Uiso   1.00
C1166  C     0.56525   0.77421   0.89502   0.00000  Uiso   1.00
C1167  C     0.56717   0.81564   0.89023   0.00000  Uiso   1.00
C1168  C     0.93475   0.72578   0.10498   0.00000  Uiso   1.00
C1169  C     0.93283   0.68436   0.10977   0.00000  Uiso   1.00
C1170  C     0.50000   0.75000   0.39786   0.00000  Uiso   1.00
C1171  C     0.50000   0.75000   0.60214   0.00000  Uiso   1.00
C1172  C     0.75000   0.50000   0.39786   0.00000  Uiso   1.00
C1173  C     0.51261   0.71874   0.58221   0.00000  Uiso   1.00
C1174  C     0.75000   0.50000   0.60214   0.00000  Uiso   1.00
C1175  C     0.75000   0.50000   0.89786   0.00000  Uiso   1.00
C1176  C     0.75000   0.50000   0.10214   0.00000  Uiso   1.00
C1177  C     0.50000   0.75000   0.89786   0.00000  Uiso   1.00
C1178  C     0.50000   0.75000   0.10214   0.00000  Uiso   1.00
C1179  C     0.52655   0.68927   0.47997   0.00000  Uiso   1.00
C1180  C     0.97345   0.81073   0.52003   0.00000  Uiso   1.00
C1181  C     0.81073   0.97344   0.47997   0.00000  Uiso   1.00
C1182  C     0.68927   0.52656   0.52003   0.00000  Uiso   1.00
C1183  C     0.97345   0.81073   0.47997   0.00000  Uiso   1.00
C1184  C     0.71874   0.51261   0.41779   0.00000  Uiso   1.00
C1185  C     0.52655   0.68927   0.52003   0.00000  Uiso   1.00
C1186  C     0.68927   0.52656   0.47997   0.00000  Uiso   1.00
C1187  C     0.81073   0.97344   0.52003   0.00000  Uiso   1.00
C1188  C     0.72345   0.93927   0.97997   0.00000  Uiso   1.00
C1189  C     0.77655   0.56073   0.02003   0.00000  Uiso   1.00
C1190  C     0.56074   0.77654   0.97997   0.00000  Uiso   1.00
C1191  C     0.93926   0.72346   0.02003   0.00000  Uiso   1.00
C1192  C     0.77655   0.56073   0.97997   0.00000  Uiso   1.00
C1193  C     0.72345   0.93927   0.02003   0.00000  Uiso   1.00
C1194  C     0.93926   0.72346   0.97997   0.00000  Uiso   1.00
C1195  C     0.78126   0.98739   0.58221   0.00000  Uiso   1.00
C1196  C     0.56074   0.77654   0.02003   0.00000  Uiso   1.00
C1197  C     0.75000   0.50000   0.35566   0.00000  Uiso   1.00
C1198  C     0.75000   0.50000   0.64434   0.00000  Uiso   1.00
C1199  C     0.50000   0.75000   0.35566   0.00000  Uiso   1.00
C1200  C     0.50000   0.75000   0.64434   0.00000  Uiso   1.00
C1201  C     0.50000   0.75000   0.85566   0.00000  Uiso   1.00
C1202  C     0.50000   0.75000   0.14434   0.00000  Uiso   1.00
C1203  C     0.75000   0.50000   0.85566   0.00000  Uiso   1.00
C1204  C     0.75000   0.50000   0.14434   0.00000  Uiso   1.00
C1205  C     0.67990   0.57002   0.25007   0.00000  Uiso   1.00
C1206  C     0.51261   0.71874   0.41779   0.00000  Uiso   1.00
C1207  C     0.82010   0.92998   0.74993   0.00000  Uiso   1.00
C1208  C     0.92990   0.67998   0.24993   0.00000  Uiso   1.00
C1209  C     0.57010   0.82002   0.75007   0.00000  Uiso   1.00
C1210  C     0.82010   0.92998   0.25007   0.00000  Uiso   1.00
C1211  C     0.67990   0.57002   0.74993   0.00000  Uiso   1.00
C1212  C     0.57010   0.82002   0.24993   0.00000  Uiso   1.00
C1213  C     0.92990   0.67998   0.75007   0.00000  Uiso   1.00
C1214  C     0.67998   0.92990   0.75007   0.00000  Uiso   1.00
C1215  C     0.82002   0.57010   0.24993   0.00000  Uiso   1.00
C1216  C     0.92998   0.82010   0.74993   0.00000  Uiso   1.00
C1217  C     0.98739   0.78126   0.58221   0.00000  Uiso   1.00
C1218  C     0.57002   0.67990   0.25007   0.00000  Uiso   1.00
C1219  C     0.82002   0.57010   0.75007   0.00000  Uiso   1.00
C1220  C     0.67998   0.92990   0.24993   0.00000  Uiso   1.00
C1221  C     0.57002   0.67990   0.74993   0.00000  Uiso   1.00
C1222  C     0.92998   0.82010   0.25007   0.00000  Uiso   1.00
C1223  C     0.62341   0.90333   0.22282   0.00000  Uiso   1.00
C1224  C     0.87659   0.59667   0.77719   0.00000  Uiso   1.00
C1225  C     0.59628   0.62301   0.22346   0.00000  Uiso   1.00
C1226  C     0.90372   0.87699   0.77654   0.00000  Uiso   1.00
C1227  C     0.87659   0.59667   0.22282   0.00000  Uiso   1.00
C1228  C     0.78126   0.98739   0.41779   0.00000  Uiso   1.00
C1229  C     0.62341   0.90333   0.77719   0.00000  Uiso   1.00
C1230  C     0.90372   0.87699   0.22346   0.00000  Uiso   1.00
C1231  C     0.59628   0.62301   0.77654   0.00000  Uiso   1.00
C1232  C     0.62301   0.59628   0.77654   0.00000  Uiso   1.00
C1233  C     0.87699   0.90372   0.22346   0.00000  Uiso   1.00
C1234  C     0.59667   0.87659   0.77719   0.00000  Uiso   1.00
C1235  C     0.90333   0.62341   0.22282   0.00000  Uiso   1.00
C1236  C     0.87699   0.90372   0.77654   0.00000  Uiso   1.00
C1237  C     0.62301   0.59628   0.22346   0.00000  Uiso   1.00
C1238  C     0.90333   0.62341   0.77719   0.00000  Uiso   1.00
C1239  C     0.71874   0.51261   0.58221   0.00000  Uiso   1.00
C1240  C     0.59667   0.87659   0.22282   0.00000  Uiso   1.00
C1241  C     0.87301   0.65372   0.72346   0.00000  Uiso   1.00
C1242  C     0.62699   0.84628   0.27654   0.00000  Uiso   1.00
C1243  C     0.84667   0.87341   0.72282   0.00000  Uiso   1.00
C1244  C     0.65333   0.62659   0.27719   0.00000  Uiso   1.00
C1245  C     0.62699   0.84628   0.72346   0.00000  Uiso   1.00
C1246  C     0.87301   0.65372   0.27654   0.00000  Uiso   1.00
C1247  C     0.65333   0.62659   0.72281   0.00000  Uiso   1.00
C1248  C     0.84667   0.87341   0.27719   0.00000  Uiso   1.00
C1249  C     0.87341   0.84667   0.27719   0.00000  Uiso   1.00
C1250  C     0.76261   0.53126   0.91779   0.00000  Uiso   1.00
C1251  C     0.62659   0.65333   0.72281   0.00000  Uiso   1.00
C1252  C     0.84628   0.62699   0.27654   0.00000  Uiso   1.00
C1253  C     0.65372   0.87301   0.72346   0.00000  Uiso   1.00
C1254  C     0.62659   0.65333   0.27719   0.00000  Uiso   1.00
C1255  C     0.87341   0.84667   0.72282   0.00000  Uiso   1.00
C1256  C     0.65372   0.87301   0.27654   0.00000  Uiso   1.00
C1257  C     0.84628   0.62699   0.72346   0.00000  Uiso   1.00
C1258  C     0.51319   0.71915   0.45882   0.00000  Uiso   1.00
C1259  C     0.98681   0.78085   0.54118   0.00000  Uiso   1.00
C1260  C     0.78085   0.98681   0.45882   0.00000  Uiso   1.00
H1261  H     0.53755   0.66524   0.46622   0.00000  Uiso   1.00
H1262  H     0.78756   0.58476   0.03379   0.00000  Uiso   1.00
H1263  H     0.93221   0.67043   0.91879   0.00000  Uiso   1.00
H1264  H     0.90772   0.67699   0.87399   0.00000  Uiso   1.00
H1265  H     0.90957   0.73623   0.90900   0.00000  Uiso   1.00
H1266  H     0.93377   0.73835   0.86576   0.00000  Uiso   1.00
H1267  H     0.56779   0.82957   0.08121   0.00000  Uiso   1.00
H1268  H     0.54323   0.82572   0.12628   0.00000  Uiso   1.00
H1269  H     0.59227   0.82302   0.12601   0.00000  Uiso   1.00
H1270  H     0.56623   0.76166   0.13424   0.00000  Uiso   1.00
H1271  H     0.59043   0.76378   0.09101   0.00000  Uiso   1.00
H1272  H     0.67041   0.93223   0.91879   0.00000  Uiso   1.00
H1273  H     0.58477   0.78754   0.96622   0.00000  Uiso   1.00
H1274  H     0.67427   0.95679   0.87372   0.00000  Uiso   1.00
H1275  H     0.67697   0.90774   0.87399   0.00000  Uiso   1.00
H1276  H     0.73833   0.93377   0.86576   0.00000  Uiso   1.00
H1277  H     0.73620   0.90957   0.90900   0.00000  Uiso   1.00
H1278  H     0.82573   0.54321   0.12628   0.00000  Uiso   1.00
H1279  H     0.82959   0.56777   0.08121   0.00000  Uiso   1.00
H1280  H     0.82304   0.59225   0.12601   0.00000  Uiso   1.00
H1281  H     0.76380   0.59043   0.09100   0.00000  Uiso   1.00
H1282  H     0.76167   0.56623   0.13424   0.00000  Uiso   1.00
H1283  H     0.54323   0.82572   0.87372   0.00000  Uiso   1.00
H1284  H     0.91523   0.71246   0.03379   0.00000  Uiso   1.00
H1285  H     0.56779   0.82957   0.91879   0.00000  Uiso   1.00
H1286  H     0.59227   0.82301   0.87399   0.00000  Uiso   1.00
H1287  H     0.59043   0.76377   0.90900   0.00000  Uiso   1.00
H1288  H     0.56623   0.76165   0.86576   0.00000  Uiso   1.00
H1289  H     0.93221   0.67043   0.08121   0.00000  Uiso   1.00
H1290  H     0.95677   0.67428   0.12628   0.00000  Uiso   1.00
H1291  H     0.90773   0.67698   0.12601   0.00000  Uiso   1.00
H1292  H     0.93377   0.73834   0.13424   0.00000  Uiso   1.00
H1293  H     0.90957   0.73622   0.09101   0.00000  Uiso   1.00
H1294  H     0.78756   0.58476   0.96622   0.00000  Uiso   1.00
H1295  H     0.71244   0.91524   0.03379   0.00000  Uiso   1.00
H1296  H     0.91523   0.71246   0.96622   0.00000  Uiso   1.00
H1297  H     0.58477   0.78754   0.03379   0.00000  Uiso   1.00
H1298  H     0.62169   0.92516   0.20172   0.00000  Uiso   1.00
H1299  H     0.87831   0.57484   0.79828   0.00000  Uiso   1.00
H1300  H     0.57441   0.62124   0.20240   0.00000  Uiso   1.00
H1301  H     0.96245   0.83476   0.53379   0.00000  Uiso   1.00
H1302  H     0.92559   0.87876   0.79760   0.00000  Uiso   1.00
H1303  H     0.87831   0.57484   0.20172   0.00000  Uiso   1.00
H1304  H     0.62169   0.92516   0.79828   0.00000  Uiso   1.00
H1305  H     0.92559   0.87876   0.20240   0.00000  Uiso   1.00
H1306  H     0.57441   0.62124   0.79760   0.00000  Uiso   1.00
H1307  H     0.62124   0.57441   0.79760   0.00000  Uiso   1.00
H1308  H     0.87876   0.92559   0.20240   0.00000  Uiso   1.00
H1309  H     0.57483   0.87831   0.79828   0.00000  Uiso   1.00
H1310  H     0.92516   0.62169   0.20172   0.00000  Uiso   1.00
H1311  H     0.87876   0.92559   0.79760   0.00000  Uiso   1.00
H1312  H     0.83476   0.96244   0.46622   0.00000  Uiso   1.00
H1313  H     0.62124   0.57441   0.20240   0.00000  Uiso   1.00
H1314  H     0.92516   0.62169   0.79828   0.00000  Uiso   1.00
H1315  H     0.57483   0.87831   0.20172   0.00000  Uiso   1.00
H1316  H     0.87124   0.67559   0.70241   0.00000  Uiso   1.00
H1317  H     0.62876   0.82441   0.29760   0.00000  Uiso   1.00
H1318  H     0.82484   0.87169   0.70172   0.00000  Uiso   1.00
H1319  H     0.67516   0.62831   0.29828   0.00000  Uiso   1.00
H1320  H     0.62876   0.82441   0.70241   0.00000  Uiso   1.00
H1321  H     0.87124   0.67559   0.29760   0.00000  Uiso   1.00
H1322  H     0.67516   0.62831   0.70172   0.00000  Uiso   1.00
H1323  H     0.66524   0.53756   0.53379   0.00000  Uiso   1.00
H1324  H     0.82484   0.87169   0.29828   0.00000  Uiso   1.00
H1325  H     0.87169   0.82484   0.29828   0.00000  Uiso   1.00
H1326  H     0.62831   0.67516   0.70172   0.00000  Uiso   1.00
H1327  H     0.82441   0.62876   0.29760   0.00000  Uiso   1.00
H1328  H     0.67559   0.87124   0.70241   0.00000  Uiso   1.00
H1329  H     0.62831   0.67516   0.29828   0.00000  Uiso   1.00
H1330  H     0.87169   0.82484   0.70172   0.00000  Uiso   1.00
H1331  H     0.67559   0.87124   0.29760   0.00000  Uiso   1.00
H1332  H     0.82441   0.62876   0.70241   0.00000  Uiso   1.00
H1333  H     0.92427   0.79321   0.37372   0.00000  Uiso   1.00
H1334  H     0.96245   0.83476   0.46622   0.00000  Uiso   1.00
H1335  H     0.92041   0.81777   0.41879   0.00000  Uiso   1.00
H1336  H     0.92697   0.84226   0.37399   0.00000  Uiso   1.00
H1337  H     0.98621   0.84043   0.40900   0.00000  Uiso   1.00
H1338  H     0.98833   0.81623   0.36576   0.00000  Uiso   1.00
H1339  H     0.57959   0.68223   0.58121   0.00000  Uiso   1.00
H1340  H     0.57573   0.70678   0.62628   0.00000  Uiso   1.00
H1341  H     0.57303   0.65774   0.62601   0.00000  Uiso   1.00
H1342  H     0.51167   0.68377   0.63424   0.00000  Uiso   1.00
H1343  H     0.51379   0.65957   0.59100   0.00000  Uiso   1.00
H1344  H     0.68223   0.57959   0.41879   0.00000  Uiso   1.00
H1345  H     0.53755   0.66524   0.53379   0.00000  Uiso   1.00
H1346  H     0.70679   0.57573   0.37372   0.00000  Uiso   1.00
H1347  H     0.65774   0.57303   0.37399   0.00000  Uiso   1.00
H1348  H     0.68377   0.51167   0.36576   0.00000  Uiso   1.00
H1349  H     0.65957   0.51380   0.40900   0.00000  Uiso   1.00
H1350  H     0.79321   0.92427   0.62628   0.00000  Uiso   1.00
H1351  H     0.81777   0.92041   0.58121   0.00000  Uiso   1.00
H1352  H     0.84225   0.92696   0.62601   0.00000  Uiso   1.00
H1353  H     0.84043   0.98620   0.59100   0.00000  Uiso   1.00
H1354  H     0.81623   0.98832   0.63424   0.00000  Uiso   1.00
H1355  H     0.57573   0.70679   0.37372   0.00000  Uiso   1.00
H1356  H     0.66524   0.53756   0.46622   0.00000  Uiso   1.00
H1357  H     0.57959   0.68223   0.41879   0.00000  Uiso   1.00
H1358  H     0.57303   0.65774   0.37399   0.00000  Uiso   1.00
H1359  H     0.51379   0.65957   0.40900   0.00000  Uiso   1.00
H1360  H     0.51167   0.68377   0.36576   0.00000  Uiso   1.00
H1361  H     0.92041   0.81778   0.58121   0.00000  Uiso   1.00
H1362  H     0.92427   0.79322   0.62628   0.00000  Uiso   1.00
H1363  H     0.92697   0.84226   0.62601   0.00000  Uiso   1.00
H1364  H     0.98833   0.81623   0.63424   0.00000  Uiso   1.00
H1365  H     0.98621   0.84043   0.59100   0.00000  Uiso   1.00
H1366  H     0.81777   0.92041   0.41879   0.00000  Uiso   1.00
H1367  H     0.83476   0.96244   0.53379   0.00000  Uiso   1.00
H1368  H     0.79321   0.92427   0.37372   0.00000  Uiso   1.00
H1369  H     0.84226   0.92696   0.37399   0.00000  Uiso   1.00
H1370  H     0.81623   0.98833   0.36576   0.00000  Uiso   1.00
H1371  H     0.84043   0.98620   0.40900   0.00000  Uiso   1.00
H1372  H     0.70679   0.57573   0.62628   0.00000  Uiso   1.00
H1373  H     0.68223   0.57959   0.58121   0.00000  Uiso   1.00
H1374  H     0.65775   0.57304   0.62601   0.00000  Uiso   1.00
H1375  H     0.65957   0.51380   0.59100   0.00000  Uiso   1.00
H1376  H     0.68377   0.51168   0.63424   0.00000  Uiso   1.00
H1377  H     0.82959   0.56777   0.91879   0.00000  Uiso   1.00
H1378  H     0.71244   0.91524   0.96622   0.00000  Uiso   1.00
H1379  H     0.82573   0.54321   0.87372   0.00000  Uiso   1.00
H1380  H     0.82303   0.59226   0.87399   0.00000  Uiso   1.00
H1381  H     0.76167   0.56623   0.86576   0.00000  Uiso   1.00
H1382  H     0.76380   0.59043   0.90900   0.00000  Uiso   1.00
H1383  H     0.67427   0.95679   0.12628   0.00000  Uiso   1.00
H1384  H     0.67041   0.93223   0.08121   0.00000  Uiso   1.00
H1385  H     0.67697   0.90774   0.12601   0.00000  Uiso   1.00
H1386  H     0.73620   0.90957   0.09100   0.00000  Uiso   1.00
H1387  H     0.73833   0.93377   0.13424   0.00000  Uiso   1.00
H1388  H     0.95677   0.67428   0.87372   0.00000  Uiso   1.00
O1389  O     0.75000   0.50000   0.25000   0.00000  Uiso   1.00
O1390  O     0.75000   0.96963   0.66245   0.00000  Uiso   1.00
O1391  O     0.96963   0.75000   0.33755   0.00000  Uiso   1.00
O1392  O     0.53036   0.75000   0.66245   0.00000  Uiso   1.00
O1393  O     0.50000   0.71964   0.83755   0.00000  Uiso   1.00
O1394  O     0.50000   0.78036   0.16245   0.00000  Uiso   1.00
O1395  O     0.78036   0.50000   0.83755   0.00000  Uiso   1.00
O1396  O     0.71963   0.50000   0.16245   0.00000  Uiso   1.00
O1397  O     0.50000   0.78037   0.83755   0.00000  Uiso   1.00
O1398  O     0.50000   0.71963   0.16245   0.00000  Uiso   1.00
O1399  O     0.71963   0.50000   0.83755   0.00000  Uiso   1.00
O1400  O     0.75000   0.50000   0.75000   0.00000  Uiso   1.00
O1401  O     0.78036   0.50000   0.16245   0.00000  Uiso   1.00
O1402  O     0.70724   0.57308   0.27302   0.00000  Uiso   1.00
O1403  O     0.79275   0.92692   0.72698   0.00000  Uiso   1.00
O1404  O     0.92692   0.70725   0.27302   0.00000  Uiso   1.00
O1405  O     0.57307   0.79275   0.72698   0.00000  Uiso   1.00
O1406  O     0.79275   0.92692   0.27302   0.00000  Uiso   1.00
O1407  O     0.70724   0.57308   0.72698   0.00000  Uiso   1.00
O1408  O     0.57307   0.79275   0.27302   0.00000  Uiso   1.00
O1409  O     0.92692   0.70725   0.72698   0.00000  Uiso   1.00
O1410  O     0.70724   0.92692   0.72698   0.00000  Uiso   1.00
O1411  O     0.50000   0.75000   0.25000   0.00000  Uiso   1.00
O1412  O     0.79275   0.57308   0.27302   0.00000  Uiso   1.00
O1413  O     0.92692   0.79276   0.72698   0.00000  Uiso   1.00
O1414  O     0.57307   0.70724   0.27302   0.00000  Uiso   1.00
O1415  O     0.79275   0.57308   0.72698   0.00000  Uiso   1.00
O1416  O     0.70724   0.92692   0.27302   0.00000  Uiso   1.00
O1417  O     0.57307   0.70724   0.72698   0.00000  Uiso   1.00
O1418  O     0.92692   0.79276   0.27302   0.00000  Uiso   1.00
O1419  O     0.95724   0.82308   0.77302   0.00000  Uiso   1.00
O1420  O     0.54275   0.67692   0.22698   0.00000  Uiso   1.00
O1421  O     0.67692   0.95724   0.77302   0.00000  Uiso   1.00
O1422  O     0.50000   0.75000   0.75000   0.00000  Uiso   1.00
O1423  O     0.82307   0.54276   0.22698   0.00000  Uiso   1.00
O1424  O     0.54275   0.67692   0.77302   0.00000  Uiso   1.00
O1425  O     0.95724   0.82308   0.22698   0.00000  Uiso   1.00
O1426  O     0.82307   0.54276   0.77302   0.00000  Uiso   1.00
O1427  O     0.67692   0.95724   0.22698   0.00000  Uiso   1.00
O1428  O     0.95724   0.67693   0.22698   0.00000  Uiso   1.00
O1429  O     0.54275   0.82307   0.77302   0.00000  Uiso   1.00
O1430  O     0.67692   0.54276   0.22698   0.00000  Uiso   1.00
O1431  O     0.82307   0.95724   0.77302   0.00000  Uiso   1.00
O1432  O     0.54275   0.82307   0.22698   0.00000  Uiso   1.00
O1433  O     0.75000   0.96963   0.33755   0.00000  Uiso   1.00
O1434  O     0.95724   0.67693   0.77302   0.00000  Uiso   1.00
O1435  O     0.82307   0.95724   0.22698   0.00000  Uiso   1.00
O1436  O     0.67692   0.54276   0.77302   0.00000  Uiso   1.00
O1437  O     0.75000   0.53037   0.66245   0.00000  Uiso   1.00
O1438  O     0.53036   0.75000   0.33755   0.00000  Uiso   1.00
O1439  O     0.96963   0.75000   0.66245   0.00000  Uiso   1.00
O1440  O     0.75000   0.53037   0.33755   0.00000  Uiso   1.00
Zn1441 Zn    0.70659   0.50000   0.21735   0.00000  Uiso   1.00
Zn1442 Zn    0.54340   0.75000   0.28265   0.00000  Uiso   1.00
Zn1443 Zn    0.75000   0.95659   0.71735   0.00000  Uiso   1.00
Zn1444 Zn    0.75000   0.54341   0.28265   0.00000  Uiso   1.00
Zn1445 Zn    0.54340   0.75000   0.71735   0.00000  Uiso   1.00
Zn1446 Zn    0.95659   0.75000   0.28265   0.00000  Uiso   1.00
Zn1447 Zn    0.75000   0.54341   0.71735   0.00000  Uiso   1.00
Zn1448 Zn    0.75000   0.95659   0.28265   0.00000  Uiso   1.00
Zn1449 Zn    0.79340   0.50000   0.78265   0.00000  Uiso   1.00
Zn1450 Zn    0.50000   0.70660   0.21735   0.00000  Uiso   1.00
Zn1451 Zn    0.50000   0.79340   0.78265   0.00000  Uiso   1.00
Zn1452 Zn    0.79340   0.50000   0.21735   0.00000  Uiso   1.00
Zn1453 Zn    0.70659   0.50000   0.78265   0.00000  Uiso   1.00
Zn1454 Zn    0.50000   0.79340   0.21735   0.00000  Uiso   1.00
Zn1455 Zn    0.50000   0.70659   0.78265   0.00000  Uiso   1.00
Zn1456 Zn    0.95659   0.75000   0.71735   0.00000  Uiso   1.00
loop_
_geom_bond_atom_site_label_1
_geom_bond_atom_site_label_2
_geom_bond_distance
_geom_bond_site_symmetry_2
_ccdc_geom_bond_type
C1     C43     1.533   .     S
C1     C442    1.414   .     A
C1     C4      1.414   .     A
C2     C14     1.414   .     A
C2     C63     1.533   .     S
C2     C812    1.414   .     S
C3     C147    1.414   .     A
C3     C90     1.404   .     A
C3     C38     1.419   .     S
C4     C91     1.404   .     A
C4     C398    1.419   .     S
C5     C81     1.414   .     A
C5     C93     1.404   .     A
C5     C36     1.419   .     S
C6     C94     1.404   .     A
C6     C92     1.414   .     A
C6     C37     1.419   .     S
C7     C103    1.414   .     A
C7     C766    1.419   .     A
C7     C95     1.404   .     A
C8     C35     1.414   .     A
C8     C96     1.404   .     A
C8     C767    1.419   .     S
C9     C46     1.414   .     A
C9     C97     1.404   .     A
C9     C40     1.419   .     A
C10    C57     1.414   .     A
C10    C98     1.404   .     A
C10    C41     1.419   .     S
C11    C68     1.414   .     A
C11    C99     1.404   .     A
C11    C406    1.419   .     A
C12    C158    1.414   .     A
C12    C39     1.419   .     A
C12    C100    1.404   .     A
C13    C449    1.414   .     A
C13    C15     1.414   .     A
C13    C65     1.533   .     S
C14    C101    1.404   .     A
C14    C768    1.419   .     S
C15    C405    1.419   .     A
C15    C102    1.404   .     A
C16    C104    1.404   .     A
C16    C24     1.414   .     A
C16    C42     1.419   .     S
C17    C120    1.455   .     S
C17    C148    1.402   .     A
C17    C150    1.402   .     A
C18    C121    1.455   .     S
C18    C149    1.402   .     A
C18    C146    1.402   .     A
C19    C113    1.455   .     S
C19    C145    1.402   .     A
C19    C152    1.402   .     A
C20    C144    1.402   .     A
C20    C151    1.402   .     A
C20    C115    1.455   .     S
C21    C116    1.455   .     S
C21    C143    1.402   .     A
C21    C154    1.402   .     A
C22    C142    1.402   .     A
C22    C153    1.402   .     A
C22    C117    1.455   .     S
C23    C118    1.455   .     S
C23    C141    1.402   .     A
C23    C156    1.402   .     A
C24    C67     1.533   .     S
C24    C86     1.414   .     S
C25    C119    1.455   .     S
C25    C140    1.402   .     A
C25    C155    1.402   .     A
C26    C139    1.402   .     A
C26    C159    1.402   .     A
C26    C129    1.455   .     S
C27    C138    1.402   .     A
C27    C157    1.402   .     A
C27    C130    1.455   .     S
C28    C137    1.402   .     A
C28    C122    1.455   .     S
C28    C161    1.402   .     A
C29    C135    1.402   .     A
C29    C160    1.402   .     A
C29    C123    1.455   .     S
C30    C134    1.402   .     A
C30    C163    1.402   .     A
C30    C124    1.455   .     S
C31    C162    1.402   .     A
C31    C133    1.402   .     A
C31    C126    1.455   .     S
C32    C127    1.455   .     S
C32    C165    1.402   .     A
C32    C132    1.402   .     A
C33    C128    1.455   .     S
C33    C131    1.402   .     A
C33    C164    1.402   .     A
C34    C166    1.419   .     A
C34    C368    1.419   1_455 S
C34    C36     1.424   .     S
C35    C70     1.533   .     S
C35    C811    1.414   .     S
C36    C531    1.419   1_455 A
C37    C896    1.419   1_545 A
C37    C38     1.424   .     A
C38    C735    1.419   1_545 A
C39    C736    1.419   1_545 S
C39    C40     1.424   1_556 S
C40    C742    1.419   1_545 S
C40    C39     1.424   1_554 S
C41    C379    1.419   1_455 A
C41    C42     1.424   1_556 S
C42    C375    1.419   1_455 A
C42    C41     1.424   1_554 S
C43    H246    1.109   .     S
C43    C44     1.529   .     S
C43    H245    1.109   .     S
C44    H241    1.110   .     S
C44    H244    1.110   .     S
C44    H243    1.109   .     S
C45    C47     1.529   .     S
C45    C81     1.533   .     S
C45    H251    1.109   .     S
C45    H250    1.109   .     S
C46    C84     1.414   .     A
C46    C72     1.533   .     S
C47    H247    1.109   .     S
C47    H249    1.110   .     S
C47    H248    1.110   .     S
C48    C92     1.533   .     S
C48    H257    1.109   .     S
C48    C49     1.529   .     S
C48    H256    1.109   .     S
C49    H255    1.110   .     S
C49    H252    1.109   .     S
C49    H254    1.110   .     S
C50    H262    1.109   .     S
C50    H261    1.109   .     S
C50    C51     1.529   .     S
C50    C103    1.533   .     S
C51    H260    1.110   .     S
C51    H258    1.110   .     S
C51    H259    1.109   .     S
C52    C53     1.529   .     S
C52    H268    1.109   .     S
C52    C114    1.533   .     S
C52    H267    1.109   .     S
C53    H265    1.109   .     S
C53    H263    1.110   .     S
C53    H266    1.110   .     S
C54    C125    1.533   .     S
C54    H272    1.109   .     S
C54    C55     1.529   .     S
C54    H273    1.109   .     S
C55    H269    1.109   .     S
C55    H270    1.110   .     S
C55    H271    1.110   .     S
C56    C136    1.533   .     S
C56    C58     1.529   .     S
C56    H279    1.109   .     S
C56    H278    1.109   .     S
C57    C74     1.533   .     S
C57    C85     1.414   .     S
C58    H276    1.110   .     S
C58    H277    1.110   .     S
C58    H274    1.109   .     S
C59    H284    1.109   .     S
C59    C147    1.533   .     S
C59    H283    1.109   .     S
C59    C60     1.529   .     S
C60    H281    1.109   .     S
C60    H282    1.110   .     S
C60    H280    1.110   .     S
C61    C158    1.533   .     S
C61    C62     1.529   .     S
C61    H290    1.109   .     S
C61    H289    1.109   .     S
C62    H288    1.110   .     S
C62    H287    1.110   .     S
C62    H285    1.109   .     S
C63    H295    1.109   .     S
C63    C64     1.529   .     S
C63    H294    1.109   .     S
C64    H291    1.110   .     S
C64    H293    1.110   .     S
C64    H292    1.109   .     S
C65    H174    1.109   .     S
C65    H173    1.109   .     S
C65    C66     1.529   .     S
C66    H296    1.110   .     S
C66    H171    1.109   .     S
C66    H172    1.110   .     S
C67    H178    1.109   .     S
C67    H179    1.109   .     S
C67    C69     1.529   .     S
C68    C450    1.414   .     A
C68    C76     1.533   .     S
C69    H175    1.109   .     S
C69    H177    1.110   .     S
C69    H176    1.110   .     S
C70    H185    1.109   .     S
C70    H184    1.109   .     S
C70    C71     1.529   .     S
C71    H183    1.110   .     S
C71    H180    1.109   .     S
C71    H182    1.110   .     S
C72    C73     1.529   .     S
C72    H190    1.109   .     S
C72    H189    1.109   .     S
C73    H186    1.110   .     S
C73    H188    1.110   .     S
C73    H187    1.109   .     S
C74    H196    1.109   .     S
C74    H195    1.109   .     S
C74    C75     1.529   .     S
C75    H191    1.110   .     S
C75    H194    1.110   .     S
C75    H193    1.109   .     S
C76    H201    1.109   .     S
C76    C77     1.529   .     S
C76    H200    1.109   .     S
C77    H198    1.110   .     S
C77    H197    1.109   .     S
C77    H199    1.110   .     S
C78    C365    1.414   1_455 A
C78    C107    1.455   .     S
C78    C114    1.414   .     S
C79    C108    1.455   .     S
C79    C489    1.414   1_455 A
C79    C81     1.414   .     S
C80    C864    1.414   1_545 A
C80    C105    1.455   .     S
C80    C92     1.414   .     S
C82    C106    1.455   .     S
C82    C831    1.414   1_545 A
C82    C147    1.414   .     S
C83    C158    1.414   .     A
C83    C763    1.414   1_545 S
C83    C111    1.455   .     S
C84    C730    1.414   1_545 S
C84    C112    1.455   .     S
C85    C377    1.414   1_455 A
C85    C109    1.454   .     S
C86    C110    1.455   .     S
C86    C432    1.414   1_455 A
C87    H169    1.079   .     S
C87    C93     1.380   .     A
C87    C166    1.404   .     A
C88    C91     1.380   .     A
C88    C167    1.404   .     A
C88    H209    1.079   .     S
C89    C95     1.380   .     A
C89    C168    1.404   .     A
C89    H220    1.079   .     S
C90    C94     1.380   .     A
C90    H231    1.079   .     S
C91    H242    1.079   .     S
C93    H253    1.079   .     S
C94    H264    1.079   .     S
C95    H275    1.079   .     S
C96    H286    1.079   .     S
C96    C101    1.380   1_556 S
C97    H170    1.079   .     S
C97    C100    1.380   1_554 S
C98    H181    1.079   .     S
C98    C104    1.380   1_556 S
C99    H192    1.079   .     S
C99    C102    1.380   1_554 S
C100   H202    1.079   .     S
C100   C97     1.380   1_556 S
C101   H203    1.079   .     S
C101   C96     1.380   1_554 S
C102   H204    1.079   .     S
C102   C99     1.380   1_556 S
C103   C810    1.414   .     A
C104   H205    1.079   .     S
C104   C98     1.380   1_554 S
C105   O1069   1.276   1_545 A
C105   O348    1.276   .     S
C106   O1026   1.276   1_545 A
C106   O345    1.276   .     S
C107   O663    1.276   1_455 A
C107   O346    1.276   .     S
C108   O711    1.276   1_455 A
C108   O300    1.276   .     S
C109   O301    1.276   .     S
C109   O305    1.276   .     S
C110   O302    1.276   .     S
C110   O306    1.276   .     S
C111   O303    1.276   .     S
C111   O307    1.276   .     S
C112   O304    1.276   .     A
C112   O309    1.276   .     A
C113   O310    1.282   .     A
C113   O338    1.282   .     A
C114   C166    1.414   .     A
C115   O311    1.282   .     A
C115   O339    1.282   .     A
C116   O312    1.282   .     A
C116   O336    1.282   .     A
C117   O337    1.282   .     A
C117   O313    1.282   .     A
C118   O314    1.282   .     A
C118   O343    1.282   .     A
C119   O344    1.282   .     A
C119   O315    1.282   .     A
C120   O316    1.282   .     A
C120   O340    1.282   .     A
C121   O317    1.282   .     A
C121   O342    1.282   .     A
C122   O329    1.282   .     A
C122   O318    1.282   .     A
C123   O331    1.282   .     A
C123   O320    1.282   .     A
C124   O321    1.282   .     A
C124   O327    1.282   .     A
C125   C443    1.414   .     A
C125   C167    1.414   .     A
C126   O322    1.282   .     A
C126   O328    1.282   .     A
C127   O323    1.282   .     A
C127   O334    1.282   .     A
C128   O335    1.282   .     A
C128   O324    1.282   .     A
C129   O332    1.282   .     A
C129   O325    1.282   .     A
C130   O333    1.282   .     A
C130   O326    1.282   .     A
C131   C148    1.386   .     A
C131   H206    1.083   .     S
C132   H207    1.083   .     S
C132   C146    1.386   .     A
C133   C145    1.386   .     A
C133   H208    1.083   .     S
C134   H210    1.083   .     S
C134   C144    1.386   .     A
C135   C143    1.386   .     A
C135   H211    1.083   .     S
C136   C808    1.414   .     A
C136   C168    1.414   .     A
C137   H212    1.083   .     S
C137   C142    1.386   .     A
C138   C141    1.386   .     A
C138   H213    1.083   .     S
C139   C140    1.386   .     A
C139   H214    1.083   .     S
C140   H215    1.083   .     S
C141   H216    1.083   .     S
C142   H217    1.083   .     S
C143   H218    1.083   .     S
C144   H219    1.083   .     S
C145   H221    1.083   .     S
C146   H222    1.083   .     S
C148   H223    1.083   .     S
C149   C165    1.386   .     A
C149   H224    1.083   .     S
C150   H225    1.083   .     S
C150   C164    1.386   .     A
C151   H226    1.083   .     S
C151   C163    1.386   .     A
C152   H227    1.083   .     S
C152   C162    1.386   .     A
C153   C161    1.386   .     A
C153   H228    1.083   .     S
C154   H229    1.083   .     S
C154   C160    1.386   .     A
C155   C159    1.386   .     A
C155   H230    1.083   .     S
C156   H232    1.083   .     S
C156   C157    1.386   .     A
C157   H233    1.083   .     S
C159   H234    1.083   .     S
C160   H235    1.083   .     S
C161   H236    1.083   .     S
C162   H237    1.083   .     S
C163   H238    1.083   .     S
C164   H239    1.083   .     S
C165   H240    1.083   .     S
C167   C400    1.419   .     A
C168   C765    1.419   .     A
O297   Zn352   1.949   .     S
O297   Zn360   1.949   .     S
O297   Zn349   1.949   .     S
O297   Zn1084  1.949   1_545 S
O298   C834    1.276   .     A
O298   Zn351   1.952   .     S
O299   Zn354   1.952   .     S
O299   C471    1.276   .     A
O300   Zn353   1.952   .     S
O301   Zn363   1.952   .     S
O302   Zn362   1.952   .     S
O303   Zn357   1.952   .     S
O304   Zn349   1.952   .     S
O305   Zn359   1.952   .     S
O306   Zn358   1.952   .     S
O307   Zn361   1.952   .     S
O308   Zn1079  1.949   1_545 S
O308   Zn357   1.949   .     S
O308   Zn361   1.949   .     S
O308   Zn355   1.949   .     S
O309   Zn360   1.952   .     S
O310   Zn352   1.937   .     S
O311   Zn351   1.937   .     S
O312   Zn354   1.937   .     S
O313   Zn353   1.937   .     S
O314   Zn356   1.937   .     S
O315   Zn355   1.937   .     S
O316   Zn350   1.937   .     S
O317   Zn364   1.937   .     S
O318   Zn351   1.937   .     S
O319   Zn718   1.949   1_455 S
O319   Zn358   1.949   .     S
O319   Zn350   1.949   .     S
O319   Zn362   1.949   .     S
O320   Zn352   1.937   .     S
O321   Zn364   1.937   .     S
O322   Zn350   1.937   .     S
O323   Zn355   1.937   .     S
O324   Zn356   1.937   .     S
O325   Zn353   1.937   .     S
O326   Zn354   1.937   .     S
O327   Zn723   1.937   .     S
O328   Zn358   1.937   .     S
O329   Zn1089  1.937   .     S
O330   Zn728   1.949   1_455 S
O330   Zn353   1.949   .     S
O330   Zn359   1.949   .     S
O330   Zn363   1.949   .     S
O331   Zn360   1.937   .     S
O332   Zn363   1.937   .     S
O333   Zn726   1.937   .     S
O334   Zn357   1.937   .     S
O335   Zn1077  1.937   .     S
O336   Zn722   1.937   .     S
O337   Zn359   1.937   .     S
O338   Zn349   1.937   .     S
O339   Zn1085  1.937   .     S
O340   Zn362   1.937   .     S
O341   Zn356   1.952   .     S
O341   C833    1.276   .     A
O342   Zn727   1.937   .     S
O343   Zn1088  1.937   .     S
O344   Zn361   1.937   .     S
O345   Zn355   1.952   .     S
O346   Zn350   1.952   .     S
O347   C472    1.276   .     A
O347   Zn364   1.952   .     S
O348   Zn352   1.952   .     S
Zn349  O1063   1.937   1_545 S
Zn351  O1036   1.949   .     S
Zn354  O683    1.949   .     S
Zn356  O1025   1.949   .     S
Zn357  O1067   1.937   1_545 S
Zn358  O700    1.937   1_455 S
Zn359  O691    1.937   1_455 S
Zn360  O1071   1.937   1_545 S
Zn361  O1057   1.937   1_545 S
Zn362  O697    1.937   1_455 S
Zn363  O706    1.937   1_455 S
Zn364  O694    1.949   .     S
C365   C407    1.533   .     S
C365   C78     1.414   1_655 A
C365   C368    1.414   .     A
C366   C378    1.414   .     A
C366   C427    1.533   .     S
C366   C1176   1.414   .     S
C367   C511    1.414   .     A
C367   C454    1.404   .     A
C367   C402    1.419   .     S
C368   C455    1.404   .     A
C368   C34     1.419   1_655 S
C369   C445    1.414   .     A
C369   C457    1.404   .     A
C369   C400    1.419   .     S
C370   C458    1.404   .     A
C370   C456    1.414   .     A
C370   C401    1.419   .     S
C371   C467    1.414   .     A
C371   C1130   1.419   .     A
C371   C459    1.404   .     A
C372   C399    1.414   .     A
C372   C460    1.404   .     A
C372   C1131   1.419   .     S
C373   C410    1.414   .     A
C373   C461    1.404   .     A
C373   C404    1.419   .     A
C374   C421    1.414   .     A
C374   C462    1.404   .     A
C374   C405    1.419   .     S
C375   C432    1.414   .     A
C375   C463    1.404   .     A
C375   C42     1.419   1_655 A
C376   C522    1.414   .     A
C376   C403    1.419   .     A
C376   C464    1.404   .     A
C377   C85     1.414   1_655 A
C377   C379    1.414   .     A
C377   C429    1.533   .     S
C378   C465    1.404   .     A
C378   C1132   1.419   .     S
C379   C41     1.419   1_655 A
C379   C466    1.404   .     A
C380   C468    1.404   .     A
C380   C388    1.414   .     A
C380   C406    1.419   .     S
C381   C484    1.455   .     S
C381   C512    1.402   .     A
C381   C514    1.402   .     A
C382   C485    1.455   .     S
C382   C513    1.402   .     A
C382   C510    1.402   .     A
C383   C477    1.455   .     S
C383   C509    1.402   .     A
C383   C516    1.402   .     A
C384   C508    1.402   .     A
C384   C515    1.402   .     A
C384   C479    1.455   .     S
C385   C480    1.455   .     S
C385   C507    1.402   .     A
C385   C518    1.402   .     A
C386   C506    1.402   .     A
C386   C517    1.402   .     A
C386   C481    1.455   .     S
C387   C482    1.455   .     S
C387   C505    1.402   .     A
C387   C520    1.402   .     A
C388   C431    1.533   .     S
C388   C450    1.414   .     S
C389   C483    1.455   .     S
C389   C504    1.402   .     A
C389   C519    1.402   .     A
C390   C503    1.402   .     A
C390   C523    1.402   .     A
C390   C493    1.455   .     S
C391   C502    1.402   .     A
C391   C521    1.402   .     A
C391   C494    1.455   .     S
C392   C501    1.402   .     A
C392   C486    1.455   .     S
C392   C525    1.402   .     A
C393   C499    1.402   .     A
C393   C524    1.402   .     A
C393   C487    1.455   .     S
C394   C498    1.402   .     A
C394   C527    1.402   .     A
C394   C488    1.455   .     S
C395   C526    1.402   .     A
C395   C497    1.402   .     A
C395   C490    1.455   .     S
C396   C491    1.455   .     S
C396   C529    1.402   .     A
C396   C496    1.402   .     A
C397   C492    1.455   .     S
C397   C495    1.402   .     A
C397   C528    1.402   .     A
C398   C530    1.419   .     A
C398   C400    1.424   .     S
C399   C434    1.533   .     S
C399   C1175   1.414   .     S
C401   C1260   1.419   1_545 A
C401   C402    1.424   .     A
C402   C1099   1.419   1_545 A
C403   C1100   1.419   1_545 S
C403   C404    1.424   1_556 S
C404   C1106   1.419   1_545 S
C404   C403    1.424   1_554 S
C405   C406    1.424   1_556 S
C406   C405    1.424   1_554 S
C407   H610    1.109   .     S
C407   C408    1.529   .     S
C407   H609    1.109   .     S
C408   H605    1.110   .     S
C408   H608    1.110   .     S
C408   H607    1.109   .     S
C409   C411    1.529   .     S
C409   C445    1.533   .     S
C409   H615    1.109   .     S
C409   H614    1.109   .     S
C410   C448    1.414   .     A
C410   C436    1.533   .     S
C411   H611    1.109   .     S
C411   H613    1.110   .     S
C411   H612    1.110   .     S
C412   C456    1.533   .     S
C412   H621    1.109   .     S
C412   C413    1.529   .     S
C412   H620    1.109   .     S
C413   H619    1.110   .     S
C413   H616    1.109   .     S
C413   H618    1.110   .     S
C414   H626    1.109   .     S
C414   H625    1.109   .     S
C414   C415    1.529   .     S
C414   C467    1.533   .     S
C415   H624    1.110   .     S
C415   H622    1.110   .     S
C415   H623    1.109   .     S
C416   C417    1.529   .     S
C416   H632    1.109   .     S
C416   C478    1.533   .     S
C416   H631    1.109   .     S
C417   H629    1.109   .     S
C417   H627    1.110   .     S
C417   H630    1.110   .     S
C418   C489    1.533   .     S
C418   H636    1.109   .     S
C418   C419    1.529   .     S
C418   H637    1.109   .     S
C419   H633    1.109   .     S
C419   H634    1.110   .     S
C419   H635    1.110   .     S
C420   C500    1.533   .     S
C420   C422    1.529   .     S
C420   H643    1.109   .     S
C420   H642    1.109   .     S
C421   C438    1.533   .     S
C421   C449    1.414   .     S
C422   H640    1.110   .     S
C422   H641    1.110   .     S
C422   H638    1.109   .     S
C423   H648    1.109   .     S
C423   C511    1.533   .     S
C423   H647    1.109   .     S
C423   C424    1.529   .     S
C424   H645    1.109   .     S
C424   H646    1.110   .     S
C424   H644    1.110   .     S
C425   C522    1.533   .     S
C425   C426    1.529   .     S
C425   H654    1.109   .     S
C425   H653    1.109   .     S
C426   H652    1.110   .     S
C426   H651    1.110   .     S
C426   H649    1.109   .     S
C427   H659    1.109   .     S
C427   C428    1.529   .     S
C427   H658    1.109   .     S
C428   H655    1.110   .     S
C428   H657    1.110   .     S
C428   H656    1.109   .     S
C429   H538    1.109   .     S
C429   H537    1.109   .     S
C429   C430    1.529   .     S
C430   H660    1.110   .     S
C430   H535    1.109   .     S
C430   H536    1.110   .     S
C431   H542    1.109   .     S
C431   H543    1.109   .     S
C431   C433    1.529   .     S
C432   C86     1.414   1_655 A
C432   C440    1.533   .     S
C433   H539    1.109   .     S
C433   H541    1.110   .     S
C433   H540    1.110   .     S
C434   H549    1.109   .     S
C434   H548    1.109   .     S
C434   C435    1.529   .     S
C435   H547    1.110   .     S
C435   H544    1.109   .     S
C435   H546    1.110   .     S
C436   C437    1.529   .     S
C436   H554    1.109   .     S
C436   H553    1.109   .     S
C437   H550    1.110   .     S
C437   H552    1.110   .     S
C437   H551    1.109   .     S
C438   H560    1.109   .     S
C438   H559    1.109   .     S
C438   C439    1.529   .     S
C439   H555    1.110   .     S
C439   H558    1.110   .     S
C439   H557    1.109   .     S
C440   H565    1.109   .     S
C440   C441    1.529   .     S
C440   H564    1.109   .     S
C441   H562    1.110   .     S
C441   H561    1.109   .     S
C441   H563    1.110   .     S
C442   C471    1.455   .     S
C442   C478    1.414   .     S
C443   C472    1.455   .     S
C443   C445    1.414   .     S
C444   C1228   1.414   1_545 A
C444   C469    1.455   .     S
C444   C456    1.414   .     S
C446   C470    1.455   .     S
C446   C1195   1.414   1_545 A
C446   C511    1.414   .     S
C447   C522    1.414   .     A
C447   C1127   1.414   1_545 S
C447   C475    1.455   .     S
C448   C1094   1.414   1_545 S
C448   C476    1.455   .     S
C449   C473    1.454   .     S
C450   C474    1.455   .     S
C451   H533    1.079   .     S
C451   C457    1.380   .     A
C451   C530    1.404   .     A
C452   C455    1.380   .     A
C452   C531    1.404   .     A
C452   H573    1.079   .     S
C453   C459    1.380   .     A
C453   C532    1.404   .     A
C453   H584    1.079   .     S
C454   C458    1.380   .     A
C454   H595    1.079   .     S
C455   H606    1.079   .     S
C457   H617    1.079   .     S
C458   H628    1.079   .     S
C459   H639    1.079   .     S
C460   H650    1.079   .     S
C460   C465    1.380   1_556 S
C461   H534    1.079   .     S
C461   C464    1.380   1_554 S
C462   H545    1.079   .     S
C462   C468    1.380   1_556 S
C463   H556    1.079   .     S
C463   C466    1.380   1_554 S
C464   H566    1.079   .     S
C464   C461    1.380   1_556 S
C465   H567    1.079   .     S
C465   C460    1.380   1_554 S
C466   H568    1.079   .     S
C466   C463    1.380   1_556 S
C467   C1174   1.414   .     A
C468   H569    1.079   .     S
C468   C462    1.380   1_554 S
C469   O1433   1.276   1_545 A
C469   O712    1.276   .     S
C470   O1390   1.276   1_545 A
C470   O709    1.276   .     S
C471   O710    1.276   .     S
C472   O664    1.276   .     S
C473   O665    1.276   .     S
C473   O669    1.276   .     S
C474   O666    1.276   .     S
C474   O670    1.276   .     S
C475   O667    1.276   .     S
C475   O671    1.276   .     S
C476   O668    1.276   .     A
C476   O673    1.276   .     A
C477   O674    1.282   .     A
C477   O702    1.282   .     A
C478   C530    1.414   .     A
C479   O675    1.282   .     A
C479   O703    1.282   .     A
C480   O676    1.282   .     A
C480   O700    1.282   .     A
C481   O701    1.282   .     A
C481   O677    1.282   .     A
C482   O678    1.282   .     A
C482   O707    1.282   .     A
C483   O708    1.282   .     A
C483   O679    1.282   .     A
C484   O680    1.282   .     A
C484   O704    1.282   .     A
C485   O681    1.282   .     A
C485   O706    1.282   .     A
C486   O693    1.282   .     A
C486   O682    1.282   .     A
C487   O695    1.282   .     A
C487   O684    1.282   .     A
C488   O685    1.282   .     A
C488   O691    1.282   .     A
C489   C79     1.414   1_655 A
C489   C531    1.414   .     A
C490   O686    1.282   .     A
C490   O692    1.282   .     A
C491   O687    1.282   .     A
C491   O698    1.282   .     A
C492   O699    1.282   .     A
C492   O688    1.282   .     A
C493   O696    1.282   .     A
C493   O689    1.282   .     A
C494   O697    1.282   .     A
C494   O690    1.282   .     A
C495   C512    1.386   .     A
C495   H570    1.083   .     S
C496   H571    1.083   .     S
C496   C510    1.386   .     A
C497   C509    1.386   .     A
C497   H572    1.083   .     S
C498   H574    1.083   .     S
C498   C508    1.386   .     A
C499   C507    1.386   .     A
C499   H575    1.083   .     S
C500   C1172   1.414   .     A
C500   C532    1.414   .     A
C501   H576    1.083   .     S
C501   C506    1.386   .     A
C502   C505    1.386   .     A
C502   H577    1.083   .     S
C503   C504    1.386   .     A
C503   H578    1.083   .     S
C504   H579    1.083   .     S
C505   H580    1.083   .     S
C506   H581    1.083   .     S
C507   H582    1.083   .     S
C508   H583    1.083   .     S
C509   H585    1.083   .     S
C510   H586    1.083   .     S
C512   H587    1.083   .     S
C513   C529    1.386   .     A
C513   H588    1.083   .     S
C514   H589    1.083   .     S
C514   C528    1.386   .     A
C515   H590    1.083   .     S
C515   C527    1.386   .     A
C516   H591    1.083   .     S
C516   C526    1.386   .     A
C517   C525    1.386   .     A
C517   H592    1.083   .     S
C518   H593    1.083   .     S
C518   C524    1.386   .     A
C519   C523    1.386   .     A
C519   H594    1.083   .     S
C520   H596    1.083   .     S
C520   C521    1.386   .     A
C521   H597    1.083   .     S
C523   H598    1.083   .     S
C524   H599    1.083   .     S
C525   H600    1.083   .     S
C526   H601    1.083   .     S
C527   H602    1.083   .     S
C528   H603    1.083   .     S
C529   H604    1.083   .     S
C531   C36     1.419   1_655 A
C532   C1129   1.419   .     A
O661   Zn716   1.949   .     S
O661   Zn724   1.949   .     S
O661   Zn713   1.949   .     S
O661   Zn1448  1.949   1_545 S
O662   C1198   1.276   .     A
O662   Zn715   1.952   .     S
O663   Zn718   1.952   .     S
O663   C107    1.276   1_655 A
O664   Zn717   1.952   .     S
O665   Zn727   1.952   .     S
O666   Zn726   1.952   .     S
O667   Zn721   1.952   .     S
O668   Zn713   1.952   .     S
O669   Zn723   1.952   .     S
O670   Zn722   1.952   .     S
O671   Zn725   1.952   .     S
O672   Zn1443  1.949   1_545 S
O672   Zn721   1.949   .     S
O672   Zn725   1.949   .     S
O672   Zn719   1.949   .     S
O673   Zn724   1.952   .     S
O674   Zn716   1.937   .     S
O675   Zn715   1.937   .     S
O676   Zn718   1.937   .     S
O677   Zn717   1.937   .     S
O678   Zn720   1.937   .     S
O679   Zn719   1.937   .     S
O680   Zn714   1.937   .     S
O681   Zn728   1.937   .     S
O682   Zn715   1.937   .     S
O683   Zn722   1.949   .     S
O683   Zn714   1.949   .     S
O683   Zn726   1.949   .     S
O684   Zn716   1.937   .     S
O685   Zn728   1.937   .     S
O686   Zn714   1.937   .     S
O687   Zn719   1.937   .     S
O688   Zn720   1.937   .     S
O689   Zn717   1.937   .     S
O690   Zn718   1.937   .     S
O691   Zn359   1.937   1_655 S
O692   Zn722   1.937   .     S
O693   Zn1453  1.937   .     S
O694   Zn717   1.949   .     S
O694   Zn723   1.949   .     S
O694   Zn727   1.949   .     S
O695   Zn724   1.937   .     S
O696   Zn727   1.937   .     S
O697   Zn362   1.937   1_655 S
O698   Zn721   1.937   .     S
O699   Zn1441  1.937   .     S
O700   Zn358   1.937   1_655 S
O701   Zn723   1.937   .     S
O702   Zn713   1.937   .     S
O703   Zn1449  1.937   .     S
O704   Zn726   1.937   .     S
O705   Zn720   1.952   .     S
O705   C1197   1.276   .     A
O706   Zn363   1.937   1_655 S
O707   Zn1452  1.937   .     S
O708   Zn725   1.937   .     S
O709   Zn719   1.952   .     S
O710   Zn714   1.952   .     S
O711   C108    1.276   1_655 A
O711   Zn728   1.952   .     S
O712   Zn716   1.952   .     S
Zn713  O1427   1.937   1_545 S
Zn715  O1400   1.949   .     S
Zn718  O319    1.949   1_655 S
Zn720  O1389   1.949   .     S
Zn721  O1431   1.937   1_545 S
Zn724  O1435   1.937   1_545 S
Zn725  O1421   1.937   1_545 S
Zn728  O330    1.949   1_655 S
C729   C771    1.533   .     S
C729   C1170   1.414   .     A
C729   C732    1.414   .     A
C730   C742    1.414   .     A
C730   C791    1.533   .     S
C730   C84     1.414   1_565 S
C731   C875    1.414   .     A
C731   C818    1.404   .     A
C731   C766    1.419   .     S
C732   C819    1.404   .     A
C732   C1126   1.419   .     S
C733   C809    1.414   .     A
C733   C821    1.404   .     A
C733   C764    1.419   .     S
C734   C822    1.404   .     A
C734   C820    1.414   .     A
C734   C765    1.419   .     S
C735   C831    1.414   .     A
C735   C38     1.419   1_565 A
C735   C823    1.404   .     A
C736   C763    1.414   .     A
C736   C824    1.404   .     A
C736   C39     1.419   1_565 S
C737   C774    1.414   .     A
C737   C825    1.404   .     A
C737   C768    1.419   .     A
C738   C785    1.414   .     A
C738   C826    1.404   .     A
C738   C769    1.419   .     S
C739   C796    1.414   .     A
C739   C827    1.404   .     A
C739   C1134   1.419   .     A
C740   C886    1.414   .     A
C740   C767    1.419   .     A
C740   C828    1.404   .     A
C741   C1177   1.414   .     A
C741   C743    1.414   .     A
C741   C793    1.533   .     S
C742   C829    1.404   .     A
C742   C40     1.419   1_565 S
C743   C1133   1.419   .     A
C743   C830    1.404   .     A
C744   C832    1.404   .     A
C744   C752    1.414   .     A
C744   C770    1.419   .     S
C745   C848    1.455   .     S
C745   C876    1.402   .     A
C745   C878    1.402   .     A
C746   C849    1.455   .     S
C746   C877    1.402   .     A
C746   C874    1.402   .     A
C747   C841    1.455   .     S
C747   C873    1.402   .     A
C747   C880    1.402   .     A
C748   C872    1.402   .     A
C748   C879    1.402   .     A
C748   C843    1.455   .     S
C749   C844    1.455   .     S
C749   C871    1.402   .     A
C749   C882    1.402   .     A
C750   C870    1.402   .     A
C750   C881    1.402   .     A
C750   C845    1.455   .     S
C751   C846    1.455   .     S
C751   C869    1.402   .     A
C751   C884    1.402   .     A
C752   C795    1.533   .     S
C752   C814    1.414   .     S
C753   C847    1.455   .     S
C753   C868    1.402   .     A
C753   C883    1.402   .     A
C754   C867    1.402   .     A
C754   C887    1.402   .     A
C754   C857    1.455   .     S
C755   C866    1.402   .     A
C755   C885    1.402   .     A
C755   C858    1.455   .     S
C756   C865    1.402   .     A
C756   C850    1.455   .     S
C756   C889    1.402   .     A
C757   C863    1.402   .     A
C757   C888    1.402   .     A
C757   C851    1.455   .     S
C758   C862    1.402   .     A
C758   C891    1.402   .     A
C758   C852    1.455   .     S
C759   C890    1.402   .     A
C759   C861    1.402   .     A
C759   C854    1.455   .     S
C760   C855    1.455   .     S
C760   C893    1.402   .     A
C760   C860    1.402   .     A
C761   C856    1.455   .     S
C761   C859    1.402   .     A
C761   C892    1.402   .     A
C762   C894    1.419   .     A
C762   C1096   1.419   1_455 S
C762   C764    1.424   .     S
C763   C798    1.533   .     S
C763   C83     1.414   1_565 S
C764   C1259   1.419   1_455 A
C765   C766    1.424   .     A
C767   C768    1.424   1_556 S
C768   C767    1.424   1_554 S
C769   C1107   1.419   1_455 A
C769   C770    1.424   1_556 S
C770   C1103   1.419   1_455 A
C770   C769    1.424   1_554 S
C771   H974    1.109   .     S
C771   C772    1.529   .     S
C771   H973    1.109   .     S
C772   H969    1.110   .     S
C772   H972    1.110   .     S
C772   H971    1.109   .     S
C773   C775    1.529   .     S
C773   C809    1.533   .     S
C773   H979    1.109   .     S
C773   H978    1.109   .     S
C774   C812    1.414   .     A
C774   C800    1.533   .     S
C775   H975    1.109   .     S
C775   H977    1.110   .     S
C775   H976    1.110   .     S
C776   C820    1.533   .     S
C776   H985    1.109   .     S
C776   C777    1.529   .     S
C776   H984    1.109   .     S
C777   H983    1.110   .     S
C777   H980    1.109   .     S
C777   H982    1.110   .     S
C778   H990    1.109   .     S
C778   H989    1.109   .     S
C778   C779    1.529   .     S
C778   C831    1.533   .     S
C779   H988    1.110   .     S
C779   H986    1.110   .     S
C779   H987    1.109   .     S
C780   C781    1.529   .     S
C780   H996    1.109   .     S
C780   C842    1.533   .     S
C780   H995    1.109   .     S
C781   H993    1.109   .     S
C781   H991    1.110   .     S
C781   H994    1.110   .     S
C782   C853    1.533   .     S
C782   H1000   1.109   .     S
C782   C783    1.529   .     S
C782   H1001   1.109   .     S
C783   H997    1.109   .     S
C783   H998    1.110   .     S
C783   H999    1.110   .     S
C784   C864    1.533   .     S
C784   C786    1.529   .     S
C784   H1007   1.109   .     S
C784   H1006   1.109   .     S
C785   C802    1.533   .     S
C785   C813    1.414   .     S
C786   H1004   1.110   .     S
C786   H1005   1.110   .     S
C786   H1002   1.109   .     S
C787   H1012   1.109   .     S
C787   C875    1.533   .     S
C787   H1011   1.109   .     S
C787   C788    1.529   .     S
C788   H1009   1.109   .     S
C788   H1010   1.110   .     S
C788   H1008   1.110   .     S
C789   C886    1.533   .     S
C789   C790    1.529   .     S
C789   H1018   1.109   .     S
C789   H1017   1.109   .     S
C790   H1016   1.110   .     S
C790   H1015   1.110   .     S
C790   H1013   1.109   .     S
C791   H1023   1.109   .     S
C791   C792    1.529   .     S
C791   H1022   1.109   .     S
C792   H1019   1.110   .     S
C792   H1021   1.110   .     S
C792   H1020   1.109   .     S
C793   H902    1.109   .     S
C793   H901    1.109   .     S
C793   C794    1.529   .     S
C794   H1024   1.110   .     S
C794   H899    1.109   .     S
C794   H900    1.110   .     S
C795   H906    1.109   .     S
C795   H907    1.109   .     S
C795   C797    1.529   .     S
C796   C1178   1.414   .     A
C796   C804    1.533   .     S
C797   H903    1.109   .     S
C797   H905    1.110   .     S
C797   H904    1.110   .     S
C798   H913    1.109   .     S
C798   H912    1.109   .     S
C798   C799    1.529   .     S
C799   H911    1.110   .     S
C799   H908    1.109   .     S
C799   H910    1.110   .     S
C800   C801    1.529   .     S
C800   H918    1.109   .     S
C800   H917    1.109   .     S
C801   H914    1.110   .     S
C801   H916    1.110   .     S
C801   H915    1.109   .     S
C802   H924    1.109   .     S
C802   H923    1.109   .     S
C802   C803    1.529   .     S
C803   H919    1.110   .     S
C803   H922    1.110   .     S
C803   H921    1.109   .     S
C804   H929    1.109   .     S
C804   C805    1.529   .     S
C804   H928    1.109   .     S
C805   H926    1.110   .     S
C805   H925    1.109   .     S
C805   H927    1.110   .     S
C806   C1093   1.414   1_455 A
C806   C835    1.455   .     S
C806   C842    1.414   .     S
C807   C836    1.455   .     S
C807   C1217   1.414   1_455 A
C807   C809    1.414   .     S
C808   C833    1.455   .     S
C808   C820    1.414   .     S
C810   C834    1.455   .     S
C810   C875    1.414   .     S
C811   C886    1.414   .     A
C811   C839    1.455   .     S
C812   C840    1.455   .     S
C813   C1105   1.414   1_455 A
C813   C837    1.454   .     S
C814   C838    1.455   .     S
C814   C1160   1.414   1_455 A
C815   H897    1.079   .     S
C815   C821    1.380   .     A
C815   C894    1.404   .     A
C816   C819    1.380   .     A
C816   C895    1.404   .     A
C816   H937    1.079   .     S
C817   C823    1.380   .     A
C817   C896    1.404   .     A
C817   H948    1.079   .     S
C818   C822    1.380   .     A
C818   H959    1.079   .     S
C819   H970    1.079   .     S
C821   H981    1.079   .     S
C822   H992    1.079   .     S
C823   H1003   1.079   .     S
C824   H1014   1.079   .     S
C824   C829    1.380   1_556 S
C825   H898    1.079   .     S
C825   C828    1.380   1_554 S
C826   H909    1.079   .     S
C826   C832    1.380   1_556 S
C827   H920    1.079   .     S
C827   C830    1.380   1_554 S
C828   H930    1.079   .     S
C828   C825    1.380   1_556 S
C829   H931    1.079   .     S
C829   C824    1.380   1_554 S
C830   H932    1.079   .     S
C830   C827    1.380   1_556 S
C831   C82     1.414   1_565 A
C832   H933    1.079   .     S
C832   C826    1.380   1_554 S
C833   O1076   1.276   .     S
C834   O1073   1.276   .     S
C835   O1391   1.276   1_455 A
C835   O1074   1.276   .     S
C836   O1439   1.276   1_455 A
C836   O1028   1.276   .     S
C837   O1029   1.276   .     S
C837   O1033   1.276   .     S
C838   O1030   1.276   .     S
C838   O1034   1.276   .     S
C839   O1031   1.276   .     S
C839   O1035   1.276   .     S
C840   O1032   1.276   .     A
C840   O1037   1.276   .     A
C841   O1038   1.282   .     A
C841   O1066   1.282   .     A
C842   C894    1.414   .     A
C843   O1039   1.282   .     A
C843   O1067   1.282   .     A
C844   O1040   1.282   .     A
C844   O1064   1.282   .     A
C845   O1065   1.282   .     A
C845   O1041   1.282   .     A
C846   O1042   1.282   .     A
C846   O1071   1.282   .     A
C847   O1072   1.282   .     A
C847   O1043   1.282   .     A
C848   O1044   1.282   .     A
C848   O1068   1.282   .     A
C849   O1045   1.282   .     A
C849   O1070   1.282   .     A
C850   O1057   1.282   .     A
C850   O1046   1.282   .     A
C851   O1059   1.282   .     A
C851   O1048   1.282   .     A
C852   O1049   1.282   .     A
C852   O1055   1.282   .     A
C853   C1171   1.414   .     A
C853   C895    1.414   .     A
C854   O1050   1.282   .     A
C854   O1056   1.282   .     A
C855   O1051   1.282   .     A
C855   O1062   1.282   .     A
C856   O1063   1.282   .     A
C856   O1052   1.282   .     A
C857   O1060   1.282   .     A
C857   O1053   1.282   .     A
C858   O1061   1.282   .     A
C858   O1054   1.282   .     A
C859   C876    1.386   .     A
C859   H934    1.083   .     S
C860   H935    1.083   .     S
C860   C874    1.386   .     A
C861   C873    1.386   .     A
C861   H936    1.083   .     S
C862   H938    1.083   .     S
C862   C872    1.386   .     A
C863   C871    1.386   .     A
C863   H939    1.083   .     S
C864   C80     1.414   1_565 A
C864   C896    1.414   .     A
C865   H940    1.083   .     S
C865   C870    1.386   .     A
C866   C869    1.386   .     A
C866   H941    1.083   .     S
C867   C868    1.386   .     A
C867   H942    1.083   .     S
C868   H943    1.083   .     S
C869   H944    1.083   .     S
C870   H945    1.083   .     S
C871   H946    1.083   .     S
C872   H947    1.083   .     S
C873   H949    1.083   .     S
C874   H950    1.083   .     S
C876   H951    1.083   .     S
C877   C893    1.386   .     A
C877   H952    1.083   .     S
C878   H953    1.083   .     S
C878   C892    1.386   .     A
C879   H954    1.083   .     S
C879   C891    1.386   .     A
C880   H955    1.083   .     S
C880   C890    1.386   .     A
C881   C889    1.386   .     A
C881   H956    1.083   .     S
C882   H957    1.083   .     S
C882   C888    1.386   .     A
C883   C887    1.386   .     A
C883   H958    1.083   .     S
C884   H960    1.083   .     S
C884   C885    1.386   .     A
C885   H961    1.083   .     S
C887   H962    1.083   .     S
C888   H963    1.083   .     S
C889   H964    1.083   .     S
C890   H965    1.083   .     S
C891   H966    1.083   .     S
C892   H967    1.083   .     S
C893   H968    1.083   .     S
C895   C1128   1.419   .     A
C896   C37     1.419   1_565 A
O1025  Zn1080  1.949   .     S
O1025  Zn1088  1.949   .     S
O1025  Zn1077  1.949   .     S
O1026  C106    1.276   1_565 A
O1026  Zn1079  1.952   .     S
O1027  Zn1082  1.952   .     S
O1027  C1199   1.276   .     A
O1028  Zn1081  1.952   .     S
O1029  Zn1091  1.952   .     S
O1030  Zn1090  1.952   .     S
O1031  Zn1085  1.952   .     S
O1032  Zn1077  1.952   .     S
O1033  Zn1087  1.952   .     S
O1034  Zn1086  1.952   .     S
O1035  Zn1089  1.952   .     S
O1036  Zn1085  1.949   .     S
O1036  Zn1089  1.949   .     S
O1036  Zn1083  1.949   .     S
O1037  Zn1088  1.952   .     S
O1038  Zn1080  1.937   .     S
O1039  Zn1079  1.937   .     S
O1040  Zn1082  1.937   .     S
O1041  Zn1081  1.937   .     S
O1042  Zn1084  1.937   .     S
O1043  Zn1083  1.937   .     S
O1044  Zn1078  1.937   .     S
O1045  Zn1092  1.937   .     S
O1046  Zn1079  1.937   .     S
O1047  Zn1446  1.949   1_455 S
O1047  Zn1086  1.949   .     S
O1047  Zn1078  1.949   .     S
O1047  Zn1090  1.949   .     S
O1048  Zn1080  1.937   .     S
O1049  Zn1092  1.937   .     S
O1050  Zn1078  1.937   .     S
O1051  Zn1083  1.937   .     S
O1052  Zn1084  1.937   .     S
O1053  Zn1081  1.937   .     S
O1054  Zn1082  1.937   .     S
O1055  Zn1451  1.937   .     S
O1056  Zn1086  1.937   .     S
O1057  Zn361   1.937   1_565 S
O1058  Zn1456  1.949   1_455 S
O1058  Zn1081  1.949   .     S
O1058  Zn1087  1.949   .     S
O1058  Zn1091  1.949   .     S
O1059  Zn1088  1.937   .     S
O1060  Zn1091  1.937   .     S
O1061  Zn1454  1.937   .     S
O1062  Zn1085  1.937   .     S
O1063  Zn349   1.937   1_565 S
O1064  Zn1450  1.937   .     S
O1065  Zn1087  1.937   .     S
O1066  Zn1077  1.937   .     S
O1067  Zn357   1.937   1_565 S
O1068  Zn1090  1.937   .     S
O1069  Zn1084  1.952   .     S
O1069  C105    1.276   1_565 A
O1070  Zn1455  1.937   .     S
O1071  Zn360   1.937   1_565 S
O1072  Zn1089  1.937   .     S
O1073  Zn1083  1.952   .     S
O1074  Zn1078  1.952   .     S
O1075  C1200   1.276   .     A
O1075  Zn1092  1.952   .     S
O1076  Zn1080  1.952   .     S
Zn1079 O308    1.949   1_565 S
Zn1082 O1411   1.949   .     S
Zn1084 O297    1.949   1_565 S
Zn1086 O1428   1.937   1_455 S
Zn1087 O1419   1.937   1_455 S
Zn1090 O1425   1.937   1_455 S
Zn1091 O1434   1.937   1_455 S
Zn1092 O1422   1.949   .     S
C1093  C1135   1.533   .     S
C1093  C806    1.414   1_655 A
C1093  C1096   1.414   .     A
C1094  C1106   1.414   .     A
C1094  C1155   1.533   .     S
C1094  C448    1.414   1_565 S
C1095  C1239   1.414   .     A
C1095  C1182   1.404   .     A
C1095  C1130   1.419   .     S
C1096  C1183   1.404   .     A
C1096  C762    1.419   1_655 S
C1097  C1173   1.414   .     A
C1097  C1185   1.404   .     A
C1097  C1128   1.419   .     S
C1098  C1186   1.404   .     A
C1098  C1184   1.414   .     A
C1098  C1129   1.419   .     S
C1099  C1195   1.414   .     A
C1099  C402    1.419   1_565 A
C1099  C1187   1.404   .     A
C1100  C1127   1.414   .     A
C1100  C1188   1.404   .     A
C1100  C403    1.419   1_565 S
C1101  C1138   1.414   .     A
C1101  C1189   1.404   .     A
C1101  C1132   1.419   .     A
C1102  C1149   1.414   .     A
C1102  C1190   1.404   .     A
C1102  C1133   1.419   .     S
C1103  C1160   1.414   .     A
C1103  C1191   1.404   .     A
C1103  C770    1.419   1_655 A
C1104  C1250   1.414   .     A
C1104  C1131   1.419   .     A
C1104  C1192   1.404   .     A
C1105  C813    1.414   1_655 A
C1105  C1107   1.414   .     A
C1105  C1157   1.533   .     S
C1106  C1193   1.404   .     A
C1106  C404    1.419   1_565 S
C1107  C769    1.419   1_655 A
C1107  C1194   1.404   .     A
C1108  C1196   1.404   .     A
C1108  C1116   1.414   .     A
C1108  C1134   1.419   .     S
C1109  C1212   1.455   .     S
C1109  C1240   1.402   .     A
C1109  C1242   1.402   .     A
C1110  C1213   1.455   .     S
C1110  C1241   1.402   .     A
C1110  C1238   1.402   .     A
C1111  C1205   1.455   .     S
C1111  C1237   1.402   .     A
C1111  C1244   1.402   .     A
C1112  C1236   1.402   .     A
C1112  C1243   1.402   .     A
C1112  C1207   1.455   .     S
C1113  C1208   1.455   .     S
C1113  C1235   1.402   .     A
C1113  C1246   1.402   .     A
C1114  C1234   1.402   .     A
C1114  C1245   1.402   .     A
C1114  C1209   1.455   .     S
C1115  C1210   1.455   .     S
C1115  C1233   1.402   .     A
C1115  C1248   1.402   .     A
C1116  C1159   1.533   .     S
C1116  C1178   1.414   .     S
C1117  C1211   1.455   .     S
C1117  C1232   1.402   .     A
C1117  C1247   1.402   .     A
C1118  C1231   1.402   .     A
C1118  C1251   1.402   .     A
C1118  C1221   1.455   .     S
C1119  C1230   1.402   .     A
C1119  C1249   1.402   .     A
C1119  C1222   1.455   .     S
C1120  C1229   1.402   .     A
C1120  C1214   1.455   .     S
C1120  C1253   1.402   .     A
C1121  C1227   1.402   .     A
C1121  C1252   1.402   .     A
C1121  C1215   1.455   .     S
C1122  C1226   1.402   .     A
C1122  C1255   1.402   .     A
C1122  C1216   1.455   .     S
C1123  C1254   1.402   .     A
C1123  C1225   1.402   .     A
C1123  C1218   1.455   .     S
C1124  C1219   1.455   .     S
C1124  C1257   1.402   .     A
C1124  C1224   1.402   .     A
C1125  C1220   1.455   .     S
C1125  C1223   1.402   .     A
C1125  C1256   1.402   .     A
C1126  C1258   1.419   .     A
C1126  C1128   1.424   .     S
C1127  C1162   1.533   .     S
C1127  C447    1.414   1_565 S
C1129  C1130   1.424   .     A
C1131  C1132   1.424   1_556 S
C1132  C1131   1.424   1_554 S
C1133  C1134   1.424   1_556 S
C1134  C1133   1.424   1_554 S
C1135  H1338   1.109   .     S
C1135  C1136   1.529   .     S
C1135  H1337   1.109   .     S
C1136  H1333   1.110   .     S
C1136  H1336   1.110   .     S
C1136  H1335   1.109   .     S
C1137  C1139   1.529   .     S
C1137  C1173   1.533   .     S
C1137  H1343   1.109   .     S
C1137  H1342   1.109   .     S
C1138  C1176   1.414   .     A
C1138  C1164   1.533   .     S
C1139  H1339   1.109   .     S
C1139  H1341   1.110   .     S
C1139  H1340   1.110   .     S
C1140  C1184   1.533   .     S
C1140  H1349   1.109   .     S
C1140  C1141   1.529   .     S
C1140  H1348   1.109   .     S
C1141  H1347   1.110   .     S
C1141  H1344   1.109   .     S
C1141  H1346   1.110   .     S
C1142  H1354   1.109   .     S
C1142  H1353   1.109   .     S
C1142  C1143   1.529   .     S
C1142  C1195   1.533   .     S
C1143  H1352   1.110   .     S
C1143  H1350   1.110   .     S
C1143  H1351   1.109   .     S
C1144  C1145   1.529   .     S
C1144  H1360   1.109   .     S
C1144  C1206   1.533   .     S
C1144  H1359   1.109   .     S
C1145  H1357   1.109   .     S
C1145  H1355   1.110   .     S
C1145  H1358   1.110   .     S
C1146  C1217   1.533   .     S
C1146  H1364   1.109   .     S
C1146  C1147   1.529   .     S
C1146  H1365   1.109   .     S
C1147  H1361   1.109   .     S
C1147  H1362   1.110   .     S
C1147  H1363   1.110   .     S
C1148  C1228   1.533   .     S
C1148  C1150   1.529   .     S
C1148  H1371   1.109   .     S
C1148  H1370   1.109   .     S
C1149  C1166   1.533   .     S
C1149  C1177   1.414   .     S
C1150  H1368   1.110   .     S
C1150  H1369   1.110   .     S
C1150  H1366   1.109   .     S
C1151  H1376   1.109   .     S
C1151  C1239   1.533   .     S
C1151  H1375   1.109   .     S
C1151  C1152   1.529   .     S
C1152  H1373   1.109   .     S
C1152  H1374   1.110   .     S
C1152  H1372   1.110   .     S
C1153  C1250   1.533   .     S
C1153  C1154   1.529   .     S
C1153  H1382   1.109   .     S
C1153  H1381   1.109   .     S
C1154  H1380   1.110   .     S
C1154  H1379   1.110   .     S
C1154  H1377   1.109   .     S
C1155  H1387   1.109   .     S
C1155  C1156   1.529   .     S
C1155  H1386   1.109   .     S
C1156  H1383   1.110   .     S
C1156  H1385   1.110   .     S
C1156  H1384   1.109   .     S
C1157  H1266   1.109   .     S
C1157  H1265   1.109   .     S
C1157  C1158   1.529   .     S
C1158  H1388   1.110   .     S
C1158  H1263   1.109   .     S
C1158  H1264   1.110   .     S
C1159  H1270   1.109   .     S
C1159  H1271   1.109   .     S
C1159  C1161   1.529   .     S
C1160  C814    1.414   1_655 A
C1160  C1168   1.533   .     S
C1161  H1267   1.109   .     S
C1161  H1269   1.110   .     S
C1161  H1268   1.110   .     S
C1162  H1277   1.109   .     S
C1162  H1276   1.109   .     S
C1162  C1163   1.529   .     S
C1163  H1275   1.110   .     S
C1163  H1272   1.109   .     S
C1163  H1274   1.110   .     S
C1164  C1165   1.529   .     S
C1164  H1282   1.109   .     S
C1164  H1281   1.109   .     S
C1165  H1278   1.110   .     S
C1165  H1280   1.110   .     S
C1165  H1279   1.109   .     S
C1166  H1288   1.109   .     S
C1166  H1287   1.109   .     S
C1166  C1167   1.529   .     S
C1167  H1283   1.110   .     S
C1167  H1286   1.110   .     S
C1167  H1285   1.109   .     S
C1168  H1293   1.109   .     S
C1168  C1169   1.529   .     S
C1168  H1292   1.109   .     S
C1169  H1290   1.110   .     S
C1169  H1289   1.109   .     S
C1169  H1291   1.110   .     S
C1170  C1199   1.455   .     S
C1170  C1206   1.414   .     S
C1171  C1200   1.455   .     S
C1171  C1173   1.414   .     S
C1172  C1197   1.455   .     S
C1172  C1184   1.414   .     S
C1174  C1198   1.455   .     S
C1174  C1239   1.414   .     S
C1175  C1250   1.414   .     A
C1175  C1203   1.455   .     S
C1176  C1204   1.455   .     S
C1177  C1201   1.454   .     S
C1178  C1202   1.455   .     S
C1179  H1261   1.079   .     S
C1179  C1185   1.380   .     A
C1179  C1258   1.404   .     A
C1180  C1183   1.380   .     A
C1180  C1259   1.404   .     A
C1180  H1301   1.079   .     S
C1181  C1187   1.380   .     A
C1181  C1260   1.404   .     A
C1181  H1312   1.079   .     S
C1182  C1186   1.380   .     A
C1182  H1323   1.079   .     S
C1183  H1334   1.079   .     S
C1185  H1345   1.079   .     S
C1186  H1356   1.079   .     S
C1187  H1367   1.079   .     S
C1188  H1378   1.079   .     S
C1188  C1193   1.380   1_556 S
C1189  H1262   1.079   .     S
C1189  C1192   1.380   1_554 S
C1190  H1273   1.079   .     S
C1190  C1196   1.380   1_556 S
C1191  H1284   1.079   .     S
C1191  C1194   1.380   1_554 S
C1192  H1294   1.079   .     S
C1192  C1189   1.380   1_556 S
C1193  H1295   1.079   .     S
C1193  C1188   1.380   1_554 S
C1194  H1296   1.079   .     S
C1194  C1191   1.380   1_556 S
C1195  C446    1.414   1_565 A
C1196  H1297   1.079   .     S
C1196  C1190   1.380   1_554 S
C1197  O1440   1.276   .     S
C1198  O1437   1.276   .     S
C1199  O1438   1.276   .     S
C1200  O1392   1.276   .     S
C1201  O1393   1.276   .     S
C1201  O1397   1.276   .     S
C1202  O1394   1.276   .     S
C1202  O1398   1.276   .     S
C1203  O1395   1.276   .     S
C1203  O1399   1.276   .     S
C1204  O1396   1.276   .     A
C1204  O1401   1.276   .     A
C1205  O1402   1.282   .     A
C1205  O1430   1.282   .     A
C1206  C1258   1.414   .     A
C1207  O1403   1.282   .     A
C1207  O1431   1.282   .     A
C1208  O1404   1.282   .     A
C1208  O1428   1.282   .     A
C1209  O1429   1.282   .     A
C1209  O1405   1.282   .     A
C1210  O1406   1.282   .     A
C1210  O1435   1.282   .     A
C1211  O1436   1.282   .     A
C1211  O1407   1.282   .     A
C1212  O1408   1.282   .     A
C1212  O1432   1.282   .     A
C1213  O1409   1.282   .     A
C1213  O1434   1.282   .     A
C1214  O1421   1.282   .     A
C1214  O1410   1.282   .     A
C1215  O1423   1.282   .     A
C1215  O1412   1.282   .     A
C1216  O1413   1.282   .     A
C1216  O1419   1.282   .     A
C1217  C807    1.414   1_655 A
C1217  C1259   1.414   .     A
C1218  O1414   1.282   .     A
C1218  O1420   1.282   .     A
C1219  O1415   1.282   .     A
C1219  O1426   1.282   .     A
C1220  O1427   1.282   .     A
C1220  O1416   1.282   .     A
C1221  O1424   1.282   .     A
C1221  O1417   1.282   .     A
C1222  O1425   1.282   .     A
C1222  O1418   1.282   .     A
C1223  C1240   1.386   .     A
C1223  H1298   1.083   .     S
C1224  H1299   1.083   .     S
C1224  C1238   1.386   .     A
C1225  C1237   1.386   .     A
C1225  H1300   1.083   .     S
C1226  H1302   1.083   .     S
C1226  C1236   1.386   .     A
C1227  C1235   1.386   .     A
C1227  H1303   1.083   .     S
C1228  C444    1.414   1_565 A
C1228  C1260   1.414   .     A
C1229  H1304   1.083   .     S
C1229  C1234   1.386   .     A
C1230  C1233   1.386   .     A
C1230  H1305   1.083   .     S
C1231  C1232   1.386   .     A
C1231  H1306   1.083   .     S
C1232  H1307   1.083   .     S
C1233  H1308   1.083   .     S
C1234  H1309   1.083   .     S
C1235  H1310   1.083   .     S
C1236  H1311   1.083   .     S
C1237  H1313   1.083   .     S
C1238  H1314   1.083   .     S
C1240  H1315   1.083   .     S
C1241  C1257   1.386   .     A
C1241  H1316   1.083   .     S
C1242  H1317   1.083   .     S
C1242  C1256   1.386   .     A
C1243  H1318   1.083   .     S
C1243  C1255   1.386   .     A
C1244  H1319   1.083   .     S
C1244  C1254   1.386   .     A
C1245  C1253   1.386   .     A
C1245  H1320   1.083   .     S
C1246  H1321   1.083   .     S
C1246  C1252   1.386   .     A
C1247  C1251   1.386   .     A
C1247  H1322   1.083   .     S
C1248  H1324   1.083   .     S
C1248  C1249   1.386   .     A
C1249  H1325   1.083   .     S
C1251  H1326   1.083   .     S
C1252  H1327   1.083   .     S
C1253  H1328   1.083   .     S
C1254  H1329   1.083   .     S
C1255  H1330   1.083   .     S
C1256  H1331   1.083   .     S
C1257  H1332   1.083   .     S
C1259  C764    1.419   1_655 A
C1260  C401    1.419   1_565 A
O1389  Zn1444  1.949   .     S
O1389  Zn1452  1.949   .     S
O1389  Zn1441  1.949   .     S
O1390  C470    1.276   1_565 A
O1390  Zn1443  1.952   .     S
O1391  Zn1446  1.952   .     S
O1391  C835    1.276   1_655 A
O1392  Zn1445  1.952   .     S
O1393  Zn1455  1.952   .     S
O1394  Zn1454  1.952   .     S
O1395  Zn1449  1.952   .     S
O1396  Zn1441  1.952   .     S
O1397  Zn1451  1.952   .     S
O1398  Zn1450  1.952   .     S
O1399  Zn1453  1.952   .     S
O1400  Zn1449  1.949   .     S
O1400  Zn1453  1.949   .     S
O1400  Zn1447  1.949   .     S
O1401  Zn1452  1.952   .     S
O1402  Zn1444  1.937   .     S
O1403  Zn1443  1.937   .     S
O1404  Zn1446  1.937   .     S
O1405  Zn1445  1.937   .     S
O1406  Zn1448  1.937   .     S
O1407  Zn1447  1.937   .     S
O1408  Zn1442  1.937   .     S
O1409  Zn1456  1.937   .     S
O1410  Zn1443  1.937   .     S
O1411  Zn1450  1.949   .     S
O1411  Zn1442  1.949   .     S
O1411  Zn1454  1.949   .     S
O1412  Zn1444  1.937   .     S
O1413  Zn1456  1.937   .     S
O1414  Zn1442  1.937   .     S
O1415  Zn1447  1.937   .     S
O1416  Zn1448  1.937   .     S
O1417  Zn1445  1.937   .     S
O1418  Zn1446  1.937   .     S
O1419  Zn1087  1.937   1_655 S
O1420  Zn1450  1.937   .     S
O1421  Zn725   1.937   1_565 S
O1422  Zn1445  1.949   .     S
O1422  Zn1451  1.949   .     S
O1422  Zn1455  1.949   .     S
O1423  Zn1452  1.937   .     S
O1424  Zn1455  1.937   .     S
O1425  Zn1090  1.937   1_655 S
O1426  Zn1449  1.937   .     S
O1427  Zn713   1.937   1_565 S
O1428  Zn1086  1.937   1_655 S
O1429  Zn1451  1.937   .     S
O1430  Zn1441  1.937   .     S
O1431  Zn721   1.937   1_565 S
O1432  Zn1454  1.937   .     S
O1433  Zn1448  1.952   .     S
O1433  C469    1.276   1_565 A
O1434  Zn1091  1.937   1_655 S
O1435  Zn724   1.937   1_565 S
O1436  Zn1453  1.937   .     S
O1437  Zn1447  1.952   .     S
O1438  Zn1442  1.952   .     S
O1439  C836    1.276   1_655 A
O1439  Zn1456  1.952   .     S
O1440  Zn1444  1.952   .     S
Zn1443 O672    1.949   1_565 S
Zn1446 O1047   1.949   1_655 S
Zn1448 O661    1.949   1_565 S
Zn1456 O1058   1.949   1_655 S
