data_str_m2_o1_o16_pcu_sym.186
_audit_creation_date              2020-01-03
_audit_creation_method            'Materials Studio'
_symmetry_space_group_name_H-M    'P1'
_symmetry_Int_Tables_number       1
_symmetry_cell_setting            triclinic
loop_
_symmetry_equiv_pos_as_xyz
  x,y,z
_cell_length_a                    28.6348
_cell_length_b                    32.3675
_cell_length_c                    27.0963
_cell_angle_alpha                 91.4996
_cell_angle_beta                  73.3062
_cell_angle_gamma                 91.0002
loop_
_atom_site_label
_atom_site_type_symbol
_atom_site_fract_x
_atom_site_fract_y
_atom_site_fract_z
_atom_site_U_iso_or_equiv
_atom_site_adp_type
_atom_site_occupancy
C1     C     0.16747   0.24579   0.24831   0.00000  Uiso   1.00
C2     C     0.15362   0.17414   0.48431   0.00000  Uiso   1.00
C3     C     0.16019   0.15756   0.43393   0.00000  Uiso   1.00
C4     C     0.18671   0.16307   0.01163   0.00000  Uiso   1.00
C5     C     0.23283   0.14801   0.48470   0.00000  Uiso   1.00
C6     C     0.23941   0.13135   0.43509   0.00000  Uiso   1.00
C7     C     0.20094   0.13146   0.41248   0.00000  Uiso   1.00
C8     C     0.17220   0.15956   0.06532   0.00000  Uiso   1.00
C9     C     0.25828   0.15803   0.06267   0.00000  Uiso   1.00
C10    C     0.12614   0.16785   0.40687   0.00000  Uiso   1.00
C11    C     0.18779   0.31274   0.27946   0.00000  Uiso   1.00
C12    C     0.14068   0.16550   0.34990   0.00000  Uiso   1.00
C13    C     0.18720   0.02202   0.28012   0.00000  Uiso   1.00
C14    C     0.16699   0.04264   0.24672   0.00000  Uiso   1.00
C15    C     0.14904   0.02081   0.21033   0.00000  Uiso   1.00
C16    C     0.15127   0.31049   0.20806   0.00000  Uiso   1.00
C17    C     0.16907   0.29029   0.24466   0.00000  Uiso   1.00
C18    C     0.30239   0.19725   0.27520   0.00000  Uiso   1.00
C19    C     0.01860   0.19722   0.27525   0.00000  Uiso   1.00
C20    C     0.02970   0.13562   0.22540   0.00000  Uiso   1.00
C21    C     0.31386   0.13590   0.22577   0.00000  Uiso   1.00
C22    C     0.16664   0.08739   0.24901   0.00000  Uiso   1.00
C23    C     0.19276   0.16532   0.14973   0.00000  Uiso   1.00
C24    C     0.26924   0.14564   0.00991   0.00000  Uiso   1.00
C25    C     0.20817   0.16161   0.09216   0.00000  Uiso   1.00
C26    C     0.08308   0.18942   0.43334   0.00000  Uiso   1.00
C27    C     0.07929   0.20774   0.48117   0.00000  Uiso   1.00
C28    C     0.11507   0.20195   0.00609   0.00000  Uiso   1.00
Cu29   Cu    0.11978   0.16666   0.25000   0.00000  Uiso   1.00
Cu30   Cu    0.21355   0.16667   0.25000   0.00000  Uiso   1.00
H31    H     0.20158   0.03896   0.30758   0.00000  Uiso   1.00
H32    H     0.27880   0.22175   0.29550   0.00000  Uiso   1.00
H33    H     0.03211   0.22164   0.29566   0.00000  Uiso   1.00
H34    H     0.29979   0.11144   0.20589   0.00000  Uiso   1.00
H35    H     0.27254   0.11490   0.41587   0.00000  Uiso   1.00
H36    H     0.04828   0.22723   0.49875   0.00000  Uiso   1.00
H37    H     0.20206   0.29717   0.30691   0.00000  Uiso   1.00
N38    N     0.04931   0.16666   0.24998   0.00000  Uiso   1.00
N39    N     0.28402   0.16669   0.24999   0.00000  Uiso   1.00
O40    O     0.12708   0.22678   0.25000   0.00000  Uiso   1.00
O41    O     0.20627   0.22679   0.25000   0.00000  Uiso   1.00
O42    O     0.10775   0.16665   0.32549   0.00000  Uiso   1.00
O43    O     0.18694   0.16666   0.32549   0.00000  Uiso   1.00
O44    O     0.12706   0.10654   0.24999   0.00000  Uiso   1.00
O45    O     0.20625   0.10655   0.24999   0.00000  Uiso   1.00
O46    O     0.14640   0.16667   0.17451   0.00000  Uiso   1.00
O47    O     0.22559   0.16668   0.17451   0.00000  Uiso   1.00
C48    C     0.29963   0.16644   0.08617   0.00000  Uiso   1.00
H49    H     0.29396   0.19641   0.10780   0.00000  Uiso   1.00
H50    H     0.30228   0.14092   0.11178   0.00000  Uiso   1.00
H51    H     0.00203   0.16974   0.05675   0.00000  Uiso   1.00
O52    O     0.13275   0.04320   0.17590   0.00000  Uiso   1.00
H53    H     0.11177   0.02562   0.16057   0.00000  Uiso   1.00
C54    C     0.13815   0.28651   0.16495   0.00000  Uiso   1.00
H55    H     0.09804   0.28660   0.17162   0.00000  Uiso   1.00
H56    H     0.15640   0.30076   0.12736   0.00000  Uiso   1.00
H57    H     0.15055   0.25406   0.16092   0.00000  Uiso   1.00
O58    O     0.05632   0.10298   0.19975   0.00000  Uiso   1.00
H59    H     0.09013   0.11241   0.18835   0.00000  Uiso   1.00
O60    O     0.31456   0.13105   0.48241   0.00000  Uiso   1.00
H61    H     0.32931   0.11727   0.00643   0.00000  Uiso   1.00
C62    C     0.12168   0.14172   0.08967   0.00000  Uiso   1.00
H63    H     0.12603   0.11234   0.10773   0.00000  Uiso   1.00
H64    H     0.09797   0.16391   0.11713   0.00000  Uiso   1.00
H65    H     0.10221   0.13253   0.06104   0.00000  Uiso   1.00
O66    O     0.04584   0.19642   0.41195   0.00000  Uiso   1.00
H67    H     0.03870   0.16980   0.39658   0.00000  Uiso   1.00
O68    O     0.11381   0.22396   0.05091   0.00000  Uiso   1.00
H69    H     0.08458   0.24175   0.06078   0.00000  Uiso   1.00
O70    O     0.20136   0.10462   0.37184   0.00000  Uiso   1.00
H71    H     0.23227   0.08897   0.36203   0.00000  Uiso   1.00
C72    C     0.50080   0.24579   0.24831   0.00000  Uiso   1.00
C73    C     0.48696   0.17414   0.48431   0.00000  Uiso   1.00
C74    C     0.49352   0.15756   0.43393   0.00000  Uiso   1.00
C75    C     0.52004   0.16307   0.01163   0.00000  Uiso   1.00
C76    C     0.56616   0.14801   0.48470   0.00000  Uiso   1.00
C77    C     0.57275   0.13135   0.43509   0.00000  Uiso   1.00
C78    C     0.53427   0.13146   0.41248   0.00000  Uiso   1.00
C79    C     0.50553   0.15956   0.06532   0.00000  Uiso   1.00
C80    C     0.59161   0.15803   0.06267   0.00000  Uiso   1.00
C81    C     0.45947   0.16785   0.40687   0.00000  Uiso   1.00
C82    C     0.52112   0.31274   0.27946   0.00000  Uiso   1.00
C83    C     0.47401   0.16550   0.34990   0.00000  Uiso   1.00
C84    C     0.52054   0.02202   0.28012   0.00000  Uiso   1.00
C85    C     0.50033   0.04264   0.24672   0.00000  Uiso   1.00
C86    C     0.48237   0.02081   0.21033   0.00000  Uiso   1.00
C87    C     0.48460   0.31049   0.20806   0.00000  Uiso   1.00
C88    C     0.50240   0.29029   0.24466   0.00000  Uiso   1.00
C89    C     0.63572   0.19725   0.27520   0.00000  Uiso   1.00
C90    C     0.35194   0.19722   0.27525   0.00000  Uiso   1.00
C91    C     0.36303   0.13562   0.22540   0.00000  Uiso   1.00
C92    C     0.64720   0.13590   0.22577   0.00000  Uiso   1.00
C93    C     0.49997   0.08739   0.24901   0.00000  Uiso   1.00
C94    C     0.52610   0.16532   0.14973   0.00000  Uiso   1.00
C95    C     0.60258   0.14564   0.00991   0.00000  Uiso   1.00
C96    C     0.54150   0.16161   0.09216   0.00000  Uiso   1.00
C97    C     0.41642   0.18942   0.43334   0.00000  Uiso   1.00
C98    C     0.41262   0.20774   0.48117   0.00000  Uiso   1.00
C99    C     0.44840   0.20195   0.00609   0.00000  Uiso   1.00
Cu100  Cu    0.45311   0.16666   0.25000   0.00000  Uiso   1.00
Cu101  Cu    0.54689   0.16667   0.25000   0.00000  Uiso   1.00
H102   H     0.53491   0.03896   0.30758   0.00000  Uiso   1.00
H103   H     0.61213   0.22175   0.29550   0.00000  Uiso   1.00
H104   H     0.36544   0.22164   0.29566   0.00000  Uiso   1.00
H105   H     0.63312   0.11144   0.20589   0.00000  Uiso   1.00
H106   H     0.60587   0.11490   0.41587   0.00000  Uiso   1.00
H107   H     0.38161   0.22723   0.49875   0.00000  Uiso   1.00
H108   H     0.53539   0.29717   0.30691   0.00000  Uiso   1.00
N109   N     0.38265   0.16666   0.24998   0.00000  Uiso   1.00
N110   N     0.61735   0.16669   0.24999   0.00000  Uiso   1.00
O111   O     0.46042   0.22678   0.25000   0.00000  Uiso   1.00
O112   O     0.53961   0.22679   0.25000   0.00000  Uiso   1.00
O113   O     0.44108   0.16665   0.32549   0.00000  Uiso   1.00
O114   O     0.52027   0.16666   0.32549   0.00000  Uiso   1.00
O115   O     0.46039   0.10654   0.24999   0.00000  Uiso   1.00
O116   O     0.53958   0.10655   0.24999   0.00000  Uiso   1.00
O117   O     0.47973   0.16667   0.17451   0.00000  Uiso   1.00
O118   O     0.55892   0.16668   0.17451   0.00000  Uiso   1.00
C119   C     0.63296   0.16644   0.08617   0.00000  Uiso   1.00
H120   H     0.62729   0.19641   0.10780   0.00000  Uiso   1.00
H121   H     0.63561   0.14092   0.11178   0.00000  Uiso   1.00
H122   H     0.33536   0.16974   0.05675   0.00000  Uiso   1.00
O123   O     0.46609   0.04320   0.17590   0.00000  Uiso   1.00
H124   H     0.44510   0.02562   0.16057   0.00000  Uiso   1.00
C125   C     0.47148   0.28651   0.16495   0.00000  Uiso   1.00
H126   H     0.43137   0.28660   0.17162   0.00000  Uiso   1.00
H127   H     0.48973   0.30076   0.12736   0.00000  Uiso   1.00
H128   H     0.48388   0.25406   0.16092   0.00000  Uiso   1.00
O129   O     0.38965   0.10298   0.19975   0.00000  Uiso   1.00
H130   H     0.42347   0.11241   0.18835   0.00000  Uiso   1.00
O131   O     0.64789   0.13105   0.48241   0.00000  Uiso   1.00
H132   H     0.66265   0.11727   0.00643   0.00000  Uiso   1.00
C133   C     0.45501   0.14172   0.08967   0.00000  Uiso   1.00
H134   H     0.45936   0.11234   0.10773   0.00000  Uiso   1.00
H135   H     0.43131   0.16391   0.11713   0.00000  Uiso   1.00
H136   H     0.43554   0.13253   0.06104   0.00000  Uiso   1.00
O137   O     0.37918   0.19642   0.41195   0.00000  Uiso   1.00
H138   H     0.37203   0.16980   0.39658   0.00000  Uiso   1.00
O139   O     0.44714   0.22396   0.05091   0.00000  Uiso   1.00
H140   H     0.41792   0.24175   0.06078   0.00000  Uiso   1.00
O141   O     0.53470   0.10462   0.37184   0.00000  Uiso   1.00
H142   H     0.56560   0.08897   0.36203   0.00000  Uiso   1.00
C143   C     0.83413   0.24579   0.24831   0.00000  Uiso   1.00
C144   C     0.82029   0.17414   0.48431   0.00000  Uiso   1.00
C145   C     0.82685   0.15756   0.43393   0.00000  Uiso   1.00
C146   C     0.85337   0.16307   0.01163   0.00000  Uiso   1.00
C147   C     0.89949   0.14801   0.48470   0.00000  Uiso   1.00
C148   C     0.90608   0.13135   0.43509   0.00000  Uiso   1.00
C149   C     0.86760   0.13146   0.41248   0.00000  Uiso   1.00
C150   C     0.83886   0.15956   0.06532   0.00000  Uiso   1.00
C151   C     0.92494   0.15803   0.06267   0.00000  Uiso   1.00
C152   C     0.79281   0.16785   0.40687   0.00000  Uiso   1.00
C153   C     0.85446   0.31274   0.27946   0.00000  Uiso   1.00
C154   C     0.80734   0.16550   0.34990   0.00000  Uiso   1.00
C155   C     0.85387   0.02202   0.28012   0.00000  Uiso   1.00
C156   C     0.83366   0.04264   0.24672   0.00000  Uiso   1.00
C157   C     0.81571   0.02081   0.21033   0.00000  Uiso   1.00
C158   C     0.81793   0.31049   0.20806   0.00000  Uiso   1.00
C159   C     0.83574   0.29029   0.24466   0.00000  Uiso   1.00
C160   C     0.96905   0.19725   0.27520   0.00000  Uiso   1.00
C161   C     0.68527   0.19722   0.27525   0.00000  Uiso   1.00
C162   C     0.69636   0.13562   0.22540   0.00000  Uiso   1.00
C163   C     0.98053   0.13590   0.22577   0.00000  Uiso   1.00
C164   C     0.83331   0.08739   0.24901   0.00000  Uiso   1.00
C165   C     0.85943   0.16532   0.14973   0.00000  Uiso   1.00
C166   C     0.93591   0.14564   0.00991   0.00000  Uiso   1.00
C167   C     0.87484   0.16161   0.09216   0.00000  Uiso   1.00
C168   C     0.74975   0.18942   0.43334   0.00000  Uiso   1.00
C169   C     0.74595   0.20774   0.48117   0.00000  Uiso   1.00
C170   C     0.78173   0.20195   0.00609   0.00000  Uiso   1.00
Cu171  Cu    0.78645   0.16666   0.25000   0.00000  Uiso   1.00
Cu172  Cu    0.88022   0.16667   0.25000   0.00000  Uiso   1.00
H173   H     0.86824   0.03896   0.30758   0.00000  Uiso   1.00
H174   H     0.94547   0.22175   0.29550   0.00000  Uiso   1.00
H175   H     0.69877   0.22164   0.29566   0.00000  Uiso   1.00
H176   H     0.96646   0.11144   0.20589   0.00000  Uiso   1.00
H177   H     0.93921   0.11490   0.41587   0.00000  Uiso   1.00
H178   H     0.71494   0.22723   0.49875   0.00000  Uiso   1.00
H179   H     0.86872   0.29717   0.30691   0.00000  Uiso   1.00
N180   N     0.71598   0.16666   0.24998   0.00000  Uiso   1.00
N181   N     0.95069   0.16669   0.24999   0.00000  Uiso   1.00
O182   O     0.79375   0.22678   0.25000   0.00000  Uiso   1.00
O183   O     0.87294   0.22679   0.25000   0.00000  Uiso   1.00
O184   O     0.77441   0.16665   0.32549   0.00000  Uiso   1.00
O185   O     0.85360   0.16666   0.32549   0.00000  Uiso   1.00
O186   O     0.79373   0.10654   0.24999   0.00000  Uiso   1.00
O187   O     0.87292   0.10655   0.24999   0.00000  Uiso   1.00
O188   O     0.81306   0.16667   0.17451   0.00000  Uiso   1.00
O189   O     0.89225   0.16668   0.17451   0.00000  Uiso   1.00
C190   C     0.96630   0.16644   0.08617   0.00000  Uiso   1.00
H191   H     0.96063   0.19641   0.10780   0.00000  Uiso   1.00
H192   H     0.96894   0.14092   0.11178   0.00000  Uiso   1.00
H193   H     0.66869   0.16974   0.05675   0.00000  Uiso   1.00
O194   O     0.79942   0.04320   0.17590   0.00000  Uiso   1.00
H195   H     0.77843   0.02562   0.16057   0.00000  Uiso   1.00
C196   C     0.80481   0.28651   0.16495   0.00000  Uiso   1.00
H197   H     0.76470   0.28660   0.17162   0.00000  Uiso   1.00
H198   H     0.82306   0.30076   0.12736   0.00000  Uiso   1.00
H199   H     0.81721   0.25406   0.16092   0.00000  Uiso   1.00
O200   O     0.72299   0.10298   0.19975   0.00000  Uiso   1.00
H201   H     0.75680   0.11241   0.18835   0.00000  Uiso   1.00
O202   O     0.98122   0.13105   0.48241   0.00000  Uiso   1.00
H203   H     0.99598   0.11727   0.00643   0.00000  Uiso   1.00
C204   C     0.78834   0.14172   0.08967   0.00000  Uiso   1.00
H205   H     0.79270   0.11234   0.10773   0.00000  Uiso   1.00
H206   H     0.76464   0.16391   0.11713   0.00000  Uiso   1.00
H207   H     0.76888   0.13253   0.06104   0.00000  Uiso   1.00
O208   O     0.71251   0.19642   0.41195   0.00000  Uiso   1.00
H209   H     0.70537   0.16980   0.39658   0.00000  Uiso   1.00
O210   O     0.78047   0.22396   0.05091   0.00000  Uiso   1.00
H211   H     0.75125   0.24175   0.06078   0.00000  Uiso   1.00
O212   O     0.86803   0.10462   0.37184   0.00000  Uiso   1.00
H213   H     0.89893   0.08897   0.36203   0.00000  Uiso   1.00
C214   C     0.16747   0.57913   0.24831   0.00000  Uiso   1.00
C215   C     0.15362   0.50747   0.48431   0.00000  Uiso   1.00
C216   C     0.16019   0.49089   0.43393   0.00000  Uiso   1.00
C217   C     0.18671   0.49640   0.01163   0.00000  Uiso   1.00
C218   C     0.23283   0.48134   0.48470   0.00000  Uiso   1.00
C219   C     0.23941   0.46469   0.43509   0.00000  Uiso   1.00
C220   C     0.20094   0.46479   0.41248   0.00000  Uiso   1.00
C221   C     0.17220   0.49290   0.06532   0.00000  Uiso   1.00
C222   C     0.25828   0.49137   0.06267   0.00000  Uiso   1.00
C223   C     0.12614   0.50119   0.40687   0.00000  Uiso   1.00
C224   C     0.18779   0.64608   0.27946   0.00000  Uiso   1.00
C225   C     0.14068   0.49883   0.34990   0.00000  Uiso   1.00
C226   C     0.18720   0.35535   0.28012   0.00000  Uiso   1.00
C227   C     0.16699   0.37597   0.24672   0.00000  Uiso   1.00
C228   C     0.14904   0.35414   0.21033   0.00000  Uiso   1.00
C229   C     0.15127   0.64382   0.20806   0.00000  Uiso   1.00
C230   C     0.16907   0.62362   0.24466   0.00000  Uiso   1.00
C231   C     0.30239   0.53059   0.27520   0.00000  Uiso   1.00
C232   C     0.01860   0.53055   0.27525   0.00000  Uiso   1.00
C233   C     0.02970   0.46896   0.22540   0.00000  Uiso   1.00
C234   C     0.31386   0.46923   0.22577   0.00000  Uiso   1.00
C235   C     0.16664   0.42072   0.24901   0.00000  Uiso   1.00
C236   C     0.19276   0.49866   0.14973   0.00000  Uiso   1.00
C237   C     0.26924   0.47897   0.00991   0.00000  Uiso   1.00
C238   C     0.20817   0.49494   0.09216   0.00000  Uiso   1.00
C239   C     0.08308   0.52276   0.43334   0.00000  Uiso   1.00
C240   C     0.07929   0.54108   0.48117   0.00000  Uiso   1.00
C241   C     0.11507   0.53529   0.00609   0.00000  Uiso   1.00
Cu242  Cu    0.11978   0.49999   0.25000   0.00000  Uiso   1.00
Cu243  Cu    0.21355   0.50001   0.25000   0.00000  Uiso   1.00
H244   H     0.20158   0.37229   0.30758   0.00000  Uiso   1.00
H245   H     0.27880   0.55508   0.29550   0.00000  Uiso   1.00
H246   H     0.03211   0.55497   0.29566   0.00000  Uiso   1.00
H247   H     0.29979   0.44477   0.20589   0.00000  Uiso   1.00
H248   H     0.27254   0.44823   0.41587   0.00000  Uiso   1.00
H249   H     0.04828   0.56056   0.49875   0.00000  Uiso   1.00
H250   H     0.20206   0.63051   0.30691   0.00000  Uiso   1.00
N251   N     0.04931   0.49999   0.24998   0.00000  Uiso   1.00
N252   N     0.28402   0.50002   0.24999   0.00000  Uiso   1.00
O253   O     0.12708   0.56011   0.25000   0.00000  Uiso   1.00
O254   O     0.20627   0.56012   0.25000   0.00000  Uiso   1.00
O255   O     0.10775   0.49998   0.32549   0.00000  Uiso   1.00
O256   O     0.18694   0.49999   0.32549   0.00000  Uiso   1.00
O257   O     0.12706   0.43988   0.24999   0.00000  Uiso   1.00
O258   O     0.20625   0.43989   0.24999   0.00000  Uiso   1.00
O259   O     0.14640   0.50001   0.17451   0.00000  Uiso   1.00
O260   O     0.22559   0.50002   0.17451   0.00000  Uiso   1.00
C261   C     0.29963   0.49977   0.08617   0.00000  Uiso   1.00
H262   H     0.29396   0.52975   0.10780   0.00000  Uiso   1.00
H263   H     0.30228   0.47425   0.11178   0.00000  Uiso   1.00
H264   H     0.00203   0.50307   0.05675   0.00000  Uiso   1.00
O265   O     0.13275   0.37653   0.17590   0.00000  Uiso   1.00
H266   H     0.11177   0.35895   0.16057   0.00000  Uiso   1.00
C267   C     0.13815   0.61985   0.16495   0.00000  Uiso   1.00
H268   H     0.09804   0.61993   0.17162   0.00000  Uiso   1.00
H269   H     0.15640   0.63409   0.12736   0.00000  Uiso   1.00
H270   H     0.15055   0.58740   0.16092   0.00000  Uiso   1.00
O271   O     0.05632   0.43631   0.19975   0.00000  Uiso   1.00
H272   H     0.09013   0.44574   0.18835   0.00000  Uiso   1.00
O273   O     0.31456   0.46439   0.48241   0.00000  Uiso   1.00
H274   H     0.32931   0.45060   0.00643   0.00000  Uiso   1.00
C275   C     0.12168   0.47505   0.08967   0.00000  Uiso   1.00
H276   H     0.12603   0.44568   0.10773   0.00000  Uiso   1.00
H277   H     0.09797   0.49725   0.11713   0.00000  Uiso   1.00
H278   H     0.10221   0.46586   0.06104   0.00000  Uiso   1.00
O279   O     0.04584   0.52975   0.41195   0.00000  Uiso   1.00
H280   H     0.03870   0.50313   0.39658   0.00000  Uiso   1.00
O281   O     0.11381   0.55729   0.05091   0.00000  Uiso   1.00
H282   H     0.08458   0.57508   0.06078   0.00000  Uiso   1.00
O283   O     0.20136   0.43795   0.37184   0.00000  Uiso   1.00
H284   H     0.23227   0.42230   0.36203   0.00000  Uiso   1.00
C285   C     0.50080   0.57913   0.24831   0.00000  Uiso   1.00
C286   C     0.48696   0.50747   0.48431   0.00000  Uiso   1.00
C287   C     0.49352   0.49089   0.43393   0.00000  Uiso   1.00
C288   C     0.52004   0.49640   0.01163   0.00000  Uiso   1.00
C289   C     0.56616   0.48134   0.48470   0.00000  Uiso   1.00
C290   C     0.57275   0.46469   0.43509   0.00000  Uiso   1.00
C291   C     0.53427   0.46479   0.41248   0.00000  Uiso   1.00
C292   C     0.50553   0.49290   0.06532   0.00000  Uiso   1.00
C293   C     0.59161   0.49137   0.06267   0.00000  Uiso   1.00
C294   C     0.45947   0.50119   0.40687   0.00000  Uiso   1.00
C295   C     0.52112   0.64608   0.27946   0.00000  Uiso   1.00
C296   C     0.47401   0.49883   0.34990   0.00000  Uiso   1.00
C297   C     0.52054   0.35535   0.28012   0.00000  Uiso   1.00
C298   C     0.50033   0.37597   0.24672   0.00000  Uiso   1.00
C299   C     0.48237   0.35414   0.21033   0.00000  Uiso   1.00
C300   C     0.48460   0.64382   0.20806   0.00000  Uiso   1.00
C301   C     0.50240   0.62362   0.24466   0.00000  Uiso   1.00
C302   C     0.63572   0.53059   0.27520   0.00000  Uiso   1.00
C303   C     0.35194   0.53055   0.27525   0.00000  Uiso   1.00
C304   C     0.36303   0.46896   0.22540   0.00000  Uiso   1.00
C305   C     0.64720   0.46923   0.22577   0.00000  Uiso   1.00
C306   C     0.49997   0.42072   0.24901   0.00000  Uiso   1.00
C307   C     0.52610   0.49866   0.14973   0.00000  Uiso   1.00
C308   C     0.60258   0.47897   0.00991   0.00000  Uiso   1.00
C309   C     0.54150   0.49494   0.09216   0.00000  Uiso   1.00
C310   C     0.41642   0.52276   0.43334   0.00000  Uiso   1.00
C311   C     0.41262   0.54108   0.48117   0.00000  Uiso   1.00
C312   C     0.44840   0.53529   0.00609   0.00000  Uiso   1.00
Cu313  Cu    0.45311   0.49999   0.25000   0.00000  Uiso   1.00
Cu314  Cu    0.54689   0.50001   0.25000   0.00000  Uiso   1.00
H315   H     0.53491   0.37229   0.30758   0.00000  Uiso   1.00
H316   H     0.61213   0.55508   0.29550   0.00000  Uiso   1.00
H317   H     0.36544   0.55497   0.29566   0.00000  Uiso   1.00
H318   H     0.63312   0.44477   0.20589   0.00000  Uiso   1.00
H319   H     0.60587   0.44823   0.41587   0.00000  Uiso   1.00
H320   H     0.38161   0.56056   0.49875   0.00000  Uiso   1.00
H321   H     0.53539   0.63051   0.30691   0.00000  Uiso   1.00
N322   N     0.38265   0.49999   0.24998   0.00000  Uiso   1.00
N323   N     0.61735   0.50002   0.24999   0.00000  Uiso   1.00
O324   O     0.46042   0.56011   0.25000   0.00000  Uiso   1.00
O325   O     0.53961   0.56012   0.25000   0.00000  Uiso   1.00
O326   O     0.44108   0.49998   0.32549   0.00000  Uiso   1.00
O327   O     0.52027   0.49999   0.32549   0.00000  Uiso   1.00
O328   O     0.46039   0.43988   0.24999   0.00000  Uiso   1.00
O329   O     0.53958   0.43989   0.24999   0.00000  Uiso   1.00
O330   O     0.47973   0.50001   0.17451   0.00000  Uiso   1.00
O331   O     0.55892   0.50002   0.17451   0.00000  Uiso   1.00
C332   C     0.63296   0.49977   0.08617   0.00000  Uiso   1.00
H333   H     0.62729   0.52975   0.10780   0.00000  Uiso   1.00
H334   H     0.63561   0.47425   0.11178   0.00000  Uiso   1.00
H335   H     0.33536   0.50307   0.05675   0.00000  Uiso   1.00
O336   O     0.46609   0.37653   0.17590   0.00000  Uiso   1.00
H337   H     0.44510   0.35895   0.16057   0.00000  Uiso   1.00
C338   C     0.47148   0.61985   0.16495   0.00000  Uiso   1.00
H339   H     0.43137   0.61993   0.17162   0.00000  Uiso   1.00
H340   H     0.48973   0.63409   0.12736   0.00000  Uiso   1.00
H341   H     0.48388   0.58740   0.16092   0.00000  Uiso   1.00
O342   O     0.38965   0.43631   0.19975   0.00000  Uiso   1.00
H343   H     0.42347   0.44574   0.18835   0.00000  Uiso   1.00
O344   O     0.64789   0.46439   0.48241   0.00000  Uiso   1.00
H345   H     0.66265   0.45060   0.00643   0.00000  Uiso   1.00
C346   C     0.45501   0.47505   0.08967   0.00000  Uiso   1.00
H347   H     0.45936   0.44568   0.10773   0.00000  Uiso   1.00
H348   H     0.43131   0.49725   0.11713   0.00000  Uiso   1.00
H349   H     0.43554   0.46586   0.06104   0.00000  Uiso   1.00
O350   O     0.37918   0.52975   0.41195   0.00000  Uiso   1.00
H351   H     0.37203   0.50313   0.39658   0.00000  Uiso   1.00
O352   O     0.44714   0.55729   0.05091   0.00000  Uiso   1.00
H353   H     0.41792   0.57508   0.06078   0.00000  Uiso   1.00
O354   O     0.53470   0.43795   0.37184   0.00000  Uiso   1.00
H355   H     0.56560   0.42230   0.36203   0.00000  Uiso   1.00
C356   C     0.83413   0.57913   0.24831   0.00000  Uiso   1.00
C357   C     0.82029   0.50747   0.48431   0.00000  Uiso   1.00
C358   C     0.82685   0.49089   0.43393   0.00000  Uiso   1.00
C359   C     0.85337   0.49640   0.01163   0.00000  Uiso   1.00
C360   C     0.89949   0.48134   0.48470   0.00000  Uiso   1.00
C361   C     0.90608   0.46469   0.43509   0.00000  Uiso   1.00
C362   C     0.86760   0.46479   0.41248   0.00000  Uiso   1.00
C363   C     0.83886   0.49290   0.06532   0.00000  Uiso   1.00
C364   C     0.92494   0.49137   0.06267   0.00000  Uiso   1.00
C365   C     0.79281   0.50119   0.40687   0.00000  Uiso   1.00
C366   C     0.85446   0.64608   0.27946   0.00000  Uiso   1.00
C367   C     0.80734   0.49883   0.34990   0.00000  Uiso   1.00
C368   C     0.85387   0.35535   0.28012   0.00000  Uiso   1.00
C369   C     0.83366   0.37597   0.24672   0.00000  Uiso   1.00
C370   C     0.81571   0.35414   0.21033   0.00000  Uiso   1.00
C371   C     0.81793   0.64382   0.20806   0.00000  Uiso   1.00
C372   C     0.83574   0.62362   0.24466   0.00000  Uiso   1.00
C373   C     0.96905   0.53059   0.27520   0.00000  Uiso   1.00
C374   C     0.68527   0.53055   0.27525   0.00000  Uiso   1.00
C375   C     0.69636   0.46896   0.22540   0.00000  Uiso   1.00
C376   C     0.98053   0.46923   0.22577   0.00000  Uiso   1.00
C377   C     0.83331   0.42072   0.24901   0.00000  Uiso   1.00
C378   C     0.85943   0.49866   0.14973   0.00000  Uiso   1.00
C379   C     0.93591   0.47897   0.00991   0.00000  Uiso   1.00
C380   C     0.87484   0.49494   0.09216   0.00000  Uiso   1.00
C381   C     0.74975   0.52276   0.43334   0.00000  Uiso   1.00
C382   C     0.74595   0.54108   0.48117   0.00000  Uiso   1.00
C383   C     0.78173   0.53529   0.00609   0.00000  Uiso   1.00
Cu384  Cu    0.78645   0.49999   0.25000   0.00000  Uiso   1.00
Cu385  Cu    0.88022   0.50001   0.25000   0.00000  Uiso   1.00
H386   H     0.86824   0.37229   0.30758   0.00000  Uiso   1.00
H387   H     0.94547   0.55508   0.29550   0.00000  Uiso   1.00
H388   H     0.69877   0.55497   0.29566   0.00000  Uiso   1.00
H389   H     0.96646   0.44477   0.20589   0.00000  Uiso   1.00
H390   H     0.93921   0.44823   0.41587   0.00000  Uiso   1.00
H391   H     0.71494   0.56056   0.49875   0.00000  Uiso   1.00
H392   H     0.86872   0.63051   0.30691   0.00000  Uiso   1.00
N393   N     0.71598   0.49999   0.24998   0.00000  Uiso   1.00
N394   N     0.95069   0.50002   0.24999   0.00000  Uiso   1.00
O395   O     0.79375   0.56011   0.25000   0.00000  Uiso   1.00
O396   O     0.87294   0.56012   0.25000   0.00000  Uiso   1.00
O397   O     0.77441   0.49998   0.32549   0.00000  Uiso   1.00
O398   O     0.85360   0.49999   0.32549   0.00000  Uiso   1.00
O399   O     0.79373   0.43988   0.24999   0.00000  Uiso   1.00
O400   O     0.87292   0.43989   0.24999   0.00000  Uiso   1.00
O401   O     0.81306   0.50001   0.17451   0.00000  Uiso   1.00
O402   O     0.89225   0.50002   0.17451   0.00000  Uiso   1.00
C403   C     0.96630   0.49977   0.08617   0.00000  Uiso   1.00
H404   H     0.96063   0.52975   0.10780   0.00000  Uiso   1.00
H405   H     0.96894   0.47425   0.11178   0.00000  Uiso   1.00
H406   H     0.66869   0.50307   0.05675   0.00000  Uiso   1.00
O407   O     0.79942   0.37653   0.17590   0.00000  Uiso   1.00
H408   H     0.77843   0.35895   0.16057   0.00000  Uiso   1.00
C409   C     0.80481   0.61985   0.16495   0.00000  Uiso   1.00
H410   H     0.76470   0.61993   0.17162   0.00000  Uiso   1.00
H411   H     0.82306   0.63409   0.12736   0.00000  Uiso   1.00
H412   H     0.81721   0.58740   0.16092   0.00000  Uiso   1.00
O413   O     0.72299   0.43631   0.19975   0.00000  Uiso   1.00
H414   H     0.75680   0.44574   0.18835   0.00000  Uiso   1.00
O415   O     0.98122   0.46439   0.48241   0.00000  Uiso   1.00
H416   H     0.99598   0.45060   0.00643   0.00000  Uiso   1.00
C417   C     0.78834   0.47505   0.08967   0.00000  Uiso   1.00
H418   H     0.79270   0.44568   0.10773   0.00000  Uiso   1.00
H419   H     0.76464   0.49725   0.11713   0.00000  Uiso   1.00
H420   H     0.76888   0.46586   0.06104   0.00000  Uiso   1.00
O421   O     0.71251   0.52975   0.41195   0.00000  Uiso   1.00
H422   H     0.70537   0.50313   0.39658   0.00000  Uiso   1.00
O423   O     0.78047   0.55729   0.05091   0.00000  Uiso   1.00
H424   H     0.75125   0.57508   0.06078   0.00000  Uiso   1.00
O425   O     0.86803   0.43795   0.37184   0.00000  Uiso   1.00
H426   H     0.89893   0.42230   0.36203   0.00000  Uiso   1.00
C427   C     0.16747   0.91246   0.24831   0.00000  Uiso   1.00
C428   C     0.15362   0.84080   0.48431   0.00000  Uiso   1.00
C429   C     0.16019   0.82423   0.43393   0.00000  Uiso   1.00
C430   C     0.18671   0.82974   0.01163   0.00000  Uiso   1.00
C431   C     0.23283   0.81467   0.48470   0.00000  Uiso   1.00
C432   C     0.23941   0.79802   0.43509   0.00000  Uiso   1.00
C433   C     0.20094   0.79812   0.41248   0.00000  Uiso   1.00
C434   C     0.17220   0.82623   0.06532   0.00000  Uiso   1.00
C435   C     0.25828   0.82470   0.06267   0.00000  Uiso   1.00
C436   C     0.12614   0.83452   0.40687   0.00000  Uiso   1.00
C437   C     0.18779   0.97941   0.27946   0.00000  Uiso   1.00
C438   C     0.14068   0.83217   0.34990   0.00000  Uiso   1.00
C439   C     0.18720   0.68869   0.28012   0.00000  Uiso   1.00
C440   C     0.16699   0.70930   0.24672   0.00000  Uiso   1.00
C441   C     0.14904   0.68748   0.21033   0.00000  Uiso   1.00
C442   C     0.15127   0.97715   0.20806   0.00000  Uiso   1.00
C443   C     0.16907   0.95695   0.24466   0.00000  Uiso   1.00
C444   C     0.30239   0.86392   0.27520   0.00000  Uiso   1.00
C445   C     0.01860   0.86389   0.27525   0.00000  Uiso   1.00
C446   C     0.02970   0.80229   0.22540   0.00000  Uiso   1.00
C447   C     0.31386   0.80256   0.22577   0.00000  Uiso   1.00
C448   C     0.16664   0.75405   0.24901   0.00000  Uiso   1.00
C449   C     0.19276   0.83199   0.14973   0.00000  Uiso   1.00
C450   C     0.26924   0.81230   0.00991   0.00000  Uiso   1.00
C451   C     0.20817   0.82828   0.09216   0.00000  Uiso   1.00
C452   C     0.08308   0.85609   0.43334   0.00000  Uiso   1.00
C453   C     0.07929   0.87441   0.48117   0.00000  Uiso   1.00
C454   C     0.11507   0.86862   0.00609   0.00000  Uiso   1.00
Cu455  Cu    0.11978   0.83333   0.25000   0.00000  Uiso   1.00
Cu456  Cu    0.21355   0.83334   0.25000   0.00000  Uiso   1.00
H457   H     0.20158   0.70563   0.30758   0.00000  Uiso   1.00
H458   H     0.27880   0.88842   0.29550   0.00000  Uiso   1.00
H459   H     0.03211   0.88831   0.29566   0.00000  Uiso   1.00
H460   H     0.29979   0.77811   0.20589   0.00000  Uiso   1.00
H461   H     0.27254   0.78156   0.41587   0.00000  Uiso   1.00
H462   H     0.04828   0.89390   0.49875   0.00000  Uiso   1.00
H463   H     0.20206   0.96384   0.30691   0.00000  Uiso   1.00
N464   N     0.04931   0.83332   0.24998   0.00000  Uiso   1.00
N465   N     0.28402   0.83335   0.24999   0.00000  Uiso   1.00
O466   O     0.12708   0.89345   0.25000   0.00000  Uiso   1.00
O467   O     0.20627   0.89346   0.25000   0.00000  Uiso   1.00
O468   O     0.10775   0.83332   0.32549   0.00000  Uiso   1.00
O469   O     0.18694   0.83333   0.32549   0.00000  Uiso   1.00
O470   O     0.12706   0.77321   0.24999   0.00000  Uiso   1.00
O471   O     0.20625   0.77322   0.24999   0.00000  Uiso   1.00
O472   O     0.14640   0.83334   0.17451   0.00000  Uiso   1.00
O473   O     0.22559   0.83335   0.17451   0.00000  Uiso   1.00
C474   C     0.29963   0.83310   0.08617   0.00000  Uiso   1.00
H475   H     0.29396   0.86308   0.10780   0.00000  Uiso   1.00
H476   H     0.30228   0.80758   0.11178   0.00000  Uiso   1.00
H477   H     0.00203   0.83640   0.05675   0.00000  Uiso   1.00
O478   O     0.13275   0.70987   0.17590   0.00000  Uiso   1.00
H479   H     0.11177   0.69228   0.16057   0.00000  Uiso   1.00
C480   C     0.13815   0.95318   0.16495   0.00000  Uiso   1.00
H481   H     0.09804   0.95326   0.17162   0.00000  Uiso   1.00
H482   H     0.15640   0.96743   0.12736   0.00000  Uiso   1.00
H483   H     0.15055   0.92073   0.16092   0.00000  Uiso   1.00
O484   O     0.05632   0.76964   0.19975   0.00000  Uiso   1.00
H485   H     0.09013   0.77908   0.18835   0.00000  Uiso   1.00
O486   O     0.31456   0.79772   0.48241   0.00000  Uiso   1.00
H487   H     0.32931   0.78394   0.00643   0.00000  Uiso   1.00
C488   C     0.12168   0.80838   0.08967   0.00000  Uiso   1.00
H489   H     0.12603   0.77901   0.10773   0.00000  Uiso   1.00
H490   H     0.09797   0.83058   0.11713   0.00000  Uiso   1.00
H491   H     0.10221   0.79920   0.06104   0.00000  Uiso   1.00
O492   O     0.04584   0.86308   0.41195   0.00000  Uiso   1.00
H493   H     0.03870   0.83647   0.39658   0.00000  Uiso   1.00
O494   O     0.11381   0.89062   0.05091   0.00000  Uiso   1.00
H495   H     0.08458   0.90842   0.06078   0.00000  Uiso   1.00
O496   O     0.20136   0.77128   0.37184   0.00000  Uiso   1.00
H497   H     0.23227   0.75563   0.36203   0.00000  Uiso   1.00
C498   C     0.50080   0.91246   0.24831   0.00000  Uiso   1.00
C499   C     0.48696   0.84080   0.48431   0.00000  Uiso   1.00
C500   C     0.49352   0.82423   0.43393   0.00000  Uiso   1.00
C501   C     0.52004   0.82974   0.01163   0.00000  Uiso   1.00
C502   C     0.56616   0.81467   0.48470   0.00000  Uiso   1.00
C503   C     0.57275   0.79802   0.43509   0.00000  Uiso   1.00
C504   C     0.53427   0.79812   0.41248   0.00000  Uiso   1.00
C505   C     0.50553   0.82623   0.06532   0.00000  Uiso   1.00
C506   C     0.59161   0.82470   0.06267   0.00000  Uiso   1.00
C507   C     0.45947   0.83452   0.40687   0.00000  Uiso   1.00
C508   C     0.52112   0.97941   0.27946   0.00000  Uiso   1.00
C509   C     0.47401   0.83217   0.34990   0.00000  Uiso   1.00
C510   C     0.52054   0.68869   0.28012   0.00000  Uiso   1.00
C511   C     0.50033   0.70930   0.24672   0.00000  Uiso   1.00
C512   C     0.48237   0.68748   0.21033   0.00000  Uiso   1.00
C513   C     0.48460   0.97715   0.20806   0.00000  Uiso   1.00
C514   C     0.50240   0.95695   0.24466   0.00000  Uiso   1.00
C515   C     0.63572   0.86392   0.27520   0.00000  Uiso   1.00
C516   C     0.35194   0.86389   0.27525   0.00000  Uiso   1.00
C517   C     0.36303   0.80229   0.22540   0.00000  Uiso   1.00
C518   C     0.64720   0.80256   0.22577   0.00000  Uiso   1.00
C519   C     0.49997   0.75405   0.24901   0.00000  Uiso   1.00
C520   C     0.52610   0.83199   0.14973   0.00000  Uiso   1.00
C521   C     0.60258   0.81230   0.00991   0.00000  Uiso   1.00
C522   C     0.54150   0.82828   0.09216   0.00000  Uiso   1.00
C523   C     0.41642   0.85609   0.43334   0.00000  Uiso   1.00
C524   C     0.41262   0.87441   0.48117   0.00000  Uiso   1.00
C525   C     0.44840   0.86862   0.00609   0.00000  Uiso   1.00
Cu526  Cu    0.45311   0.83333   0.25000   0.00000  Uiso   1.00
Cu527  Cu    0.54689   0.83334   0.25000   0.00000  Uiso   1.00
H528   H     0.53491   0.70563   0.30758   0.00000  Uiso   1.00
H529   H     0.61213   0.88842   0.29550   0.00000  Uiso   1.00
H530   H     0.36544   0.88831   0.29566   0.00000  Uiso   1.00
H531   H     0.63312   0.77811   0.20589   0.00000  Uiso   1.00
H532   H     0.60587   0.78156   0.41587   0.00000  Uiso   1.00
H533   H     0.38161   0.89390   0.49875   0.00000  Uiso   1.00
H534   H     0.53539   0.96384   0.30691   0.00000  Uiso   1.00
N535   N     0.38265   0.83332   0.24998   0.00000  Uiso   1.00
N536   N     0.61735   0.83335   0.24999   0.00000  Uiso   1.00
O537   O     0.46042   0.89345   0.25000   0.00000  Uiso   1.00
O538   O     0.53961   0.89346   0.25000   0.00000  Uiso   1.00
O539   O     0.44108   0.83332   0.32549   0.00000  Uiso   1.00
O540   O     0.52027   0.83333   0.32549   0.00000  Uiso   1.00
O541   O     0.46039   0.77321   0.24999   0.00000  Uiso   1.00
O542   O     0.53958   0.77322   0.24999   0.00000  Uiso   1.00
O543   O     0.47973   0.83334   0.17451   0.00000  Uiso   1.00
O544   O     0.55892   0.83335   0.17451   0.00000  Uiso   1.00
C545   C     0.63296   0.83310   0.08617   0.00000  Uiso   1.00
H546   H     0.62729   0.86308   0.10780   0.00000  Uiso   1.00
H547   H     0.63561   0.80758   0.11178   0.00000  Uiso   1.00
H548   H     0.33536   0.83640   0.05675   0.00000  Uiso   1.00
O549   O     0.46609   0.70987   0.17590   0.00000  Uiso   1.00
H550   H     0.44510   0.69228   0.16057   0.00000  Uiso   1.00
C551   C     0.47148   0.95318   0.16495   0.00000  Uiso   1.00
H552   H     0.43137   0.95326   0.17162   0.00000  Uiso   1.00
H553   H     0.48973   0.96743   0.12736   0.00000  Uiso   1.00
H554   H     0.48388   0.92073   0.16092   0.00000  Uiso   1.00
O555   O     0.38965   0.76964   0.19975   0.00000  Uiso   1.00
H556   H     0.42347   0.77908   0.18835   0.00000  Uiso   1.00
O557   O     0.64789   0.79772   0.48241   0.00000  Uiso   1.00
H558   H     0.66265   0.78394   0.00643   0.00000  Uiso   1.00
C559   C     0.45501   0.80838   0.08967   0.00000  Uiso   1.00
H560   H     0.45936   0.77901   0.10773   0.00000  Uiso   1.00
H561   H     0.43131   0.83058   0.11713   0.00000  Uiso   1.00
H562   H     0.43554   0.79920   0.06104   0.00000  Uiso   1.00
O563   O     0.37918   0.86308   0.41195   0.00000  Uiso   1.00
H564   H     0.37203   0.83647   0.39658   0.00000  Uiso   1.00
O565   O     0.44714   0.89062   0.05091   0.00000  Uiso   1.00
H566   H     0.41792   0.90842   0.06078   0.00000  Uiso   1.00
O567   O     0.53470   0.77128   0.37184   0.00000  Uiso   1.00
H568   H     0.56560   0.75563   0.36203   0.00000  Uiso   1.00
C569   C     0.83413   0.91246   0.24831   0.00000  Uiso   1.00
C570   C     0.82029   0.84080   0.48431   0.00000  Uiso   1.00
C571   C     0.82685   0.82423   0.43393   0.00000  Uiso   1.00
C572   C     0.85337   0.82974   0.01163   0.00000  Uiso   1.00
C573   C     0.89949   0.81467   0.48470   0.00000  Uiso   1.00
C574   C     0.90608   0.79802   0.43509   0.00000  Uiso   1.00
C575   C     0.86760   0.79812   0.41248   0.00000  Uiso   1.00
C576   C     0.83886   0.82623   0.06532   0.00000  Uiso   1.00
C577   C     0.92494   0.82470   0.06267   0.00000  Uiso   1.00
C578   C     0.79281   0.83452   0.40687   0.00000  Uiso   1.00
C579   C     0.85446   0.97941   0.27946   0.00000  Uiso   1.00
C580   C     0.80734   0.83217   0.34990   0.00000  Uiso   1.00
C581   C     0.85387   0.68869   0.28012   0.00000  Uiso   1.00
C582   C     0.83366   0.70930   0.24672   0.00000  Uiso   1.00
C583   C     0.81571   0.68748   0.21033   0.00000  Uiso   1.00
C584   C     0.81793   0.97715   0.20806   0.00000  Uiso   1.00
C585   C     0.83574   0.95695   0.24466   0.00000  Uiso   1.00
C586   C     0.96905   0.86392   0.27520   0.00000  Uiso   1.00
C587   C     0.68527   0.86389   0.27525   0.00000  Uiso   1.00
C588   C     0.69636   0.80229   0.22540   0.00000  Uiso   1.00
C589   C     0.98053   0.80256   0.22577   0.00000  Uiso   1.00
C590   C     0.83331   0.75405   0.24901   0.00000  Uiso   1.00
C591   C     0.85943   0.83199   0.14973   0.00000  Uiso   1.00
C592   C     0.93591   0.81230   0.00991   0.00000  Uiso   1.00
C593   C     0.87484   0.82828   0.09216   0.00000  Uiso   1.00
C594   C     0.74975   0.85609   0.43334   0.00000  Uiso   1.00
C595   C     0.74595   0.87441   0.48117   0.00000  Uiso   1.00
C596   C     0.78173   0.86862   0.00609   0.00000  Uiso   1.00
Cu597  Cu    0.78645   0.83333   0.25000   0.00000  Uiso   1.00
Cu598  Cu    0.88022   0.83334   0.25000   0.00000  Uiso   1.00
H599   H     0.86824   0.70563   0.30758   0.00000  Uiso   1.00
H600   H     0.94547   0.88842   0.29550   0.00000  Uiso   1.00
H601   H     0.69877   0.88831   0.29566   0.00000  Uiso   1.00
H602   H     0.96646   0.77811   0.20589   0.00000  Uiso   1.00
H603   H     0.93921   0.78156   0.41587   0.00000  Uiso   1.00
H604   H     0.71494   0.89390   0.49875   0.00000  Uiso   1.00
H605   H     0.86872   0.96384   0.30691   0.00000  Uiso   1.00
N606   N     0.71598   0.83332   0.24998   0.00000  Uiso   1.00
N607   N     0.95069   0.83335   0.24999   0.00000  Uiso   1.00
O608   O     0.79375   0.89345   0.25000   0.00000  Uiso   1.00
O609   O     0.87294   0.89346   0.25000   0.00000  Uiso   1.00
O610   O     0.77441   0.83332   0.32549   0.00000  Uiso   1.00
O611   O     0.85360   0.83333   0.32549   0.00000  Uiso   1.00
O612   O     0.79373   0.77321   0.24999   0.00000  Uiso   1.00
O613   O     0.87292   0.77322   0.24999   0.00000  Uiso   1.00
O614   O     0.81306   0.83334   0.17451   0.00000  Uiso   1.00
O615   O     0.89225   0.83335   0.17451   0.00000  Uiso   1.00
C616   C     0.96630   0.83310   0.08617   0.00000  Uiso   1.00
H617   H     0.96063   0.86308   0.10780   0.00000  Uiso   1.00
H618   H     0.96894   0.80758   0.11178   0.00000  Uiso   1.00
H619   H     0.66869   0.83640   0.05675   0.00000  Uiso   1.00
O620   O     0.79942   0.70987   0.17590   0.00000  Uiso   1.00
H621   H     0.77843   0.69228   0.16057   0.00000  Uiso   1.00
C622   C     0.80481   0.95318   0.16495   0.00000  Uiso   1.00
H623   H     0.76470   0.95326   0.17162   0.00000  Uiso   1.00
H624   H     0.82306   0.96743   0.12736   0.00000  Uiso   1.00
H625   H     0.81721   0.92073   0.16092   0.00000  Uiso   1.00
O626   O     0.72299   0.76964   0.19975   0.00000  Uiso   1.00
H627   H     0.75680   0.77908   0.18835   0.00000  Uiso   1.00
O628   O     0.98122   0.79772   0.48241   0.00000  Uiso   1.00
H629   H     0.99598   0.78394   0.00643   0.00000  Uiso   1.00
C630   C     0.78834   0.80838   0.08967   0.00000  Uiso   1.00
H631   H     0.79270   0.77901   0.10773   0.00000  Uiso   1.00
H632   H     0.76464   0.83058   0.11713   0.00000  Uiso   1.00
H633   H     0.76888   0.79920   0.06104   0.00000  Uiso   1.00
O634   O     0.71251   0.86308   0.41195   0.00000  Uiso   1.00
H635   H     0.70537   0.83647   0.39658   0.00000  Uiso   1.00
O636   O     0.78047   0.89062   0.05091   0.00000  Uiso   1.00
H637   H     0.75125   0.90842   0.06078   0.00000  Uiso   1.00
O638   O     0.86803   0.77128   0.37184   0.00000  Uiso   1.00
H639   H     0.89893   0.75563   0.36203   0.00000  Uiso   1.00
C640   C     0.16747   0.24579   0.74831   0.00000  Uiso   1.00
C641   C     0.15362   0.17414   0.98431   0.00000  Uiso   1.00
C642   C     0.16019   0.15756   0.93393   0.00000  Uiso   1.00
C643   C     0.18671   0.16307   0.51163   0.00000  Uiso   1.00
C644   C     0.23283   0.14801   0.98470   0.00000  Uiso   1.00
C645   C     0.23941   0.13135   0.93509   0.00000  Uiso   1.00
C646   C     0.20094   0.13146   0.91248   0.00000  Uiso   1.00
C647   C     0.17220   0.15956   0.56532   0.00000  Uiso   1.00
C648   C     0.25828   0.15803   0.56267   0.00000  Uiso   1.00
C649   C     0.12614   0.16785   0.90687   0.00000  Uiso   1.00
C650   C     0.18779   0.31274   0.77946   0.00000  Uiso   1.00
C651   C     0.14068   0.16550   0.84990   0.00000  Uiso   1.00
C652   C     0.18720   0.02202   0.78012   0.00000  Uiso   1.00
C653   C     0.16699   0.04264   0.74672   0.00000  Uiso   1.00
C654   C     0.14904   0.02081   0.71033   0.00000  Uiso   1.00
C655   C     0.15127   0.31049   0.70806   0.00000  Uiso   1.00
C656   C     0.16907   0.29029   0.74466   0.00000  Uiso   1.00
C657   C     0.30239   0.19725   0.77520   0.00000  Uiso   1.00
C658   C     0.01860   0.19722   0.77525   0.00000  Uiso   1.00
C659   C     0.02970   0.13562   0.72540   0.00000  Uiso   1.00
C660   C     0.31386   0.13590   0.72577   0.00000  Uiso   1.00
C661   C     0.16664   0.08739   0.74901   0.00000  Uiso   1.00
C662   C     0.19276   0.16532   0.64973   0.00000  Uiso   1.00
C663   C     0.26924   0.14564   0.50991   0.00000  Uiso   1.00
C664   C     0.20817   0.16161   0.59216   0.00000  Uiso   1.00
C665   C     0.08308   0.18942   0.93334   0.00000  Uiso   1.00
C666   C     0.07929   0.20774   0.98117   0.00000  Uiso   1.00
C667   C     0.11507   0.20195   0.50609   0.00000  Uiso   1.00
Cu668  Cu    0.11978   0.16666   0.75000   0.00000  Uiso   1.00
Cu669  Cu    0.21355   0.16667   0.75000   0.00000  Uiso   1.00
H670   H     0.20158   0.03896   0.80758   0.00000  Uiso   1.00
H671   H     0.27880   0.22175   0.79550   0.00000  Uiso   1.00
H672   H     0.03211   0.22164   0.79566   0.00000  Uiso   1.00
H673   H     0.29979   0.11144   0.70589   0.00000  Uiso   1.00
H674   H     0.27254   0.11490   0.91587   0.00000  Uiso   1.00
H675   H     0.04828   0.22723   0.99875   0.00000  Uiso   1.00
H676   H     0.20206   0.29717   0.80691   0.00000  Uiso   1.00
N677   N     0.04931   0.16666   0.74998   0.00000  Uiso   1.00
N678   N     0.28402   0.16669   0.74999   0.00000  Uiso   1.00
O679   O     0.12708   0.22678   0.75000   0.00000  Uiso   1.00
O680   O     0.20627   0.22679   0.75000   0.00000  Uiso   1.00
O681   O     0.10775   0.16665   0.82549   0.00000  Uiso   1.00
O682   O     0.18694   0.16666   0.82549   0.00000  Uiso   1.00
O683   O     0.12706   0.10654   0.74999   0.00000  Uiso   1.00
O684   O     0.20625   0.10655   0.74999   0.00000  Uiso   1.00
O685   O     0.14640   0.16667   0.67451   0.00000  Uiso   1.00
O686   O     0.22559   0.16668   0.67451   0.00000  Uiso   1.00
C687   C     0.29963   0.16644   0.58617   0.00000  Uiso   1.00
H688   H     0.29396   0.19641   0.60780   0.00000  Uiso   1.00
H689   H     0.30228   0.14092   0.61178   0.00000  Uiso   1.00
H690   H     0.00203   0.16974   0.55675   0.00000  Uiso   1.00
O691   O     0.13275   0.04320   0.67590   0.00000  Uiso   1.00
H692   H     0.11177   0.02562   0.66057   0.00000  Uiso   1.00
C693   C     0.13815   0.28651   0.66495   0.00000  Uiso   1.00
H694   H     0.09804   0.28660   0.67162   0.00000  Uiso   1.00
H695   H     0.15640   0.30076   0.62736   0.00000  Uiso   1.00
H696   H     0.15055   0.25406   0.66092   0.00000  Uiso   1.00
O697   O     0.05632   0.10298   0.69975   0.00000  Uiso   1.00
H698   H     0.09013   0.11241   0.68835   0.00000  Uiso   1.00
O699   O     0.31456   0.13105   0.98241   0.00000  Uiso   1.00
H700   H     0.32931   0.11727   0.50643   0.00000  Uiso   1.00
C701   C     0.12168   0.14172   0.58967   0.00000  Uiso   1.00
H702   H     0.12603   0.11234   0.60773   0.00000  Uiso   1.00
H703   H     0.09797   0.16391   0.61713   0.00000  Uiso   1.00
H704   H     0.10221   0.13253   0.56104   0.00000  Uiso   1.00
O705   O     0.04584   0.19642   0.91195   0.00000  Uiso   1.00
H706   H     0.03870   0.16980   0.89658   0.00000  Uiso   1.00
O707   O     0.11381   0.22396   0.55091   0.00000  Uiso   1.00
H708   H     0.08458   0.24175   0.56078   0.00000  Uiso   1.00
O709   O     0.20136   0.10462   0.87184   0.00000  Uiso   1.00
H710   H     0.23227   0.08897   0.86203   0.00000  Uiso   1.00
C711   C     0.50080   0.24579   0.74831   0.00000  Uiso   1.00
C712   C     0.48696   0.17414   0.98431   0.00000  Uiso   1.00
C713   C     0.49352   0.15756   0.93393   0.00000  Uiso   1.00
C714   C     0.52004   0.16307   0.51163   0.00000  Uiso   1.00
C715   C     0.56616   0.14801   0.98470   0.00000  Uiso   1.00
C716   C     0.57275   0.13135   0.93509   0.00000  Uiso   1.00
C717   C     0.53427   0.13146   0.91248   0.00000  Uiso   1.00
C718   C     0.50553   0.15956   0.56532   0.00000  Uiso   1.00
C719   C     0.59161   0.15803   0.56267   0.00000  Uiso   1.00
C720   C     0.45947   0.16785   0.90687   0.00000  Uiso   1.00
C721   C     0.52112   0.31274   0.77946   0.00000  Uiso   1.00
C722   C     0.47401   0.16550   0.84990   0.00000  Uiso   1.00
C723   C     0.52054   0.02202   0.78012   0.00000  Uiso   1.00
C724   C     0.50033   0.04264   0.74672   0.00000  Uiso   1.00
C725   C     0.48237   0.02081   0.71033   0.00000  Uiso   1.00
C726   C     0.48460   0.31049   0.70806   0.00000  Uiso   1.00
C727   C     0.50240   0.29029   0.74466   0.00000  Uiso   1.00
C728   C     0.63572   0.19725   0.77520   0.00000  Uiso   1.00
C729   C     0.35194   0.19722   0.77525   0.00000  Uiso   1.00
C730   C     0.36303   0.13562   0.72540   0.00000  Uiso   1.00
C731   C     0.64720   0.13590   0.72577   0.00000  Uiso   1.00
C732   C     0.49997   0.08739   0.74901   0.00000  Uiso   1.00
C733   C     0.52610   0.16532   0.64973   0.00000  Uiso   1.00
C734   C     0.60258   0.14564   0.50991   0.00000  Uiso   1.00
C735   C     0.54150   0.16161   0.59216   0.00000  Uiso   1.00
C736   C     0.41642   0.18942   0.93334   0.00000  Uiso   1.00
C737   C     0.41262   0.20774   0.98117   0.00000  Uiso   1.00
C738   C     0.44840   0.20195   0.50609   0.00000  Uiso   1.00
Cu739  Cu    0.45311   0.16666   0.75000   0.00000  Uiso   1.00
Cu740  Cu    0.54689   0.16667   0.75000   0.00000  Uiso   1.00
H741   H     0.53491   0.03896   0.80758   0.00000  Uiso   1.00
H742   H     0.61213   0.22175   0.79550   0.00000  Uiso   1.00
H743   H     0.36544   0.22164   0.79566   0.00000  Uiso   1.00
H744   H     0.63312   0.11144   0.70589   0.00000  Uiso   1.00
H745   H     0.60587   0.11490   0.91587   0.00000  Uiso   1.00
H746   H     0.38161   0.22723   0.99875   0.00000  Uiso   1.00
H747   H     0.53539   0.29717   0.80691   0.00000  Uiso   1.00
N748   N     0.38265   0.16666   0.74998   0.00000  Uiso   1.00
N749   N     0.61735   0.16669   0.74999   0.00000  Uiso   1.00
O750   O     0.46042   0.22678   0.75000   0.00000  Uiso   1.00
O751   O     0.53961   0.22679   0.75000   0.00000  Uiso   1.00
O752   O     0.44108   0.16665   0.82549   0.00000  Uiso   1.00
O753   O     0.52027   0.16666   0.82549   0.00000  Uiso   1.00
O754   O     0.46039   0.10654   0.74999   0.00000  Uiso   1.00
O755   O     0.53958   0.10655   0.74999   0.00000  Uiso   1.00
O756   O     0.47973   0.16667   0.67451   0.00000  Uiso   1.00
O757   O     0.55892   0.16668   0.67451   0.00000  Uiso   1.00
C758   C     0.63296   0.16644   0.58617   0.00000  Uiso   1.00
H759   H     0.62729   0.19641   0.60780   0.00000  Uiso   1.00
H760   H     0.63561   0.14092   0.61178   0.00000  Uiso   1.00
H761   H     0.33536   0.16974   0.55675   0.00000  Uiso   1.00
O762   O     0.46609   0.04320   0.67590   0.00000  Uiso   1.00
H763   H     0.44510   0.02562   0.66057   0.00000  Uiso   1.00
C764   C     0.47148   0.28651   0.66495   0.00000  Uiso   1.00
H765   H     0.43137   0.28660   0.67162   0.00000  Uiso   1.00
H766   H     0.48973   0.30076   0.62736   0.00000  Uiso   1.00
H767   H     0.48388   0.25406   0.66092   0.00000  Uiso   1.00
O768   O     0.38965   0.10298   0.69975   0.00000  Uiso   1.00
H769   H     0.42347   0.11241   0.68835   0.00000  Uiso   1.00
O770   O     0.64789   0.13105   0.98241   0.00000  Uiso   1.00
H771   H     0.66265   0.11727   0.50643   0.00000  Uiso   1.00
C772   C     0.45501   0.14172   0.58967   0.00000  Uiso   1.00
H773   H     0.45936   0.11234   0.60773   0.00000  Uiso   1.00
H774   H     0.43131   0.16391   0.61713   0.00000  Uiso   1.00
H775   H     0.43554   0.13253   0.56104   0.00000  Uiso   1.00
O776   O     0.37918   0.19642   0.91195   0.00000  Uiso   1.00
H777   H     0.37203   0.16980   0.89658   0.00000  Uiso   1.00
O778   O     0.44714   0.22396   0.55091   0.00000  Uiso   1.00
H779   H     0.41792   0.24175   0.56078   0.00000  Uiso   1.00
O780   O     0.53470   0.10462   0.87184   0.00000  Uiso   1.00
H781   H     0.56560   0.08897   0.86203   0.00000  Uiso   1.00
C782   C     0.83413   0.24579   0.74831   0.00000  Uiso   1.00
C783   C     0.82029   0.17414   0.98431   0.00000  Uiso   1.00
C784   C     0.82685   0.15756   0.93393   0.00000  Uiso   1.00
C785   C     0.85337   0.16307   0.51163   0.00000  Uiso   1.00
C786   C     0.89949   0.14801   0.98470   0.00000  Uiso   1.00
C787   C     0.90608   0.13135   0.93509   0.00000  Uiso   1.00
C788   C     0.86760   0.13146   0.91248   0.00000  Uiso   1.00
C789   C     0.83886   0.15956   0.56532   0.00000  Uiso   1.00
C790   C     0.92494   0.15803   0.56267   0.00000  Uiso   1.00
C791   C     0.79281   0.16785   0.90687   0.00000  Uiso   1.00
C792   C     0.85446   0.31274   0.77946   0.00000  Uiso   1.00
C793   C     0.80734   0.16550   0.84990   0.00000  Uiso   1.00
C794   C     0.85387   0.02202   0.78012   0.00000  Uiso   1.00
C795   C     0.83366   0.04264   0.74672   0.00000  Uiso   1.00
C796   C     0.81571   0.02081   0.71033   0.00000  Uiso   1.00
C797   C     0.81793   0.31049   0.70806   0.00000  Uiso   1.00
C798   C     0.83574   0.29029   0.74466   0.00000  Uiso   1.00
C799   C     0.96905   0.19725   0.77520   0.00000  Uiso   1.00
C800   C     0.68527   0.19722   0.77525   0.00000  Uiso   1.00
C801   C     0.69636   0.13562   0.72540   0.00000  Uiso   1.00
C802   C     0.98053   0.13590   0.72577   0.00000  Uiso   1.00
C803   C     0.83331   0.08739   0.74901   0.00000  Uiso   1.00
C804   C     0.85943   0.16532   0.64973   0.00000  Uiso   1.00
C805   C     0.93591   0.14564   0.50991   0.00000  Uiso   1.00
C806   C     0.87484   0.16161   0.59216   0.00000  Uiso   1.00
C807   C     0.74975   0.18942   0.93334   0.00000  Uiso   1.00
C808   C     0.74595   0.20774   0.98117   0.00000  Uiso   1.00
C809   C     0.78173   0.20195   0.50609   0.00000  Uiso   1.00
Cu810  Cu    0.78645   0.16666   0.75000   0.00000  Uiso   1.00
Cu811  Cu    0.88022   0.16667   0.75000   0.00000  Uiso   1.00
H812   H     0.86824   0.03896   0.80758   0.00000  Uiso   1.00
H813   H     0.94547   0.22175   0.79550   0.00000  Uiso   1.00
H814   H     0.69877   0.22164   0.79566   0.00000  Uiso   1.00
H815   H     0.96646   0.11144   0.70589   0.00000  Uiso   1.00
H816   H     0.93921   0.11490   0.91587   0.00000  Uiso   1.00
H817   H     0.71494   0.22723   0.99875   0.00000  Uiso   1.00
H818   H     0.86872   0.29717   0.80691   0.00000  Uiso   1.00
N819   N     0.71598   0.16666   0.74998   0.00000  Uiso   1.00
N820   N     0.95069   0.16669   0.74999   0.00000  Uiso   1.00
O821   O     0.79375   0.22678   0.75000   0.00000  Uiso   1.00
O822   O     0.87294   0.22679   0.75000   0.00000  Uiso   1.00
O823   O     0.77441   0.16665   0.82549   0.00000  Uiso   1.00
O824   O     0.85360   0.16666   0.82549   0.00000  Uiso   1.00
O825   O     0.79373   0.10654   0.74999   0.00000  Uiso   1.00
O826   O     0.87292   0.10655   0.74999   0.00000  Uiso   1.00
O827   O     0.81306   0.16667   0.67451   0.00000  Uiso   1.00
O828   O     0.89225   0.16668   0.67451   0.00000  Uiso   1.00
C829   C     0.96630   0.16644   0.58617   0.00000  Uiso   1.00
H830   H     0.96063   0.19641   0.60780   0.00000  Uiso   1.00
H831   H     0.96894   0.14092   0.61178   0.00000  Uiso   1.00
H832   H     0.66869   0.16974   0.55675   0.00000  Uiso   1.00
O833   O     0.79942   0.04320   0.67590   0.00000  Uiso   1.00
H834   H     0.77843   0.02562   0.66057   0.00000  Uiso   1.00
C835   C     0.80481   0.28651   0.66495   0.00000  Uiso   1.00
H836   H     0.76470   0.28660   0.67162   0.00000  Uiso   1.00
H837   H     0.82306   0.30076   0.62736   0.00000  Uiso   1.00
H838   H     0.81721   0.25406   0.66092   0.00000  Uiso   1.00
O839   O     0.72299   0.10298   0.69975   0.00000  Uiso   1.00
H840   H     0.75680   0.11241   0.68835   0.00000  Uiso   1.00
O841   O     0.98122   0.13105   0.98241   0.00000  Uiso   1.00
H842   H     0.99598   0.11727   0.50643   0.00000  Uiso   1.00
C843   C     0.78834   0.14172   0.58967   0.00000  Uiso   1.00
H844   H     0.79270   0.11234   0.60773   0.00000  Uiso   1.00
H845   H     0.76464   0.16391   0.61713   0.00000  Uiso   1.00
H846   H     0.76888   0.13253   0.56104   0.00000  Uiso   1.00
O847   O     0.71251   0.19642   0.91195   0.00000  Uiso   1.00
H848   H     0.70537   0.16980   0.89658   0.00000  Uiso   1.00
O849   O     0.78047   0.22396   0.55091   0.00000  Uiso   1.00
H850   H     0.75125   0.24175   0.56078   0.00000  Uiso   1.00
O851   O     0.86803   0.10462   0.87184   0.00000  Uiso   1.00
H852   H     0.89893   0.08897   0.86203   0.00000  Uiso   1.00
C853   C     0.16747   0.57913   0.74831   0.00000  Uiso   1.00
C854   C     0.15362   0.50747   0.98431   0.00000  Uiso   1.00
C855   C     0.16019   0.49089   0.93393   0.00000  Uiso   1.00
C856   C     0.18671   0.49640   0.51163   0.00000  Uiso   1.00
C857   C     0.23283   0.48134   0.98470   0.00000  Uiso   1.00
C858   C     0.23941   0.46469   0.93509   0.00000  Uiso   1.00
C859   C     0.20094   0.46479   0.91248   0.00000  Uiso   1.00
C860   C     0.17220   0.49290   0.56532   0.00000  Uiso   1.00
C861   C     0.25828   0.49137   0.56267   0.00000  Uiso   1.00
C862   C     0.12614   0.50119   0.90687   0.00000  Uiso   1.00
C863   C     0.18779   0.64608   0.77946   0.00000  Uiso   1.00
C864   C     0.14068   0.49883   0.84990   0.00000  Uiso   1.00
C865   C     0.18720   0.35535   0.78012   0.00000  Uiso   1.00
C866   C     0.16699   0.37597   0.74672   0.00000  Uiso   1.00
C867   C     0.14904   0.35414   0.71033   0.00000  Uiso   1.00
C868   C     0.15127   0.64382   0.70806   0.00000  Uiso   1.00
C869   C     0.16907   0.62362   0.74466   0.00000  Uiso   1.00
C870   C     0.30239   0.53059   0.77520   0.00000  Uiso   1.00
C871   C     0.01860   0.53055   0.77525   0.00000  Uiso   1.00
C872   C     0.02970   0.46896   0.72540   0.00000  Uiso   1.00
C873   C     0.31386   0.46923   0.72577   0.00000  Uiso   1.00
C874   C     0.16664   0.42072   0.74901   0.00000  Uiso   1.00
C875   C     0.19276   0.49866   0.64973   0.00000  Uiso   1.00
C876   C     0.26924   0.47897   0.50991   0.00000  Uiso   1.00
C877   C     0.20817   0.49494   0.59216   0.00000  Uiso   1.00
C878   C     0.08308   0.52276   0.93334   0.00000  Uiso   1.00
C879   C     0.07929   0.54108   0.98117   0.00000  Uiso   1.00
C880   C     0.11507   0.53529   0.50609   0.00000  Uiso   1.00
Cu881  Cu    0.11978   0.49999   0.75000   0.00000  Uiso   1.00
Cu882  Cu    0.21355   0.50001   0.75000   0.00000  Uiso   1.00
H883   H     0.20158   0.37229   0.80758   0.00000  Uiso   1.00
H884   H     0.27880   0.55508   0.79550   0.00000  Uiso   1.00
H885   H     0.03211   0.55497   0.79566   0.00000  Uiso   1.00
H886   H     0.29979   0.44477   0.70589   0.00000  Uiso   1.00
H887   H     0.27254   0.44823   0.91587   0.00000  Uiso   1.00
H888   H     0.04828   0.56056   0.99875   0.00000  Uiso   1.00
H889   H     0.20206   0.63051   0.80691   0.00000  Uiso   1.00
N890   N     0.04931   0.49999   0.74998   0.00000  Uiso   1.00
N891   N     0.28402   0.50002   0.74999   0.00000  Uiso   1.00
O892   O     0.12708   0.56011   0.75000   0.00000  Uiso   1.00
O893   O     0.20627   0.56012   0.75000   0.00000  Uiso   1.00
O894   O     0.10775   0.49998   0.82549   0.00000  Uiso   1.00
O895   O     0.18694   0.49999   0.82549   0.00000  Uiso   1.00
O896   O     0.12706   0.43988   0.74999   0.00000  Uiso   1.00
O897   O     0.20625   0.43989   0.74999   0.00000  Uiso   1.00
O898   O     0.14640   0.50001   0.67451   0.00000  Uiso   1.00
O899   O     0.22559   0.50002   0.67451   0.00000  Uiso   1.00
C900   C     0.29963   0.49977   0.58617   0.00000  Uiso   1.00
H901   H     0.29396   0.52975   0.60780   0.00000  Uiso   1.00
H902   H     0.30228   0.47425   0.61178   0.00000  Uiso   1.00
H903   H     0.00203   0.50307   0.55675   0.00000  Uiso   1.00
O904   O     0.13275   0.37653   0.67590   0.00000  Uiso   1.00
H905   H     0.11177   0.35895   0.66057   0.00000  Uiso   1.00
C906   C     0.13815   0.61985   0.66495   0.00000  Uiso   1.00
H907   H     0.09804   0.61993   0.67162   0.00000  Uiso   1.00
H908   H     0.15640   0.63409   0.62736   0.00000  Uiso   1.00
H909   H     0.15055   0.58740   0.66092   0.00000  Uiso   1.00
O910   O     0.05632   0.43631   0.69975   0.00000  Uiso   1.00
H911   H     0.09013   0.44574   0.68835   0.00000  Uiso   1.00
O912   O     0.31456   0.46439   0.98241   0.00000  Uiso   1.00
H913   H     0.32931   0.45060   0.50643   0.00000  Uiso   1.00
C914   C     0.12168   0.47505   0.58967   0.00000  Uiso   1.00
H915   H     0.12603   0.44568   0.60773   0.00000  Uiso   1.00
H916   H     0.09797   0.49725   0.61713   0.00000  Uiso   1.00
H917   H     0.10221   0.46586   0.56104   0.00000  Uiso   1.00
O918   O     0.04584   0.52975   0.91195   0.00000  Uiso   1.00
H919   H     0.03870   0.50313   0.89658   0.00000  Uiso   1.00
O920   O     0.11381   0.55729   0.55091   0.00000  Uiso   1.00
H921   H     0.08458   0.57508   0.56078   0.00000  Uiso   1.00
O922   O     0.20136   0.43795   0.87184   0.00000  Uiso   1.00
H923   H     0.23227   0.42230   0.86203   0.00000  Uiso   1.00
C924   C     0.50080   0.57913   0.74831   0.00000  Uiso   1.00
C925   C     0.48696   0.50747   0.98431   0.00000  Uiso   1.00
C926   C     0.49352   0.49089   0.93393   0.00000  Uiso   1.00
C927   C     0.52004   0.49640   0.51163   0.00000  Uiso   1.00
C928   C     0.56616   0.48134   0.98470   0.00000  Uiso   1.00
C929   C     0.57275   0.46469   0.93509   0.00000  Uiso   1.00
C930   C     0.53427   0.46479   0.91248   0.00000  Uiso   1.00
C931   C     0.50553   0.49290   0.56532   0.00000  Uiso   1.00
C932   C     0.59161   0.49137   0.56267   0.00000  Uiso   1.00
C933   C     0.45947   0.50119   0.90687   0.00000  Uiso   1.00
C934   C     0.52112   0.64608   0.77946   0.00000  Uiso   1.00
C935   C     0.47401   0.49883   0.84990   0.00000  Uiso   1.00
C936   C     0.52054   0.35535   0.78012   0.00000  Uiso   1.00
C937   C     0.50033   0.37597   0.74672   0.00000  Uiso   1.00
C938   C     0.48237   0.35414   0.71033   0.00000  Uiso   1.00
C939   C     0.48460   0.64382   0.70806   0.00000  Uiso   1.00
C940   C     0.50240   0.62362   0.74466   0.00000  Uiso   1.00
C941   C     0.63572   0.53059   0.77520   0.00000  Uiso   1.00
C942   C     0.35194   0.53055   0.77525   0.00000  Uiso   1.00
C943   C     0.36303   0.46896   0.72540   0.00000  Uiso   1.00
C944   C     0.64720   0.46923   0.72577   0.00000  Uiso   1.00
C945   C     0.49997   0.42072   0.74901   0.00000  Uiso   1.00
C946   C     0.52610   0.49866   0.64973   0.00000  Uiso   1.00
C947   C     0.60258   0.47897   0.50991   0.00000  Uiso   1.00
C948   C     0.54150   0.49494   0.59216   0.00000  Uiso   1.00
C949   C     0.41642   0.52276   0.93334   0.00000  Uiso   1.00
C950   C     0.41262   0.54108   0.98117   0.00000  Uiso   1.00
C951   C     0.44840   0.53529   0.50609   0.00000  Uiso   1.00
Cu952  Cu    0.45311   0.49999   0.75000   0.00000  Uiso   1.00
Cu953  Cu    0.54689   0.50001   0.75000   0.00000  Uiso   1.00
H954   H     0.53491   0.37229   0.80758   0.00000  Uiso   1.00
H955   H     0.61213   0.55508   0.79550   0.00000  Uiso   1.00
H956   H     0.36544   0.55497   0.79566   0.00000  Uiso   1.00
H957   H     0.63312   0.44477   0.70589   0.00000  Uiso   1.00
H958   H     0.60587   0.44823   0.91587   0.00000  Uiso   1.00
H959   H     0.38161   0.56056   0.99875   0.00000  Uiso   1.00
H960   H     0.53539   0.63051   0.80691   0.00000  Uiso   1.00
N961   N     0.38265   0.49999   0.74998   0.00000  Uiso   1.00
N962   N     0.61735   0.50002   0.74999   0.00000  Uiso   1.00
O963   O     0.46042   0.56011   0.75000   0.00000  Uiso   1.00
O964   O     0.53961   0.56012   0.75000   0.00000  Uiso   1.00
O965   O     0.44108   0.49998   0.82549   0.00000  Uiso   1.00
O966   O     0.52027   0.49999   0.82549   0.00000  Uiso   1.00
O967   O     0.46039   0.43988   0.74999   0.00000  Uiso   1.00
O968   O     0.53958   0.43989   0.74999   0.00000  Uiso   1.00
O969   O     0.47973   0.50001   0.67451   0.00000  Uiso   1.00
O970   O     0.55892   0.50002   0.67451   0.00000  Uiso   1.00
C971   C     0.63296   0.49977   0.58617   0.00000  Uiso   1.00
H972   H     0.62729   0.52975   0.60780   0.00000  Uiso   1.00
H973   H     0.63561   0.47425   0.61178   0.00000  Uiso   1.00
H974   H     0.33536   0.50307   0.55675   0.00000  Uiso   1.00
O975   O     0.46609   0.37653   0.67590   0.00000  Uiso   1.00
H976   H     0.44510   0.35895   0.66057   0.00000  Uiso   1.00
C977   C     0.47148   0.61985   0.66495   0.00000  Uiso   1.00
H978   H     0.43137   0.61993   0.67162   0.00000  Uiso   1.00
H979   H     0.48973   0.63409   0.62736   0.00000  Uiso   1.00
H980   H     0.48388   0.58740   0.66092   0.00000  Uiso   1.00
O981   O     0.38965   0.43631   0.69975   0.00000  Uiso   1.00
H982   H     0.42347   0.44574   0.68835   0.00000  Uiso   1.00
O983   O     0.64789   0.46439   0.98241   0.00000  Uiso   1.00
H984   H     0.66265   0.45060   0.50643   0.00000  Uiso   1.00
C985   C     0.45501   0.47505   0.58967   0.00000  Uiso   1.00
H986   H     0.45936   0.44568   0.60773   0.00000  Uiso   1.00
H987   H     0.43131   0.49725   0.61713   0.00000  Uiso   1.00
H988   H     0.43554   0.46586   0.56104   0.00000  Uiso   1.00
O989   O     0.37918   0.52975   0.91195   0.00000  Uiso   1.00
H990   H     0.37203   0.50313   0.89658   0.00000  Uiso   1.00
O991   O     0.44714   0.55729   0.55091   0.00000  Uiso   1.00
H992   H     0.41792   0.57508   0.56078   0.00000  Uiso   1.00
O993   O     0.53470   0.43795   0.87184   0.00000  Uiso   1.00
H994   H     0.56560   0.42230   0.86203   0.00000  Uiso   1.00
C995   C     0.83413   0.57913   0.74831   0.00000  Uiso   1.00
C996   C     0.82029   0.50747   0.98431   0.00000  Uiso   1.00
C997   C     0.82685   0.49089   0.93393   0.00000  Uiso   1.00
C998   C     0.85337   0.49640   0.51163   0.00000  Uiso   1.00
C999   C     0.89949   0.48134   0.98470   0.00000  Uiso   1.00
C1000  C     0.90608   0.46469   0.93509   0.00000  Uiso   1.00
C1001  C     0.86760   0.46479   0.91248   0.00000  Uiso   1.00
C1002  C     0.83886   0.49290   0.56532   0.00000  Uiso   1.00
C1003  C     0.92494   0.49137   0.56267   0.00000  Uiso   1.00
C1004  C     0.79281   0.50119   0.90687   0.00000  Uiso   1.00
C1005  C     0.85446   0.64608   0.77946   0.00000  Uiso   1.00
C1006  C     0.80734   0.49883   0.84990   0.00000  Uiso   1.00
C1007  C     0.85387   0.35535   0.78012   0.00000  Uiso   1.00
C1008  C     0.83366   0.37597   0.74672   0.00000  Uiso   1.00
C1009  C     0.81571   0.35414   0.71033   0.00000  Uiso   1.00
C1010  C     0.81793   0.64382   0.70806   0.00000  Uiso   1.00
C1011  C     0.83574   0.62362   0.74466   0.00000  Uiso   1.00
C1012  C     0.96905   0.53059   0.77520   0.00000  Uiso   1.00
C1013  C     0.68527   0.53055   0.77525   0.00000  Uiso   1.00
C1014  C     0.69636   0.46896   0.72540   0.00000  Uiso   1.00
C1015  C     0.98053   0.46923   0.72577   0.00000  Uiso   1.00
C1016  C     0.83331   0.42072   0.74901   0.00000  Uiso   1.00
C1017  C     0.85943   0.49866   0.64973   0.00000  Uiso   1.00
C1018  C     0.93591   0.47897   0.50991   0.00000  Uiso   1.00
C1019  C     0.87484   0.49494   0.59216   0.00000  Uiso   1.00
C1020  C     0.74975   0.52276   0.93334   0.00000  Uiso   1.00
C1021  C     0.74595   0.54108   0.98117   0.00000  Uiso   1.00
C1022  C     0.78173   0.53529   0.50609   0.00000  Uiso   1.00
Cu1023 Cu    0.78645   0.49999   0.75000   0.00000  Uiso   1.00
Cu1024 Cu    0.88022   0.50001   0.75000   0.00000  Uiso   1.00
H1025  H     0.86824   0.37229   0.80758   0.00000  Uiso   1.00
H1026  H     0.94547   0.55508   0.79550   0.00000  Uiso   1.00
H1027  H     0.69877   0.55497   0.79566   0.00000  Uiso   1.00
H1028  H     0.96646   0.44477   0.70589   0.00000  Uiso   1.00
H1029  H     0.93921   0.44823   0.91587   0.00000  Uiso   1.00
H1030  H     0.71494   0.56056   0.99875   0.00000  Uiso   1.00
H1031  H     0.86872   0.63051   0.80691   0.00000  Uiso   1.00
N1032  N     0.71598   0.49999   0.74998   0.00000  Uiso   1.00
N1033  N     0.95069   0.50002   0.74999   0.00000  Uiso   1.00
O1034  O     0.79375   0.56011   0.75000   0.00000  Uiso   1.00
O1035  O     0.87294   0.56012   0.75000   0.00000  Uiso   1.00
O1036  O     0.77441   0.49998   0.82549   0.00000  Uiso   1.00
O1037  O     0.85360   0.49999   0.82549   0.00000  Uiso   1.00
O1038  O     0.79373   0.43988   0.74999   0.00000  Uiso   1.00
O1039  O     0.87292   0.43989   0.74999   0.00000  Uiso   1.00
O1040  O     0.81306   0.50001   0.67451   0.00000  Uiso   1.00
O1041  O     0.89225   0.50002   0.67451   0.00000  Uiso   1.00
C1042  C     0.96630   0.49977   0.58617   0.00000  Uiso   1.00
H1043  H     0.96063   0.52975   0.60780   0.00000  Uiso   1.00
H1044  H     0.96894   0.47425   0.61178   0.00000  Uiso   1.00
H1045  H     0.66869   0.50307   0.55675   0.00000  Uiso   1.00
O1046  O     0.79942   0.37653   0.67590   0.00000  Uiso   1.00
H1047  H     0.77843   0.35895   0.66057   0.00000  Uiso   1.00
C1048  C     0.80481   0.61985   0.66495   0.00000  Uiso   1.00
H1049  H     0.76470   0.61993   0.67162   0.00000  Uiso   1.00
H1050  H     0.82306   0.63409   0.62736   0.00000  Uiso   1.00
H1051  H     0.81721   0.58740   0.66092   0.00000  Uiso   1.00
O1052  O     0.72299   0.43631   0.69975   0.00000  Uiso   1.00
H1053  H     0.75680   0.44574   0.68835   0.00000  Uiso   1.00
O1054  O     0.98122   0.46439   0.98241   0.00000  Uiso   1.00
H1055  H     0.99598   0.45060   0.50643   0.00000  Uiso   1.00
C1056  C     0.78834   0.47505   0.58967   0.00000  Uiso   1.00
H1057  H     0.79270   0.44568   0.60773   0.00000  Uiso   1.00
H1058  H     0.76464   0.49725   0.61713   0.00000  Uiso   1.00
H1059  H     0.76888   0.46586   0.56104   0.00000  Uiso   1.00
O1060  O     0.71251   0.52975   0.91195   0.00000  Uiso   1.00
H1061  H     0.70537   0.50313   0.89658   0.00000  Uiso   1.00
O1062  O     0.78047   0.55729   0.55091   0.00000  Uiso   1.00
H1063  H     0.75125   0.57508   0.56078   0.00000  Uiso   1.00
O1064  O     0.86803   0.43795   0.87184   0.00000  Uiso   1.00
H1065  H     0.89893   0.42230   0.86203   0.00000  Uiso   1.00
C1066  C     0.16747   0.91246   0.74831   0.00000  Uiso   1.00
C1067  C     0.15362   0.84080   0.98431   0.00000  Uiso   1.00
C1068  C     0.16019   0.82423   0.93393   0.00000  Uiso   1.00
C1069  C     0.18671   0.82974   0.51163   0.00000  Uiso   1.00
C1070  C     0.23283   0.81467   0.98470   0.00000  Uiso   1.00
C1071  C     0.23941   0.79802   0.93509   0.00000  Uiso   1.00
C1072  C     0.20094   0.79812   0.91248   0.00000  Uiso   1.00
C1073  C     0.17220   0.82623   0.56532   0.00000  Uiso   1.00
C1074  C     0.25828   0.82470   0.56267   0.00000  Uiso   1.00
C1075  C     0.12614   0.83452   0.90687   0.00000  Uiso   1.00
C1076  C     0.18779   0.97941   0.77946   0.00000  Uiso   1.00
C1077  C     0.14068   0.83217   0.84990   0.00000  Uiso   1.00
C1078  C     0.18720   0.68869   0.78012   0.00000  Uiso   1.00
C1079  C     0.16699   0.70930   0.74672   0.00000  Uiso   1.00
C1080  C     0.14904   0.68748   0.71033   0.00000  Uiso   1.00
C1081  C     0.15127   0.97715   0.70806   0.00000  Uiso   1.00
C1082  C     0.16907   0.95695   0.74466   0.00000  Uiso   1.00
C1083  C     0.30239   0.86392   0.77520   0.00000  Uiso   1.00
C1084  C     0.01860   0.86389   0.77525   0.00000  Uiso   1.00
C1085  C     0.02970   0.80229   0.72540   0.00000  Uiso   1.00
C1086  C     0.31386   0.80256   0.72577   0.00000  Uiso   1.00
C1087  C     0.16664   0.75405   0.74901   0.00000  Uiso   1.00
C1088  C     0.19276   0.83199   0.64973   0.00000  Uiso   1.00
C1089  C     0.26924   0.81230   0.50991   0.00000  Uiso   1.00
C1090  C     0.20817   0.82828   0.59216   0.00000  Uiso   1.00
C1091  C     0.08308   0.85609   0.93334   0.00000  Uiso   1.00
C1092  C     0.07929   0.87441   0.98117   0.00000  Uiso   1.00
C1093  C     0.11507   0.86862   0.50609   0.00000  Uiso   1.00
Cu1094 Cu    0.11978   0.83333   0.75000   0.00000  Uiso   1.00
Cu1095 Cu    0.21355   0.83334   0.75000   0.00000  Uiso   1.00
H1096  H     0.20158   0.70563   0.80758   0.00000  Uiso   1.00
H1097  H     0.27880   0.88842   0.79550   0.00000  Uiso   1.00
H1098  H     0.03211   0.88831   0.79566   0.00000  Uiso   1.00
H1099  H     0.29979   0.77811   0.70589   0.00000  Uiso   1.00
H1100  H     0.27254   0.78156   0.91587   0.00000  Uiso   1.00
H1101  H     0.04828   0.89390   0.99875   0.00000  Uiso   1.00
H1102  H     0.20206   0.96384   0.80691   0.00000  Uiso   1.00
N1103  N     0.04931   0.83332   0.74998   0.00000  Uiso   1.00
N1104  N     0.28402   0.83335   0.74999   0.00000  Uiso   1.00
O1105  O     0.12708   0.89345   0.75000   0.00000  Uiso   1.00
O1106  O     0.20627   0.89346   0.75000   0.00000  Uiso   1.00
O1107  O     0.10775   0.83332   0.82549   0.00000  Uiso   1.00
O1108  O     0.18694   0.83333   0.82549   0.00000  Uiso   1.00
O1109  O     0.12706   0.77321   0.74999   0.00000  Uiso   1.00
O1110  O     0.20625   0.77322   0.74999   0.00000  Uiso   1.00
O1111  O     0.14640   0.83334   0.67451   0.00000  Uiso   1.00
O1112  O     0.22559   0.83335   0.67451   0.00000  Uiso   1.00
C1113  C     0.29963   0.83310   0.58617   0.00000  Uiso   1.00
H1114  H     0.29396   0.86308   0.60780   0.00000  Uiso   1.00
H1115  H     0.30228   0.80758   0.61178   0.00000  Uiso   1.00
H1116  H     0.00203   0.83640   0.55675   0.00000  Uiso   1.00
O1117  O     0.13275   0.70987   0.67590   0.00000  Uiso   1.00
H1118  H     0.11177   0.69228   0.66057   0.00000  Uiso   1.00
C1119  C     0.13815   0.95318   0.66495   0.00000  Uiso   1.00
H1120  H     0.09804   0.95326   0.67162   0.00000  Uiso   1.00
H1121  H     0.15640   0.96743   0.62736   0.00000  Uiso   1.00
H1122  H     0.15055   0.92073   0.66092   0.00000  Uiso   1.00
O1123  O     0.05632   0.76964   0.69975   0.00000  Uiso   1.00
H1124  H     0.09013   0.77908   0.68835   0.00000  Uiso   1.00
O1125  O     0.31456   0.79772   0.98241   0.00000  Uiso   1.00
H1126  H     0.32931   0.78394   0.50643   0.00000  Uiso   1.00
C1127  C     0.12168   0.80838   0.58967   0.00000  Uiso   1.00
H1128  H     0.12603   0.77901   0.60773   0.00000  Uiso   1.00
H1129  H     0.09797   0.83058   0.61713   0.00000  Uiso   1.00
H1130  H     0.10221   0.79920   0.56104   0.00000  Uiso   1.00
O1131  O     0.04584   0.86308   0.91195   0.00000  Uiso   1.00
H1132  H     0.03870   0.83647   0.89658   0.00000  Uiso   1.00
O1133  O     0.11381   0.89062   0.55091   0.00000  Uiso   1.00
H1134  H     0.08458   0.90842   0.56078   0.00000  Uiso   1.00
O1135  O     0.20136   0.77128   0.87184   0.00000  Uiso   1.00
H1136  H     0.23227   0.75563   0.86203   0.00000  Uiso   1.00
C1137  C     0.50080   0.91246   0.74831   0.00000  Uiso   1.00
C1138  C     0.48696   0.84080   0.98431   0.00000  Uiso   1.00
C1139  C     0.49352   0.82423   0.93393   0.00000  Uiso   1.00
C1140  C     0.52004   0.82974   0.51163   0.00000  Uiso   1.00
C1141  C     0.56616   0.81467   0.98470   0.00000  Uiso   1.00
C1142  C     0.57275   0.79802   0.93509   0.00000  Uiso   1.00
C1143  C     0.53427   0.79812   0.91248   0.00000  Uiso   1.00
C1144  C     0.50553   0.82623   0.56532   0.00000  Uiso   1.00
C1145  C     0.59161   0.82470   0.56267   0.00000  Uiso   1.00
C1146  C     0.45947   0.83452   0.90687   0.00000  Uiso   1.00
C1147  C     0.52112   0.97941   0.77946   0.00000  Uiso   1.00
C1148  C     0.47401   0.83217   0.84990   0.00000  Uiso   1.00
C1149  C     0.52054   0.68869   0.78012   0.00000  Uiso   1.00
C1150  C     0.50033   0.70930   0.74672   0.00000  Uiso   1.00
C1151  C     0.48237   0.68748   0.71033   0.00000  Uiso   1.00
C1152  C     0.48460   0.97715   0.70806   0.00000  Uiso   1.00
C1153  C     0.50240   0.95695   0.74466   0.00000  Uiso   1.00
C1154  C     0.63572   0.86392   0.77520   0.00000  Uiso   1.00
C1155  C     0.35194   0.86389   0.77525   0.00000  Uiso   1.00
C1156  C     0.36303   0.80229   0.72540   0.00000  Uiso   1.00
C1157  C     0.64720   0.80256   0.72577   0.00000  Uiso   1.00
C1158  C     0.49997   0.75405   0.74901   0.00000  Uiso   1.00
C1159  C     0.52610   0.83199   0.64973   0.00000  Uiso   1.00
C1160  C     0.60258   0.81230   0.50991   0.00000  Uiso   1.00
C1161  C     0.54150   0.82828   0.59216   0.00000  Uiso   1.00
C1162  C     0.41642   0.85609   0.93334   0.00000  Uiso   1.00
C1163  C     0.41262   0.87441   0.98117   0.00000  Uiso   1.00
C1164  C     0.44840   0.86862   0.50609   0.00000  Uiso   1.00
Cu1165 Cu    0.45311   0.83333   0.75000   0.00000  Uiso   1.00
Cu1166 Cu    0.54689   0.83334   0.75000   0.00000  Uiso   1.00
H1167  H     0.53491   0.70563   0.80758   0.00000  Uiso   1.00
H1168  H     0.61213   0.88842   0.79550   0.00000  Uiso   1.00
H1169  H     0.36544   0.88831   0.79566   0.00000  Uiso   1.00
H1170  H     0.63312   0.77811   0.70589   0.00000  Uiso   1.00
H1171  H     0.60587   0.78156   0.91587   0.00000  Uiso   1.00
H1172  H     0.38161   0.89390   0.99875   0.00000  Uiso   1.00
H1173  H     0.53539   0.96384   0.80691   0.00000  Uiso   1.00
N1174  N     0.38265   0.83332   0.74998   0.00000  Uiso   1.00
N1175  N     0.61735   0.83335   0.74999   0.00000  Uiso   1.00
O1176  O     0.46042   0.89345   0.75000   0.00000  Uiso   1.00
O1177  O     0.53961   0.89346   0.75000   0.00000  Uiso   1.00
O1178  O     0.44108   0.83332   0.82549   0.00000  Uiso   1.00
O1179  O     0.52027   0.83333   0.82549   0.00000  Uiso   1.00
O1180  O     0.46039   0.77321   0.74999   0.00000  Uiso   1.00
O1181  O     0.53958   0.77322   0.74999   0.00000  Uiso   1.00
O1182  O     0.47973   0.83334   0.67451   0.00000  Uiso   1.00
O1183  O     0.55892   0.83335   0.67451   0.00000  Uiso   1.00
C1184  C     0.63296   0.83310   0.58617   0.00000  Uiso   1.00
H1185  H     0.62729   0.86308   0.60780   0.00000  Uiso   1.00
H1186  H     0.63561   0.80758   0.61178   0.00000  Uiso   1.00
H1187  H     0.33536   0.83640   0.55675   0.00000  Uiso   1.00
O1188  O     0.46609   0.70987   0.67590   0.00000  Uiso   1.00
H1189  H     0.44510   0.69228   0.66057   0.00000  Uiso   1.00
C1190  C     0.47148   0.95318   0.66495   0.00000  Uiso   1.00
H1191  H     0.43137   0.95326   0.67162   0.00000  Uiso   1.00
H1192  H     0.48973   0.96743   0.62736   0.00000  Uiso   1.00
H1193  H     0.48388   0.92073   0.66092   0.00000  Uiso   1.00
O1194  O     0.38965   0.76964   0.69975   0.00000  Uiso   1.00
H1195  H     0.42347   0.77908   0.68835   0.00000  Uiso   1.00
O1196  O     0.64789   0.79772   0.98241   0.00000  Uiso   1.00
H1197  H     0.66265   0.78394   0.50643   0.00000  Uiso   1.00
C1198  C     0.45501   0.80838   0.58967   0.00000  Uiso   1.00
H1199  H     0.45936   0.77901   0.60773   0.00000  Uiso   1.00
H1200  H     0.43131   0.83058   0.61713   0.00000  Uiso   1.00
H1201  H     0.43554   0.79920   0.56104   0.00000  Uiso   1.00
O1202  O     0.37918   0.86308   0.91195   0.00000  Uiso   1.00
H1203  H     0.37203   0.83647   0.89658   0.00000  Uiso   1.00
O1204  O     0.44714   0.89062   0.55091   0.00000  Uiso   1.00
H1205  H     0.41792   0.90842   0.56078   0.00000  Uiso   1.00
O1206  O     0.53470   0.77128   0.87184   0.00000  Uiso   1.00
H1207  H     0.56560   0.75563   0.86203   0.00000  Uiso   1.00
C1208  C     0.83413   0.91246   0.74831   0.00000  Uiso   1.00
C1209  C     0.82029   0.84080   0.98431   0.00000  Uiso   1.00
C1210  C     0.82685   0.82423   0.93393   0.00000  Uiso   1.00
C1211  C     0.85337   0.82974   0.51163   0.00000  Uiso   1.00
C1212  C     0.89949   0.81467   0.98470   0.00000  Uiso   1.00
C1213  C     0.90608   0.79802   0.93509   0.00000  Uiso   1.00
C1214  C     0.86760   0.79812   0.91248   0.00000  Uiso   1.00
C1215  C     0.83886   0.82623   0.56532   0.00000  Uiso   1.00
C1216  C     0.92494   0.82470   0.56267   0.00000  Uiso   1.00
C1217  C     0.79281   0.83452   0.90687   0.00000  Uiso   1.00
C1218  C     0.85446   0.97941   0.77946   0.00000  Uiso   1.00
C1219  C     0.80734   0.83217   0.84990   0.00000  Uiso   1.00
C1220  C     0.85387   0.68869   0.78012   0.00000  Uiso   1.00
C1221  C     0.83366   0.70930   0.74672   0.00000  Uiso   1.00
C1222  C     0.81571   0.68748   0.71033   0.00000  Uiso   1.00
C1223  C     0.81793   0.97715   0.70806   0.00000  Uiso   1.00
C1224  C     0.83574   0.95695   0.74466   0.00000  Uiso   1.00
C1225  C     0.96905   0.86392   0.77520   0.00000  Uiso   1.00
C1226  C     0.68527   0.86389   0.77525   0.00000  Uiso   1.00
C1227  C     0.69636   0.80229   0.72540   0.00000  Uiso   1.00
C1228  C     0.98053   0.80256   0.72577   0.00000  Uiso   1.00
C1229  C     0.83331   0.75405   0.74901   0.00000  Uiso   1.00
C1230  C     0.85943   0.83199   0.64973   0.00000  Uiso   1.00
C1231  C     0.93591   0.81230   0.50991   0.00000  Uiso   1.00
C1232  C     0.87484   0.82828   0.59216   0.00000  Uiso   1.00
C1233  C     0.74975   0.85609   0.93334   0.00000  Uiso   1.00
C1234  C     0.74595   0.87441   0.98117   0.00000  Uiso   1.00
C1235  C     0.78173   0.86862   0.50609   0.00000  Uiso   1.00
Cu1236 Cu    0.78645   0.83333   0.75000   0.00000  Uiso   1.00
Cu1237 Cu    0.88022   0.83334   0.75000   0.00000  Uiso   1.00
H1238  H     0.86824   0.70563   0.80758   0.00000  Uiso   1.00
H1239  H     0.94547   0.88842   0.79550   0.00000  Uiso   1.00
H1240  H     0.69877   0.88831   0.79566   0.00000  Uiso   1.00
H1241  H     0.96646   0.77811   0.70589   0.00000  Uiso   1.00
H1242  H     0.93921   0.78156   0.91587   0.00000  Uiso   1.00
H1243  H     0.71494   0.89390   0.99875   0.00000  Uiso   1.00
H1244  H     0.86872   0.96384   0.80691   0.00000  Uiso   1.00
N1245  N     0.71598   0.83332   0.74998   0.00000  Uiso   1.00
N1246  N     0.95069   0.83335   0.74999   0.00000  Uiso   1.00
O1247  O     0.79375   0.89345   0.75000   0.00000  Uiso   1.00
O1248  O     0.87294   0.89346   0.75000   0.00000  Uiso   1.00
O1249  O     0.77441   0.83332   0.82549   0.00000  Uiso   1.00
O1250  O     0.85360   0.83333   0.82549   0.00000  Uiso   1.00
O1251  O     0.79373   0.77321   0.74999   0.00000  Uiso   1.00
O1252  O     0.87292   0.77322   0.74999   0.00000  Uiso   1.00
O1253  O     0.81306   0.83334   0.67451   0.00000  Uiso   1.00
O1254  O     0.89225   0.83335   0.67451   0.00000  Uiso   1.00
C1255  C     0.96630   0.83310   0.58617   0.00000  Uiso   1.00
H1256  H     0.96063   0.86308   0.60780   0.00000  Uiso   1.00
H1257  H     0.96894   0.80758   0.61178   0.00000  Uiso   1.00
H1258  H     0.66869   0.83640   0.55675   0.00000  Uiso   1.00
O1259  O     0.79942   0.70987   0.67590   0.00000  Uiso   1.00
H1260  H     0.77843   0.69228   0.66057   0.00000  Uiso   1.00
C1261  C     0.80481   0.95318   0.66495   0.00000  Uiso   1.00
H1262  H     0.76470   0.95326   0.67162   0.00000  Uiso   1.00
H1263  H     0.82306   0.96743   0.62736   0.00000  Uiso   1.00
H1264  H     0.81721   0.92073   0.66092   0.00000  Uiso   1.00
O1265  O     0.72299   0.76964   0.69975   0.00000  Uiso   1.00
H1266  H     0.75680   0.77908   0.68835   0.00000  Uiso   1.00
O1267  O     0.98122   0.79772   0.98241   0.00000  Uiso   1.00
H1268  H     0.99598   0.78394   0.50643   0.00000  Uiso   1.00
C1269  C     0.78834   0.80838   0.58967   0.00000  Uiso   1.00
H1270  H     0.79270   0.77901   0.60773   0.00000  Uiso   1.00
H1271  H     0.76464   0.83058   0.61713   0.00000  Uiso   1.00
H1272  H     0.76888   0.79920   0.56104   0.00000  Uiso   1.00
O1273  O     0.71251   0.86308   0.91195   0.00000  Uiso   1.00
H1274  H     0.70537   0.83647   0.89658   0.00000  Uiso   1.00
O1275  O     0.78047   0.89062   0.55091   0.00000  Uiso   1.00
H1276  H     0.75125   0.90842   0.56078   0.00000  Uiso   1.00
O1277  O     0.86803   0.77128   0.87184   0.00000  Uiso   1.00
H1278  H     0.89893   0.75563   0.86203   0.00000  Uiso   1.00
loop_
_geom_bond_atom_site_label_1
_geom_bond_atom_site_label_2
_geom_bond_distance
_geom_bond_site_symmetry_2
_ccdc_geom_bond_type
C1     C17     1.445   .     S
C1     O41     1.292   .     A
C1     O40     1.290   .     A
C2     C3      1.416   .     A
C2     C643    1.415   .     S
C2     C667    1.418   .     S
C3     C10     1.426   .     A
C3     C7      1.426   .     A
C4     C8      1.401   .     A
C4     C641    1.415   1_554 S
C4     C644    1.402   1_554 S
C5     C6      1.398   .     A
C5     C643    1.402   .     S
C5     C663    1.405   .     S
C6     H35     1.083   .     S
C6     C7      1.406   .     A
C7     O70     1.382   .     S
C8     C25     1.421   .     A
C8     C62     1.518   .     S
C9     C25     1.433   .     A
C9     C24     1.421   .     A
C9     C48     1.515   .     S
C10    C26     1.421   .     A
C10    C12     1.479   .     S
C11    H37     1.084   .     S
C11    C17     1.395   .     A
C11    C226    1.379   .     S
C12    O43     1.300   .     A
C12    O42     1.300   .     A
C13    C14     1.395   .     A
C13    H31     1.082   .     S
C13    C437    1.379   1_545 S
C14    C22     1.448   .     S
C14    C15     1.406   .     A
C15    O52     1.382   .     S
C15    C442    1.415   1_545 S
C16    C54     1.517   .     S
C16    C17     1.417   .     A
C16    C228    1.415   .     S
C18    N39     1.369   .     A
C18    H32     1.082   .     S
C18    C90     1.419   .     S
C19    N38     1.367   .     A
C19    H33     1.081   .     S
C19    C160    1.419   1_455 S
C20    N38     1.389   .     A
C20    O58     1.366   .     S
C20    C163    1.405   1_455 S
C21    N39     1.352   .     A
C21    H34     1.082   .     S
C21    C91     1.405   .     S
C22    O45     1.290   .     A
C22    O44     1.295   .     A
C23    C25     1.496   .     S
C23    O47     1.302   .     A
C23    O46     1.305   .     A
C24    C644    1.405   1_554 S
C24    O699    1.382   1_554 S
C26    C27     1.387   .     A
C26    O66     1.377   .     S
C27    H36     1.084   .     S
C27    C667    1.397   .     S
C28    O68     1.383   .     S
C28    C641    1.418   1_554 S
C28    C666    1.397   1_554 S
Cu29   N38     2.018   .     S
Cu29   O46     1.967   .     S
Cu29   Cu30    2.685   .     S
Cu29   O40     1.954   .     S
Cu29   O44     1.961   .     S
Cu29   O42     1.974   .     S
Cu30   O41     1.961   .     S
Cu30   O45     1.954   .     S
Cu30   N39     2.018   .     S
Cu30   O43     1.967   .     S
Cu30   O47     1.974   .     S
C48    H50     1.110   .     S
C48    H49     1.110   .     S
C48    H122    1.107   .     S
H51    C190    1.107   1_455 S
O52    H53     0.988   .     S
C54    H56     1.111   .     S
C54    H55     1.110   .     S
C54    H57     1.107   .     S
O58    H59     0.974   .     S
O60    C663    1.382   .     S
O60    H700    0.990   .     S
H61    O699    0.990   1_554 S
C62    H63     1.106   .     S
C62    H65     1.110   .     S
C62    H64     1.109   .     S
O66    H67     0.991   .     S
O68    H69     0.992   .     S
O70    H71     0.992   .     S
C72    C88     1.445   .     S
C72    O112    1.292   .     A
C72    O111    1.290   .     A
C73    C74     1.416   .     A
C73    C714    1.415   .     S
C73    C738    1.418   .     S
C74    C81     1.426   .     A
C74    C78     1.426   .     A
C75    C79     1.401   .     A
C75    C712    1.415   1_554 S
C75    C715    1.402   1_554 S
C76    C77     1.398   .     A
C76    C714    1.402   .     S
C76    C734    1.405   .     S
C77    H106    1.083   .     S
C77    C78     1.406   .     A
C78    O141    1.382   .     S
C79    C96     1.421   .     A
C79    C133    1.518   .     S
C80    C96     1.433   .     A
C80    C95     1.421   .     A
C80    C119    1.515   .     S
C81    C97     1.421   .     A
C81    C83     1.479   .     S
C82    H108    1.084   .     S
C82    C88     1.395   .     A
C82    C297    1.379   .     S
C83    O114    1.300   .     A
C83    O113    1.300   .     A
C84    C85     1.395   .     A
C84    H102    1.082   .     S
C84    C508    1.379   1_545 S
C85    C93     1.448   .     S
C85    C86     1.406   .     A
C86    O123    1.382   .     S
C86    C513    1.415   1_545 S
C87    C125    1.517   .     S
C87    C88     1.417   .     A
C87    C299    1.415   .     S
C89    N110    1.369   .     A
C89    H103    1.082   .     S
C89    C161    1.419   .     S
C90    N109    1.367   .     A
C90    H104    1.081   .     S
C91    N109    1.389   .     A
C91    O129    1.366   .     S
C92    N110    1.352   .     A
C92    H105    1.082   .     S
C92    C162    1.405   .     S
C93    O116    1.290   .     A
C93    O115    1.295   .     A
C94    C96     1.496   .     S
C94    O118    1.302   .     A
C94    O117    1.305   .     A
C95    C715    1.405   1_554 S
C95    O770    1.382   1_554 S
C97    C98     1.387   .     A
C97    O137    1.377   .     S
C98    H107    1.084   .     S
C98    C738    1.397   .     S
C99    O139    1.383   .     S
C99    C712    1.418   1_554 S
C99    C737    1.397   1_554 S
Cu100  N109    2.018   .     S
Cu100  O117    1.967   .     S
Cu100  Cu101   2.685   .     S
Cu100  O111    1.954   .     S
Cu100  O115    1.961   .     S
Cu100  O113    1.974   .     S
Cu101  O112    1.961   .     S
Cu101  O116    1.954   .     S
Cu101  N110    2.018   .     S
Cu101  O114    1.967   .     S
Cu101  O118    1.974   .     S
C119   H121    1.110   .     S
C119   H120    1.110   .     S
C119   H193    1.107   .     S
O123   H124    0.988   .     S
C125   H127    1.111   .     S
C125   H126    1.110   .     S
C125   H128    1.107   .     S
O129   H130    0.974   .     S
O131   C734    1.382   .     S
O131   H771    0.990   .     S
H132   O770    0.990   1_554 S
C133   H134    1.106   .     S
C133   H136    1.110   .     S
C133   H135    1.109   .     S
O137   H138    0.991   .     S
O139   H140    0.992   .     S
O141   H142    0.992   .     S
C143   C159    1.445   .     S
C143   O183    1.292   .     A
C143   O182    1.290   .     A
C144   C145    1.416   .     A
C144   C785    1.415   .     S
C144   C809    1.418   .     S
C145   C152    1.426   .     A
C145   C149    1.426   .     A
C146   C150    1.401   .     A
C146   C783    1.415   1_554 S
C146   C786    1.402   1_554 S
C147   C148    1.398   .     A
C147   C785    1.402   .     S
C147   C805    1.405   .     S
C148   H177    1.083   .     S
C148   C149    1.406   .     A
C149   O212    1.382   .     S
C150   C167    1.421   .     A
C150   C204    1.518   .     S
C151   C167    1.433   .     A
C151   C166    1.421   .     A
C151   C190    1.515   .     S
C152   C168    1.421   .     A
C152   C154    1.479   .     S
C153   H179    1.084   .     S
C153   C159    1.395   .     A
C153   C368    1.379   .     S
C154   O185    1.300   .     A
C154   O184    1.300   .     A
C155   C156    1.395   .     A
C155   H173    1.082   .     S
C155   C579    1.379   1_545 S
C156   C164    1.448   .     S
C156   C157    1.406   .     A
C157   O194    1.382   .     S
C157   C584    1.415   1_545 S
C158   C196    1.517   .     S
C158   C159    1.417   .     A
C158   C370    1.415   .     S
C160   N181    1.369   .     A
C160   H174    1.082   .     S
C160   C19     1.419   1_655 S
C161   N180    1.367   .     A
C161   H175    1.081   .     S
C162   N180    1.389   .     A
C162   O200    1.366   .     S
C163   N181    1.352   .     A
C163   H176    1.082   .     S
C163   C20     1.405   1_655 S
C164   O187    1.290   .     A
C164   O186    1.295   .     A
C165   C167    1.496   .     S
C165   O189    1.302   .     A
C165   O188    1.305   .     A
C166   C786    1.405   1_554 S
C166   O841    1.382   1_554 S
C168   C169    1.387   .     A
C168   O208    1.377   .     S
C169   H178    1.084   .     S
C169   C809    1.397   .     S
C170   O210    1.383   .     S
C170   C783    1.418   1_554 S
C170   C808    1.397   1_554 S
Cu171  N180    2.018   .     S
Cu171  O188    1.967   .     S
Cu171  Cu172   2.685   .     S
Cu171  O182    1.954   .     S
Cu171  O186    1.961   .     S
Cu171  O184    1.974   .     S
Cu172  O183    1.961   .     S
Cu172  O187    1.954   .     S
Cu172  N181    2.018   .     S
Cu172  O185    1.967   .     S
Cu172  O189    1.974   .     S
C190   H192    1.110   .     S
C190   H191    1.110   .     S
C190   H51     1.107   1_655 S
O194   H195    0.988   .     S
C196   H198    1.111   .     S
C196   H197    1.110   .     S
C196   H199    1.107   .     S
O200   H201    0.974   .     S
O202   C805    1.382   .     S
O202   H842    0.990   .     S
H203   O841    0.990   1_554 S
C204   H205    1.106   .     S
C204   H207    1.110   .     S
C204   H206    1.109   .     S
O208   H209    0.991   .     S
O210   H211    0.992   .     S
O212   H213    0.992   .     S
C214   C230    1.445   .     S
C214   O254    1.292   .     A
C214   O253    1.290   .     A
C215   C216    1.416   .     A
C215   C856    1.415   .     S
C215   C880    1.418   .     S
C216   C223    1.426   .     A
C216   C220    1.426   .     A
C217   C221    1.401   .     A
C217   C854    1.415   1_554 S
C217   C857    1.402   1_554 S
C218   C219    1.398   .     A
C218   C856    1.402   .     S
C218   C876    1.405   .     S
C219   H248    1.083   .     S
C219   C220    1.406   .     A
C220   O283    1.382   .     S
C221   C238    1.421   .     A
C221   C275    1.518   .     S
C222   C238    1.433   .     A
C222   C237    1.421   .     A
C222   C261    1.515   .     S
C223   C239    1.421   .     A
C223   C225    1.479   .     S
C224   H250    1.084   .     S
C224   C230    1.395   .     A
C224   C439    1.379   .     S
C225   O256    1.300   .     A
C225   O255    1.300   .     A
C226   C227    1.395   .     A
C226   H244    1.082   .     S
C227   C235    1.448   .     S
C227   C228    1.406   .     A
C228   O265    1.382   .     S
C229   C267    1.517   .     S
C229   C230    1.417   .     A
C229   C441    1.415   .     S
C231   N252    1.369   .     A
C231   H245    1.082   .     S
C231   C303    1.419   .     S
C232   N251    1.367   .     A
C232   H246    1.081   .     S
C232   C373    1.419   1_455 S
C233   N251    1.389   .     A
C233   O271    1.366   .     S
C233   C376    1.405   1_455 S
C234   N252    1.352   .     A
C234   H247    1.082   .     S
C234   C304    1.405   .     S
C235   O258    1.290   .     A
C235   O257    1.295   .     A
C236   C238    1.496   .     S
C236   O260    1.302   .     A
C236   O259    1.305   .     A
C237   C857    1.405   1_554 S
C237   O912    1.382   1_554 S
C239   C240    1.387   .     A
C239   O279    1.377   .     S
C240   H249    1.084   .     S
C240   C880    1.397   .     S
C241   O281    1.383   .     S
C241   C854    1.418   1_554 S
C241   C879    1.397   1_554 S
Cu242  N251    2.018   .     S
Cu242  O259    1.967   .     S
Cu242  Cu243   2.685   .     S
Cu242  O253    1.954   .     S
Cu242  O257    1.961   .     S
Cu242  O255    1.974   .     S
Cu243  O254    1.961   .     S
Cu243  O258    1.954   .     S
Cu243  N252    2.018   .     S
Cu243  O256    1.967   .     S
Cu243  O260    1.974   .     S
C261   H263    1.110   .     S
C261   H262    1.110   .     S
C261   H335    1.107   .     S
H264   C403    1.107   1_455 S
O265   H266    0.988   .     S
C267   H269    1.111   .     S
C267   H268    1.110   .     S
C267   H270    1.107   .     S
O271   H272    0.974   .     S
O273   C876    1.382   .     S
O273   H913    0.990   .     S
H274   O912    0.990   1_554 S
C275   H276    1.106   .     S
C275   H278    1.110   .     S
C275   H277    1.109   .     S
O279   H280    0.991   .     S
O281   H282    0.992   .     S
O283   H284    0.992   .     S
C285   C301    1.445   .     S
C285   O325    1.292   .     A
C285   O324    1.290   .     A
C286   C287    1.416   .     A
C286   C927    1.415   .     S
C286   C951    1.418   .     S
C287   C294    1.426   .     A
C287   C291    1.426   .     A
C288   C292    1.401   .     A
C288   C925    1.415   1_554 S
C288   C928    1.402   1_554 S
C289   C290    1.398   .     A
C289   C927    1.402   .     S
C289   C947    1.405   .     S
C290   H319    1.083   .     S
C290   C291    1.406   .     A
C291   O354    1.382   .     S
C292   C309    1.421   .     A
C292   C346    1.518   .     S
C293   C309    1.433   .     A
C293   C308    1.421   .     A
C293   C332    1.515   .     S
C294   C310    1.421   .     A
C294   C296    1.479   .     S
C295   H321    1.084   .     S
C295   C301    1.395   .     A
C295   C510    1.379   .     S
C296   O327    1.300   .     A
C296   O326    1.300   .     A
C297   C298    1.395   .     A
C297   H315    1.082   .     S
C298   C306    1.448   .     S
C298   C299    1.406   .     A
C299   O336    1.382   .     S
C300   C338    1.517   .     S
C300   C301    1.417   .     A
C300   C512    1.415   .     S
C302   N323    1.369   .     A
C302   H316    1.082   .     S
C302   C374    1.419   .     S
C303   N322    1.367   .     A
C303   H317    1.081   .     S
C304   N322    1.389   .     A
C304   O342    1.366   .     S
C305   N323    1.352   .     A
C305   H318    1.082   .     S
C305   C375    1.405   .     S
C306   O329    1.290   .     A
C306   O328    1.295   .     A
C307   C309    1.496   .     S
C307   O331    1.302   .     A
C307   O330    1.305   .     A
C308   C928    1.405   1_554 S
C308   O983    1.382   1_554 S
C310   C311    1.387   .     A
C310   O350    1.377   .     S
C311   H320    1.084   .     S
C311   C951    1.397   .     S
C312   O352    1.383   .     S
C312   C925    1.418   1_554 S
C312   C950    1.397   1_554 S
Cu313  N322    2.018   .     S
Cu313  O330    1.967   .     S
Cu313  Cu314   2.685   .     S
Cu313  O324    1.954   .     S
Cu313  O328    1.961   .     S
Cu313  O326    1.974   .     S
Cu314  O325    1.961   .     S
Cu314  O329    1.954   .     S
Cu314  N323    2.018   .     S
Cu314  O327    1.967   .     S
Cu314  O331    1.974   .     S
C332   H334    1.110   .     S
C332   H333    1.110   .     S
C332   H406    1.107   .     S
O336   H337    0.988   .     S
C338   H340    1.111   .     S
C338   H339    1.110   .     S
C338   H341    1.107   .     S
O342   H343    0.974   .     S
O344   C947    1.382   .     S
O344   H984    0.990   .     S
H345   O983    0.990   1_554 S
C346   H347    1.106   .     S
C346   H349    1.110   .     S
C346   H348    1.109   .     S
O350   H351    0.991   .     S
O352   H353    0.992   .     S
O354   H355    0.992   .     S
C356   C372    1.445   .     S
C356   O396    1.292   .     A
C356   O395    1.290   .     A
C357   C358    1.416   .     A
C357   C998    1.415   .     S
C357   C1022   1.418   .     S
C358   C365    1.426   .     A
C358   C362    1.426   .     A
C359   C363    1.401   .     A
C359   C996    1.415   1_554 S
C359   C999    1.402   1_554 S
C360   C361    1.398   .     A
C360   C998    1.402   .     S
C360   C1018   1.405   .     S
C361   H390    1.083   .     S
C361   C362    1.406   .     A
C362   O425    1.382   .     S
C363   C380    1.421   .     A
C363   C417    1.518   .     S
C364   C380    1.433   .     A
C364   C379    1.421   .     A
C364   C403    1.515   .     S
C365   C381    1.421   .     A
C365   C367    1.479   .     S
C366   H392    1.084   .     S
C366   C372    1.395   .     A
C366   C581    1.379   .     S
C367   O398    1.300   .     A
C367   O397    1.300   .     A
C368   C369    1.395   .     A
C368   H386    1.082   .     S
C369   C377    1.448   .     S
C369   C370    1.406   .     A
C370   O407    1.382   .     S
C371   C409    1.517   .     S
C371   C372    1.417   .     A
C371   C583    1.415   .     S
C373   N394    1.369   .     A
C373   H387    1.082   .     S
C373   C232    1.419   1_655 S
C374   N393    1.367   .     A
C374   H388    1.081   .     S
C375   N393    1.389   .     A
C375   O413    1.366   .     S
C376   N394    1.352   .     A
C376   H389    1.082   .     S
C376   C233    1.405   1_655 S
C377   O400    1.290   .     A
C377   O399    1.295   .     A
C378   C380    1.496   .     S
C378   O402    1.302   .     A
C378   O401    1.305   .     A
C379   C999    1.405   1_554 S
C379   O1054   1.382   1_554 S
C381   C382    1.387   .     A
C381   O421    1.377   .     S
C382   H391    1.084   .     S
C382   C1022   1.397   .     S
C383   O423    1.383   .     S
C383   C996    1.418   1_554 S
C383   C1021   1.397   1_554 S
Cu384  N393    2.018   .     S
Cu384  O401    1.967   .     S
Cu384  Cu385   2.685   .     S
Cu384  O395    1.954   .     S
Cu384  O399    1.961   .     S
Cu384  O397    1.974   .     S
Cu385  O396    1.961   .     S
Cu385  O400    1.954   .     S
Cu385  N394    2.018   .     S
Cu385  O398    1.967   .     S
Cu385  O402    1.974   .     S
C403   H405    1.110   .     S
C403   H404    1.110   .     S
C403   H264    1.107   1_655 S
O407   H408    0.988   .     S
C409   H411    1.111   .     S
C409   H410    1.110   .     S
C409   H412    1.107   .     S
O413   H414    0.974   .     S
O415   C1018   1.382   .     S
O415   H1055   0.990   .     S
H416   O1054   0.990   1_554 S
C417   H418    1.106   .     S
C417   H420    1.110   .     S
C417   H419    1.109   .     S
O421   H422    0.991   .     S
O423   H424    0.992   .     S
O425   H426    0.992   .     S
C427   C443    1.445   .     S
C427   O467    1.292   .     A
C427   O466    1.290   .     A
C428   C429    1.416   .     A
C428   C1069   1.415   .     S
C428   C1093   1.418   .     S
C429   C436    1.426   .     A
C429   C433    1.426   .     A
C430   C434    1.401   .     A
C430   C1067   1.415   1_554 S
C430   C1070   1.402   1_554 S
C431   C432    1.398   .     A
C431   C1069   1.402   .     S
C431   C1089   1.405   .     S
C432   H461    1.083   .     S
C432   C433    1.406   .     A
C433   O496    1.382   .     S
C434   C451    1.421   .     A
C434   C488    1.518   .     S
C435   C451    1.433   .     A
C435   C450    1.421   .     A
C435   C474    1.515   .     S
C436   C452    1.421   .     A
C436   C438    1.479   .     S
C437   H463    1.084   .     S
C437   C443    1.395   .     A
C437   C13     1.379   1_565 S
C438   O469    1.300   .     A
C438   O468    1.300   .     A
C439   C440    1.395   .     A
C439   H457    1.082   .     S
C440   C448    1.448   .     S
C440   C441    1.406   .     A
C441   O478    1.382   .     S
C442   C480    1.517   .     S
C442   C443    1.417   .     A
C442   C15     1.415   1_565 S
C444   N465    1.369   .     A
C444   H458    1.082   .     S
C444   C516    1.419   .     S
C445   N464    1.367   .     A
C445   H459    1.081   .     S
C445   C586    1.419   1_455 S
C446   N464    1.389   .     A
C446   O484    1.366   .     S
C446   C589    1.405   1_455 S
C447   N465    1.352   .     A
C447   H460    1.082   .     S
C447   C517    1.405   .     S
C448   O471    1.290   .     A
C448   O470    1.295   .     A
C449   C451    1.496   .     S
C449   O473    1.302   .     A
C449   O472    1.305   .     A
C450   C1070   1.405   1_554 S
C450   O1125   1.382   1_554 S
C452   C453    1.387   .     A
C452   O492    1.377   .     S
C453   H462    1.084   .     S
C453   C1093   1.397   .     S
C454   O494    1.383   .     S
C454   C1067   1.418   1_554 S
C454   C1092   1.397   1_554 S
Cu455  N464    2.018   .     S
Cu455  O472    1.967   .     S
Cu455  Cu456   2.685   .     S
Cu455  O466    1.954   .     S
Cu455  O470    1.961   .     S
Cu455  O468    1.974   .     S
Cu456  O467    1.961   .     S
Cu456  O471    1.954   .     S
Cu456  N465    2.018   .     S
Cu456  O469    1.967   .     S
Cu456  O473    1.974   .     S
C474   H476    1.110   .     S
C474   H475    1.110   .     S
C474   H548    1.107   .     S
H477   C616    1.107   1_455 S
O478   H479    0.988   .     S
C480   H482    1.111   .     S
C480   H481    1.110   .     S
C480   H483    1.107   .     S
O484   H485    0.974   .     S
O486   C1089   1.382   .     S
O486   H1126   0.990   .     S
H487   O1125   0.990   1_554 S
C488   H489    1.106   .     S
C488   H491    1.110   .     S
C488   H490    1.109   .     S
O492   H493    0.991   .     S
O494   H495    0.992   .     S
O496   H497    0.992   .     S
C498   C514    1.445   .     S
C498   O538    1.292   .     A
C498   O537    1.290   .     A
C499   C500    1.416   .     A
C499   C1140   1.415   .     S
C499   C1164   1.418   .     S
C500   C507    1.426   .     A
C500   C504    1.426   .     A
C501   C505    1.401   .     A
C501   C1138   1.415   1_554 S
C501   C1141   1.402   1_554 S
C502   C503    1.398   .     A
C502   C1140   1.402   .     S
C502   C1160   1.405   .     S
C503   H532    1.083   .     S
C503   C504    1.406   .     A
C504   O567    1.382   .     S
C505   C522    1.421   .     A
C505   C559    1.518   .     S
C506   C522    1.433   .     A
C506   C521    1.421   .     A
C506   C545    1.515   .     S
C507   C523    1.421   .     A
C507   C509    1.479   .     S
C508   H534    1.084   .     S
C508   C514    1.395   .     A
C508   C84     1.379   1_565 S
C509   O540    1.300   .     A
C509   O539    1.300   .     A
C510   C511    1.395   .     A
C510   H528    1.082   .     S
C511   C519    1.448   .     S
C511   C512    1.406   .     A
C512   O549    1.382   .     S
C513   C551    1.517   .     S
C513   C514    1.417   .     A
C513   C86     1.415   1_565 S
C515   N536    1.369   .     A
C515   H529    1.082   .     S
C515   C587    1.419   .     S
C516   N535    1.367   .     A
C516   H530    1.081   .     S
C517   N535    1.389   .     A
C517   O555    1.366   .     S
C518   N536    1.352   .     A
C518   H531    1.082   .     S
C518   C588    1.405   .     S
C519   O542    1.290   .     A
C519   O541    1.295   .     A
C520   C522    1.496   .     S
C520   O544    1.302   .     A
C520   O543    1.305   .     A
C521   C1141   1.405   1_554 S
C521   O1196   1.382   1_554 S
C523   C524    1.387   .     A
C523   O563    1.377   .     S
C524   H533    1.084   .     S
C524   C1164   1.397   .     S
C525   O565    1.383   .     S
C525   C1138   1.418   1_554 S
C525   C1163   1.397   1_554 S
Cu526  N535    2.018   .     S
Cu526  O543    1.967   .     S
Cu526  Cu527   2.685   .     S
Cu526  O537    1.954   .     S
Cu526  O541    1.961   .     S
Cu526  O539    1.974   .     S
Cu527  O538    1.961   .     S
Cu527  O542    1.954   .     S
Cu527  N536    2.018   .     S
Cu527  O540    1.967   .     S
Cu527  O544    1.974   .     S
C545   H547    1.110   .     S
C545   H546    1.110   .     S
C545   H619    1.107   .     S
O549   H550    0.988   .     S
C551   H553    1.111   .     S
C551   H552    1.110   .     S
C551   H554    1.107   .     S
O555   H556    0.974   .     S
O557   C1160   1.382   .     S
O557   H1197   0.990   .     S
H558   O1196   0.990   1_554 S
C559   H560    1.106   .     S
C559   H562    1.110   .     S
C559   H561    1.109   .     S
O563   H564    0.991   .     S
O565   H566    0.992   .     S
O567   H568    0.992   .     S
C569   C585    1.445   .     S
C569   O609    1.292   .     A
C569   O608    1.290   .     A
C570   C571    1.416   .     A
C570   C1211   1.415   .     S
C570   C1235   1.418   .     S
C571   C578    1.426   .     A
C571   C575    1.426   .     A
C572   C576    1.401   .     A
C572   C1209   1.415   1_554 S
C572   C1212   1.402   1_554 S
C573   C574    1.398   .     A
C573   C1211   1.402   .     S
C573   C1231   1.405   .     S
C574   H603    1.083   .     S
C574   C575    1.406   .     A
C575   O638    1.382   .     S
C576   C593    1.421   .     A
C576   C630    1.518   .     S
C577   C593    1.433   .     A
C577   C592    1.421   .     A
C577   C616    1.515   .     S
C578   C594    1.421   .     A
C578   C580    1.479   .     S
C579   H605    1.084   .     S
C579   C585    1.395   .     A
C579   C155    1.379   1_565 S
C580   O611    1.300   .     A
C580   O610    1.300   .     A
C581   C582    1.395   .     A
C581   H599    1.082   .     S
C582   C590    1.448   .     S
C582   C583    1.406   .     A
C583   O620    1.382   .     S
C584   C622    1.517   .     S
C584   C585    1.417   .     A
C584   C157    1.415   1_565 S
C586   N607    1.369   .     A
C586   H600    1.082   .     S
C586   C445    1.419   1_655 S
C587   N606    1.367   .     A
C587   H601    1.081   .     S
C588   N606    1.389   .     A
C588   O626    1.366   .     S
C589   N607    1.352   .     A
C589   H602    1.082   .     S
C589   C446    1.405   1_655 S
C590   O613    1.290   .     A
C590   O612    1.295   .     A
C591   C593    1.496   .     S
C591   O615    1.302   .     A
C591   O614    1.305   .     A
C592   C1212   1.405   1_554 S
C592   O1267   1.382   1_554 S
C594   C595    1.387   .     A
C594   O634    1.377   .     S
C595   H604    1.084   .     S
C595   C1235   1.397   .     S
C596   O636    1.383   .     S
C596   C1209   1.418   1_554 S
C596   C1234   1.397   1_554 S
Cu597  N606    2.018   .     S
Cu597  O614    1.967   .     S
Cu597  Cu598   2.685   .     S
Cu597  O608    1.954   .     S
Cu597  O612    1.961   .     S
Cu597  O610    1.974   .     S
Cu598  O609    1.961   .     S
Cu598  O613    1.954   .     S
Cu598  N607    2.018   .     S
Cu598  O611    1.967   .     S
Cu598  O615    1.974   .     S
C616   H618    1.110   .     S
C616   H617    1.110   .     S
C616   H477    1.107   1_655 S
O620   H621    0.988   .     S
C622   H624    1.111   .     S
C622   H623    1.110   .     S
C622   H625    1.107   .     S
O626   H627    0.974   .     S
O628   C1231   1.382   .     S
O628   H1268   0.990   .     S
H629   O1267   0.990   1_554 S
C630   H631    1.106   .     S
C630   H633    1.110   .     S
C630   H632    1.109   .     S
O634   H635    0.991   .     S
O636   H637    0.992   .     S
O638   H639    0.992   .     S
C640   C656    1.445   .     S
C640   O680    1.292   .     A
C640   O679    1.290   .     A
C641   C642    1.416   .     A
C641   C4      1.415   1_556 S
C641   C28     1.418   1_556 S
C642   C649    1.426   .     A
C642   C646    1.426   .     A
C643   C647    1.401   .     A
C644   C645    1.398   .     A
C644   C4      1.402   1_556 S
C644   C24     1.405   1_556 S
C645   H674    1.083   .     S
C645   C646    1.406   .     A
C646   O709    1.382   .     S
C647   C664    1.421   .     A
C647   C701    1.518   .     S
C648   C664    1.433   .     A
C648   C663    1.421   .     A
C648   C687    1.515   .     S
C649   C665    1.421   .     A
C649   C651    1.479   .     S
C650   H676    1.084   .     S
C650   C656    1.395   .     A
C650   C865    1.379   .     S
C651   O682    1.300   .     A
C651   O681    1.300   .     A
C652   C653    1.395   .     A
C652   H670    1.082   .     S
C652   C1076   1.379   1_545 S
C653   C661    1.448   .     S
C653   C654    1.406   .     A
C654   O691    1.382   .     S
C654   C1081   1.415   1_545 S
C655   C693    1.517   .     S
C655   C656    1.417   .     A
C655   C867    1.415   .     S
C657   N678    1.369   .     A
C657   H671    1.082   .     S
C657   C729    1.419   .     S
C658   N677    1.367   .     A
C658   H672    1.081   .     S
C658   C799    1.419   1_455 S
C659   N677    1.389   .     A
C659   O697    1.366   .     S
C659   C802    1.405   1_455 S
C660   N678    1.352   .     A
C660   H673    1.082   .     S
C660   C730    1.405   .     S
C661   O684    1.290   .     A
C661   O683    1.295   .     A
C662   C664    1.496   .     S
C662   O686    1.302   .     A
C662   O685    1.305   .     A
C665   C666    1.387   .     A
C665   O705    1.377   .     S
C666   H675    1.084   .     S
C666   C28     1.397   1_556 S
C667   O707    1.383   .     S
Cu668  N677    2.018   .     S
Cu668  O685    1.967   .     S
Cu668  Cu669   2.685   .     S
Cu668  O679    1.954   .     S
Cu668  O683    1.961   .     S
Cu668  O681    1.974   .     S
Cu669  O680    1.961   .     S
Cu669  O684    1.954   .     S
Cu669  N678    2.018   .     S
Cu669  O682    1.967   .     S
Cu669  O686    1.974   .     S
C687   H689    1.110   .     S
C687   H688    1.110   .     S
C687   H761    1.107   .     S
H690   C829    1.107   1_455 S
O691   H692    0.988   .     S
C693   H695    1.111   .     S
C693   H694    1.110   .     S
C693   H696    1.107   .     S
O697   H698    0.974   .     S
O699   C24     1.382   1_556 S
O699   H61     0.990   1_556 S
C701   H702    1.106   .     S
C701   H704    1.110   .     S
C701   H703    1.109   .     S
O705   H706    0.991   .     S
O707   H708    0.992   .     S
O709   H710    0.992   .     S
C711   C727    1.445   .     S
C711   O751    1.292   .     A
C711   O750    1.290   .     A
C712   C713    1.416   .     A
C712   C75     1.415   1_556 S
C712   C99     1.418   1_556 S
C713   C720    1.426   .     A
C713   C717    1.426   .     A
C714   C718    1.401   .     A
C715   C716    1.398   .     A
C715   C75     1.402   1_556 S
C715   C95     1.405   1_556 S
C716   H745    1.083   .     S
C716   C717    1.406   .     A
C717   O780    1.382   .     S
C718   C735    1.421   .     A
C718   C772    1.518   .     S
C719   C735    1.433   .     A
C719   C734    1.421   .     A
C719   C758    1.515   .     S
C720   C736    1.421   .     A
C720   C722    1.479   .     S
C721   H747    1.084   .     S
C721   C727    1.395   .     A
C721   C936    1.379   .     S
C722   O753    1.300   .     A
C722   O752    1.300   .     A
C723   C724    1.395   .     A
C723   H741    1.082   .     S
C723   C1147   1.379   1_545 S
C724   C732    1.448   .     S
C724   C725    1.406   .     A
C725   O762    1.382   .     S
C725   C1152   1.415   1_545 S
C726   C764    1.517   .     S
C726   C727    1.417   .     A
C726   C938    1.415   .     S
C728   N749    1.369   .     A
C728   H742    1.082   .     S
C728   C800    1.419   .     S
C729   N748    1.367   .     A
C729   H743    1.081   .     S
C730   N748    1.389   .     A
C730   O768    1.366   .     S
C731   N749    1.352   .     A
C731   H744    1.082   .     S
C731   C801    1.405   .     S
C732   O755    1.290   .     A
C732   O754    1.295   .     A
C733   C735    1.496   .     S
C733   O757    1.302   .     A
C733   O756    1.305   .     A
C736   C737    1.387   .     A
C736   O776    1.377   .     S
C737   H746    1.084   .     S
C737   C99     1.397   1_556 S
C738   O778    1.383   .     S
Cu739  N748    2.018   .     S
Cu739  O756    1.967   .     S
Cu739  Cu740   2.685   .     S
Cu739  O750    1.954   .     S
Cu739  O754    1.961   .     S
Cu739  O752    1.974   .     S
Cu740  O751    1.961   .     S
Cu740  O755    1.954   .     S
Cu740  N749    2.018   .     S
Cu740  O753    1.967   .     S
Cu740  O757    1.974   .     S
C758   H760    1.110   .     S
C758   H759    1.110   .     S
C758   H832    1.107   .     S
O762   H763    0.988   .     S
C764   H766    1.111   .     S
C764   H765    1.110   .     S
C764   H767    1.107   .     S
O768   H769    0.974   .     S
O770   C95     1.382   1_556 S
O770   H132    0.990   1_556 S
C772   H773    1.106   .     S
C772   H775    1.110   .     S
C772   H774    1.109   .     S
O776   H777    0.991   .     S
O778   H779    0.992   .     S
O780   H781    0.992   .     S
C782   C798    1.445   .     S
C782   O822    1.292   .     A
C782   O821    1.290   .     A
C783   C784    1.416   .     A
C783   C146    1.415   1_556 S
C783   C170    1.418   1_556 S
C784   C791    1.426   .     A
C784   C788    1.426   .     A
C785   C789    1.401   .     A
C786   C787    1.398   .     A
C786   C146    1.402   1_556 S
C786   C166    1.405   1_556 S
C787   H816    1.083   .     S
C787   C788    1.406   .     A
C788   O851    1.382   .     S
C789   C806    1.421   .     A
C789   C843    1.518   .     S
C790   C806    1.433   .     A
C790   C805    1.421   .     A
C790   C829    1.515   .     S
C791   C807    1.421   .     A
C791   C793    1.479   .     S
C792   H818    1.084   .     S
C792   C798    1.395   .     A
C792   C1007   1.379   .     S
C793   O824    1.300   .     A
C793   O823    1.300   .     A
C794   C795    1.395   .     A
C794   H812    1.082   .     S
C794   C1218   1.379   1_545 S
C795   C803    1.448   .     S
C795   C796    1.406   .     A
C796   O833    1.382   .     S
C796   C1223   1.415   1_545 S
C797   C835    1.517   .     S
C797   C798    1.417   .     A
C797   C1009   1.415   .     S
C799   N820    1.369   .     A
C799   H813    1.082   .     S
C799   C658    1.419   1_655 S
C800   N819    1.367   .     A
C800   H814    1.081   .     S
C801   N819    1.389   .     A
C801   O839    1.366   .     S
C802   N820    1.352   .     A
C802   H815    1.082   .     S
C802   C659    1.405   1_655 S
C803   O826    1.290   .     A
C803   O825    1.295   .     A
C804   C806    1.496   .     S
C804   O828    1.302   .     A
C804   O827    1.305   .     A
C807   C808    1.387   .     A
C807   O847    1.377   .     S
C808   H817    1.084   .     S
C808   C170    1.397   1_556 S
C809   O849    1.383   .     S
Cu810  N819    2.018   .     S
Cu810  O827    1.967   .     S
Cu810  Cu811   2.685   .     S
Cu810  O821    1.954   .     S
Cu810  O825    1.961   .     S
Cu810  O823    1.974   .     S
Cu811  O822    1.961   .     S
Cu811  O826    1.954   .     S
Cu811  N820    2.018   .     S
Cu811  O824    1.967   .     S
Cu811  O828    1.974   .     S
C829   H831    1.110   .     S
C829   H830    1.110   .     S
C829   H690    1.107   1_655 S
O833   H834    0.988   .     S
C835   H837    1.111   .     S
C835   H836    1.110   .     S
C835   H838    1.107   .     S
O839   H840    0.974   .     S
O841   C166    1.382   1_556 S
O841   H203    0.990   1_556 S
C843   H844    1.106   .     S
C843   H846    1.110   .     S
C843   H845    1.109   .     S
O847   H848    0.991   .     S
O849   H850    0.992   .     S
O851   H852    0.992   .     S
C853   C869    1.445   .     S
C853   O893    1.292   .     A
C853   O892    1.290   .     A
C854   C855    1.416   .     A
C854   C217    1.415   1_556 S
C854   C241    1.418   1_556 S
C855   C862    1.426   .     A
C855   C859    1.426   .     A
C856   C860    1.401   .     A
C857   C858    1.398   .     A
C857   C217    1.402   1_556 S
C857   C237    1.405   1_556 S
C858   H887    1.083   .     S
C858   C859    1.406   .     A
C859   O922    1.382   .     S
C860   C877    1.421   .     A
C860   C914    1.518   .     S
C861   C877    1.433   .     A
C861   C876    1.421   .     A
C861   C900    1.515   .     S
C862   C878    1.421   .     A
C862   C864    1.479   .     S
C863   H889    1.084   .     S
C863   C869    1.395   .     A
C863   C1078   1.379   .     S
C864   O895    1.300   .     A
C864   O894    1.300   .     A
C865   C866    1.395   .     A
C865   H883    1.082   .     S
C866   C874    1.448   .     S
C866   C867    1.406   .     A
C867   O904    1.382   .     S
C868   C906    1.517   .     S
C868   C869    1.417   .     A
C868   C1080   1.415   .     S
C870   N891    1.369   .     A
C870   H884    1.082   .     S
C870   C942    1.419   .     S
C871   N890    1.367   .     A
C871   H885    1.081   .     S
C871   C1012   1.419   1_455 S
C872   N890    1.389   .     A
C872   O910    1.366   .     S
C872   C1015   1.405   1_455 S
C873   N891    1.352   .     A
C873   H886    1.082   .     S
C873   C943    1.405   .     S
C874   O897    1.290   .     A
C874   O896    1.295   .     A
C875   C877    1.496   .     S
C875   O899    1.302   .     A
C875   O898    1.305   .     A
C878   C879    1.387   .     A
C878   O918    1.377   .     S
C879   H888    1.084   .     S
C879   C241    1.397   1_556 S
C880   O920    1.383   .     S
Cu881  N890    2.018   .     S
Cu881  O898    1.967   .     S
Cu881  Cu882   2.685   .     S
Cu881  O892    1.954   .     S
Cu881  O896    1.961   .     S
Cu881  O894    1.974   .     S
Cu882  O893    1.961   .     S
Cu882  O897    1.954   .     S
Cu882  N891    2.018   .     S
Cu882  O895    1.967   .     S
Cu882  O899    1.974   .     S
C900   H902    1.110   .     S
C900   H901    1.110   .     S
C900   H974    1.107   .     S
H903   C1042   1.107   1_455 S
O904   H905    0.988   .     S
C906   H908    1.111   .     S
C906   H907    1.110   .     S
C906   H909    1.107   .     S
O910   H911    0.974   .     S
O912   C237    1.382   1_556 S
O912   H274    0.990   1_556 S
C914   H915    1.106   .     S
C914   H917    1.110   .     S
C914   H916    1.109   .     S
O918   H919    0.991   .     S
O920   H921    0.992   .     S
O922   H923    0.992   .     S
C924   C940    1.445   .     S
C924   O964    1.292   .     A
C924   O963    1.290   .     A
C925   C926    1.416   .     A
C925   C288    1.415   1_556 S
C925   C312    1.418   1_556 S
C926   C933    1.426   .     A
C926   C930    1.426   .     A
C927   C931    1.401   .     A
C928   C929    1.398   .     A
C928   C288    1.402   1_556 S
C928   C308    1.405   1_556 S
C929   H958    1.083   .     S
C929   C930    1.406   .     A
C930   O993    1.382   .     S
C931   C948    1.421   .     A
C931   C985    1.518   .     S
C932   C948    1.433   .     A
C932   C947    1.421   .     A
C932   C971    1.515   .     S
C933   C949    1.421   .     A
C933   C935    1.479   .     S
C934   H960    1.084   .     S
C934   C940    1.395   .     A
C934   C1149   1.379   .     S
C935   O966    1.300   .     A
C935   O965    1.300   .     A
C936   C937    1.395   .     A
C936   H954    1.082   .     S
C937   C945    1.448   .     S
C937   C938    1.406   .     A
C938   O975    1.382   .     S
C939   C977    1.517   .     S
C939   C940    1.417   .     A
C939   C1151   1.415   .     S
C941   N962    1.369   .     A
C941   H955    1.082   .     S
C941   C1013   1.419   .     S
C942   N961    1.367   .     A
C942   H956    1.081   .     S
C943   N961    1.389   .     A
C943   O981    1.366   .     S
C944   N962    1.352   .     A
C944   H957    1.082   .     S
C944   C1014   1.405   .     S
C945   O968    1.290   .     A
C945   O967    1.295   .     A
C946   C948    1.496   .     S
C946   O970    1.302   .     A
C946   O969    1.305   .     A
C949   C950    1.387   .     A
C949   O989    1.377   .     S
C950   H959    1.084   .     S
C950   C312    1.397   1_556 S
C951   O991    1.383   .     S
Cu952  N961    2.018   .     S
Cu952  O969    1.967   .     S
Cu952  Cu953   2.685   .     S
Cu952  O963    1.954   .     S
Cu952  O967    1.961   .     S
Cu952  O965    1.974   .     S
Cu953  O964    1.961   .     S
Cu953  O968    1.954   .     S
Cu953  N962    2.018   .     S
Cu953  O966    1.967   .     S
Cu953  O970    1.974   .     S
C971   H973    1.110   .     S
C971   H972    1.110   .     S
C971   H1045   1.107   .     S
O975   H976    0.988   .     S
C977   H979    1.111   .     S
C977   H978    1.110   .     S
C977   H980    1.107   .     S
O981   H982    0.974   .     S
O983   C308    1.382   1_556 S
O983   H345    0.990   1_556 S
C985   H986    1.106   .     S
C985   H988    1.110   .     S
C985   H987    1.109   .     S
O989   H990    0.991   .     S
O991   H992    0.992   .     S
O993   H994    0.992   .     S
C995   C1011   1.445   .     S
C995   O1035   1.292   .     A
C995   O1034   1.290   .     A
C996   C997    1.416   .     A
C996   C359    1.415   1_556 S
C996   C383    1.418   1_556 S
C997   C1004   1.426   .     A
C997   C1001   1.426   .     A
C998   C1002   1.401   .     A
C999   C1000   1.398   .     A
C999   C359    1.402   1_556 S
C999   C379    1.405   1_556 S
C1000  H1029   1.083   .     S
C1000  C1001   1.406   .     A
C1001  O1064   1.382   .     S
C1002  C1019   1.421   .     A
C1002  C1056   1.518   .     S
C1003  C1019   1.433   .     A
C1003  C1018   1.421   .     A
C1003  C1042   1.515   .     S
C1004  C1020   1.421   .     A
C1004  C1006   1.479   .     S
C1005  H1031   1.084   .     S
C1005  C1011   1.395   .     A
C1005  C1220   1.379   .     S
C1006  O1037   1.300   .     A
C1006  O1036   1.300   .     A
C1007  C1008   1.395   .     A
C1007  H1025   1.082   .     S
C1008  C1016   1.448   .     S
C1008  C1009   1.406   .     A
C1009  O1046   1.382   .     S
C1010  C1048   1.517   .     S
C1010  C1011   1.417   .     A
C1010  C1222   1.415   .     S
C1012  N1033   1.369   .     A
C1012  H1026   1.082   .     S
C1012  C871    1.419   1_655 S
C1013  N1032   1.367   .     A
C1013  H1027   1.081   .     S
C1014  N1032   1.389   .     A
C1014  O1052   1.366   .     S
C1015  N1033   1.352   .     A
C1015  H1028   1.082   .     S
C1015  C872    1.405   1_655 S
C1016  O1039   1.290   .     A
C1016  O1038   1.295   .     A
C1017  C1019   1.496   .     S
C1017  O1041   1.302   .     A
C1017  O1040   1.305   .     A
C1020  C1021   1.387   .     A
C1020  O1060   1.377   .     S
C1021  H1030   1.084   .     S
C1021  C383    1.397   1_556 S
C1022  O1062   1.383   .     S
Cu1023 N1032   2.018   .     S
Cu1023 O1040   1.967   .     S
Cu1023 Cu1024  2.685   .     S
Cu1023 O1034   1.954   .     S
Cu1023 O1038   1.961   .     S
Cu1023 O1036   1.974   .     S
Cu1024 O1035   1.961   .     S
Cu1024 O1039   1.954   .     S
Cu1024 N1033   2.018   .     S
Cu1024 O1037   1.967   .     S
Cu1024 O1041   1.974   .     S
C1042  H1044   1.110   .     S
C1042  H1043   1.110   .     S
C1042  H903    1.107   1_655 S
O1046  H1047   0.988   .     S
C1048  H1050   1.111   .     S
C1048  H1049   1.110   .     S
C1048  H1051   1.107   .     S
O1052  H1053   0.974   .     S
O1054  C379    1.382   1_556 S
O1054  H416    0.990   1_556 S
C1056  H1057   1.106   .     S
C1056  H1059   1.110   .     S
C1056  H1058   1.109   .     S
O1060  H1061   0.991   .     S
O1062  H1063   0.992   .     S
O1064  H1065   0.992   .     S
C1066  C1082   1.445   .     S
C1066  O1106   1.292   .     A
C1066  O1105   1.290   .     A
C1067  C1068   1.416   .     A
C1067  C430    1.415   1_556 S
C1067  C454    1.418   1_556 S
C1068  C1075   1.426   .     A
C1068  C1072   1.426   .     A
C1069  C1073   1.401   .     A
C1070  C1071   1.398   .     A
C1070  C430    1.402   1_556 S
C1070  C450    1.405   1_556 S
C1071  H1100   1.083   .     S
C1071  C1072   1.406   .     A
C1072  O1135   1.382   .     S
C1073  C1090   1.421   .     A
C1073  C1127   1.518   .     S
C1074  C1090   1.433   .     A
C1074  C1089   1.421   .     A
C1074  C1113   1.515   .     S
C1075  C1091   1.421   .     A
C1075  C1077   1.479   .     S
C1076  H1102   1.084   .     S
C1076  C1082   1.395   .     A
C1076  C652    1.379   1_565 S
C1077  O1108   1.300   .     A
C1077  O1107   1.300   .     A
C1078  C1079   1.395   .     A
C1078  H1096   1.082   .     S
C1079  C1087   1.448   .     S
C1079  C1080   1.406   .     A
C1080  O1117   1.382   .     S
C1081  C1119   1.517   .     S
C1081  C1082   1.417   .     A
C1081  C654    1.415   1_565 S
C1083  N1104   1.369   .     A
C1083  H1097   1.082   .     S
C1083  C1155   1.419   .     S
C1084  N1103   1.367   .     A
C1084  H1098   1.081   .     S
C1084  C1225   1.419   1_455 S
C1085  N1103   1.389   .     A
C1085  O1123   1.366   .     S
C1085  C1228   1.405   1_455 S
C1086  N1104   1.352   .     A
C1086  H1099   1.082   .     S
C1086  C1156   1.405   .     S
C1087  O1110   1.290   .     A
C1087  O1109   1.295   .     A
C1088  C1090   1.496   .     S
C1088  O1112   1.302   .     A
C1088  O1111   1.305   .     A
C1091  C1092   1.387   .     A
C1091  O1131   1.377   .     S
C1092  H1101   1.084   .     S
C1092  C454    1.397   1_556 S
C1093  O1133   1.383   .     S
Cu1094 N1103   2.018   .     S
Cu1094 O1111   1.967   .     S
Cu1094 Cu1095  2.685   .     S
Cu1094 O1105   1.954   .     S
Cu1094 O1109   1.961   .     S
Cu1094 O1107   1.974   .     S
Cu1095 O1106   1.961   .     S
Cu1095 O1110   1.954   .     S
Cu1095 N1104   2.018   .     S
Cu1095 O1108   1.967   .     S
Cu1095 O1112   1.974   .     S
C1113  H1115   1.110   .     S
C1113  H1114   1.110   .     S
C1113  H1187   1.107   .     S
H1116  C1255   1.107   1_455 S
O1117  H1118   0.988   .     S
C1119  H1121   1.111   .     S
C1119  H1120   1.110   .     S
C1119  H1122   1.107   .     S
O1123  H1124   0.974   .     S
O1125  C450    1.382   1_556 S
O1125  H487    0.990   1_556 S
C1127  H1128   1.106   .     S
C1127  H1130   1.110   .     S
C1127  H1129   1.109   .     S
O1131  H1132   0.991   .     S
O1133  H1134   0.992   .     S
O1135  H1136   0.992   .     S
C1137  C1153   1.445   .     S
C1137  O1177   1.292   .     A
C1137  O1176   1.290   .     A
C1138  C1139   1.416   .     A
C1138  C501    1.415   1_556 S
C1138  C525    1.418   1_556 S
C1139  C1146   1.426   .     A
C1139  C1143   1.426   .     A
C1140  C1144   1.401   .     A
C1141  C1142   1.398   .     A
C1141  C501    1.402   1_556 S
C1141  C521    1.405   1_556 S
C1142  H1171   1.083   .     S
C1142  C1143   1.406   .     A
C1143  O1206   1.382   .     S
C1144  C1161   1.421   .     A
C1144  C1198   1.518   .     S
C1145  C1161   1.433   .     A
C1145  C1160   1.421   .     A
C1145  C1184   1.515   .     S
C1146  C1162   1.421   .     A
C1146  C1148   1.479   .     S
C1147  H1173   1.084   .     S
C1147  C1153   1.395   .     A
C1147  C723    1.379   1_565 S
C1148  O1179   1.300   .     A
C1148  O1178   1.300   .     A
C1149  C1150   1.395   .     A
C1149  H1167   1.082   .     S
C1150  C1158   1.448   .     S
C1150  C1151   1.406   .     A
C1151  O1188   1.382   .     S
C1152  C1190   1.517   .     S
C1152  C1153   1.417   .     A
C1152  C725    1.415   1_565 S
C1154  N1175   1.369   .     A
C1154  H1168   1.082   .     S
C1154  C1226   1.419   .     S
C1155  N1174   1.367   .     A
C1155  H1169   1.081   .     S
C1156  N1174   1.389   .     A
C1156  O1194   1.366   .     S
C1157  N1175   1.352   .     A
C1157  H1170   1.082   .     S
C1157  C1227   1.405   .     S
C1158  O1181   1.290   .     A
C1158  O1180   1.295   .     A
C1159  C1161   1.496   .     S
C1159  O1183   1.302   .     A
C1159  O1182   1.305   .     A
C1162  C1163   1.387   .     A
C1162  O1202   1.377   .     S
C1163  H1172   1.084   .     S
C1163  C525    1.397   1_556 S
C1164  O1204   1.383   .     S
Cu1165 N1174   2.018   .     S
Cu1165 O1182   1.967   .     S
Cu1165 Cu1166  2.685   .     S
Cu1165 O1176   1.954   .     S
Cu1165 O1180   1.961   .     S
Cu1165 O1178   1.974   .     S
Cu1166 O1177   1.961   .     S
Cu1166 O1181   1.954   .     S
Cu1166 N1175   2.018   .     S
Cu1166 O1179   1.967   .     S
Cu1166 O1183   1.974   .     S
C1184  H1186   1.110   .     S
C1184  H1185   1.110   .     S
C1184  H1258   1.107   .     S
O1188  H1189   0.988   .     S
C1190  H1192   1.111   .     S
C1190  H1191   1.110   .     S
C1190  H1193   1.107   .     S
O1194  H1195   0.974   .     S
O1196  C521    1.382   1_556 S
O1196  H558    0.990   1_556 S
C1198  H1199   1.106   .     S
C1198  H1201   1.110   .     S
C1198  H1200   1.109   .     S
O1202  H1203   0.991   .     S
O1204  H1205   0.992   .     S
O1206  H1207   0.992   .     S
C1208  C1224   1.445   .     S
C1208  O1248   1.292   .     A
C1208  O1247   1.290   .     A
C1209  C1210   1.416   .     A
C1209  C572    1.415   1_556 S
C1209  C596    1.418   1_556 S
C1210  C1217   1.426   .     A
C1210  C1214   1.426   .     A
C1211  C1215   1.401   .     A
C1212  C1213   1.398   .     A
C1212  C572    1.402   1_556 S
C1212  C592    1.405   1_556 S
C1213  H1242   1.083   .     S
C1213  C1214   1.406   .     A
C1214  O1277   1.382   .     S
C1215  C1232   1.421   .     A
C1215  C1269   1.518   .     S
C1216  C1232   1.433   .     A
C1216  C1231   1.421   .     A
C1216  C1255   1.515   .     S
C1217  C1233   1.421   .     A
C1217  C1219   1.479   .     S
C1218  H1244   1.084   .     S
C1218  C1224   1.395   .     A
C1218  C794    1.379   1_565 S
C1219  O1250   1.300   .     A
C1219  O1249   1.300   .     A
C1220  C1221   1.395   .     A
C1220  H1238   1.082   .     S
C1221  C1229   1.448   .     S
C1221  C1222   1.406   .     A
C1222  O1259   1.382   .     S
C1223  C1261   1.517   .     S
C1223  C1224   1.417   .     A
C1223  C796    1.415   1_565 S
C1225  N1246   1.369   .     A
C1225  H1239   1.082   .     S
C1225  C1084   1.419   1_655 S
C1226  N1245   1.367   .     A
C1226  H1240   1.081   .     S
C1227  N1245   1.389   .     A
C1227  O1265   1.366   .     S
C1228  N1246   1.352   .     A
C1228  H1241   1.082   .     S
C1228  C1085   1.405   1_655 S
C1229  O1252   1.290   .     A
C1229  O1251   1.295   .     A
C1230  C1232   1.496   .     S
C1230  O1254   1.302   .     A
C1230  O1253   1.305   .     A
C1233  C1234   1.387   .     A
C1233  O1273   1.377   .     S
C1234  H1243   1.084   .     S
C1234  C596    1.397   1_556 S
C1235  O1275   1.383   .     S
Cu1236 N1245   2.018   .     S
Cu1236 O1253   1.967   .     S
Cu1236 Cu1237  2.685   .     S
Cu1236 O1247   1.954   .     S
Cu1236 O1251   1.961   .     S
Cu1236 O1249   1.974   .     S
Cu1237 O1248   1.961   .     S
Cu1237 O1252   1.954   .     S
Cu1237 N1246   2.018   .     S
Cu1237 O1250   1.967   .     S
Cu1237 O1254   1.974   .     S
C1255  H1257   1.110   .     S
C1255  H1256   1.110   .     S
C1255  H1116   1.107   1_655 S
O1259  H1260   0.988   .     S
C1261  H1263   1.111   .     S
C1261  H1262   1.110   .     S
C1261  H1264   1.107   .     S
O1265  H1266   0.974   .     S
O1267  C592    1.382   1_556 S
O1267  H629    0.990   1_556 S
C1269  H1270   1.106   .     S
C1269  H1272   1.110   .     S
C1269  H1271   1.109   .     S
O1273  H1274   0.991   .     S
O1275  H1276   0.992   .     S
O1277  H1278   0.992   .     S
