data_str_m2_o10_o18_pcu_sym.74
_audit_creation_date              2020-01-03
_audit_creation_method            'Materials Studio'
_symmetry_space_group_name_H-M    'P1'
_symmetry_Int_Tables_number       1
_symmetry_cell_setting            triclinic
loop_
_symmetry_equiv_pos_as_xyz
  x,y,z
_cell_length_a                    22.2398
_cell_length_b                    26.0940
_cell_length_c                    31.6706
_cell_angle_alpha                 94.2267
_cell_angle_beta                  74.2599
_cell_angle_gamma                 103.2889
loop_
_atom_site_label
_atom_site_type_symbol
_atom_site_fract_x
_atom_site_fract_y
_atom_site_fract_z
_atom_site_U_iso_or_equiv
_atom_site_adp_type
_atom_site_occupancy
C1     C     0.18173   0.26675   0.25130   0.00000  Uiso   1.00
C2     C     0.20625   0.17079   0.16654   0.00000  Uiso   1.00
C3     C     0.10157   0.15672   0.38177   0.00000  Uiso   1.00
C4     C     0.23176   0.17661   0.11823   0.00000  Uiso   1.00
C5     C     0.02188   0.11949   0.44727   0.00000  Uiso   1.00
C6     C     0.31145   0.21383   0.05273   0.00000  Uiso   1.00
C7     C     0.03727   0.13256   0.40289   0.00000  Uiso   1.00
C8     C     0.29606   0.20077   0.09711   0.00000  Uiso   1.00
C9     C     0.14623   0.17142   0.40689   0.00000  Uiso   1.00
C10    C     0.18711   0.16192   0.09311   0.00000  Uiso   1.00
C11    C     0.13055   0.16016   0.45184   0.00000  Uiso   1.00
C12    C     0.15160   0.06658   0.24870   0.00000  Uiso   1.00
C13    C     0.20279   0.17316   0.04816   0.00000  Uiso   1.00
C14    C     0.06769   0.13224   0.47136   0.00000  Uiso   1.00
C15    C     0.26565   0.20109   0.02864   0.00000  Uiso   1.00
C16    C     0.17585   0.17447   0.47759   0.00000  Uiso   1.00
C17    C     0.15749   0.15886   0.02240   0.00000  Uiso   1.00
C18    C     0.01515   0.21280   0.11949   0.00000  Uiso   1.00
C19    C     0.31818   0.12052   0.38051   0.00000  Uiso   1.00
C20    C     0.09460   0.12928   0.03982   0.00000  Uiso   1.00
C21    C     0.23874   0.20405   0.46018   0.00000  Uiso   1.00
C22    C     0.05067   0.11691   0.01489   0.00000  Uiso   1.00
C23    C     0.28267   0.21642   0.48511   0.00000  Uiso   1.00
C24    C     0.19021   0.32272   0.25194   0.00000  Uiso   1.00
C25    C     0.14312   0.01062   0.24806   0.00000  Uiso   1.00
C26    C     0.12709   0.16254   0.33346   0.00000  Uiso   1.00
Cu27   Cu    0.10737   0.16108   0.24516   0.00000  Uiso   1.00
Cu28   Cu    0.22596   0.17225   0.25483   0.00000  Uiso   1.00
H29    H     0.00274   0.09490   0.02993   0.00000  Uiso   1.00
H30    H     0.09776   0.32010   0.24438   0.00000  Uiso   1.00
H31    H     0.00125   0.20495   0.28435   0.00000  Uiso   1.00
H32    H     0.33208   0.12838   0.21565   0.00000  Uiso   1.00
H33    H     0.01504   0.18850   0.14573   0.00000  Uiso   1.00
H34    H     0.31829   0.14482   0.35427   0.00000  Uiso   1.00
H35    H     0.33060   0.23843   0.47006   0.00000  Uiso   1.00
H36    H     0.13928   0.14297   0.11010   0.00000  Uiso   1.00
H37    H     0.19405   0.19036   0.38990   0.00000  Uiso   1.00
H38    H     0.30663   0.09983   0.46351   0.00000  Uiso   1.00
H39    H     0.02670   0.23349   0.03649   0.00000  Uiso   1.00
H40    H     0.07713   0.11457   0.07274   0.00000  Uiso   1.00
H41    H     0.25621   0.21876   0.42725   0.00000  Uiso   1.00
H42    H     0.23558   0.01323   0.25562   0.00000  Uiso   1.00
N43    N     0.31506   0.18068   0.26212   0.00000  Uiso   1.00
N44    N     0.01827   0.15265   0.23788   0.00000  Uiso   1.00
O45    O     0.12815   0.23809   0.24686   0.00000  Uiso   1.00
O46    O     0.27227   0.08395   0.39248   0.00000  Uiso   1.00
O47    O     0.20518   0.09524   0.25314   0.00000  Uiso   1.00
O48    O     0.22829   0.24753   0.25502   0.00000  Uiso   1.00
O49    O     0.10504   0.08580   0.24497   0.00000  Uiso   1.00
O50    O     0.08851   0.15930   0.30854   0.00000  Uiso   1.00
O51    O     0.24482   0.17403   0.19145   0.00000  Uiso   1.00
O52    O     0.18866   0.16874   0.31671   0.00000  Uiso   1.00
O53    O     0.14468   0.16460   0.18329   0.00000  Uiso   1.00
O54    O     0.06106   0.24937   0.10752   0.00000  Uiso   1.00
C55    C     0.51507   0.26675   0.25130   0.00000  Uiso   1.00
C56    C     0.53958   0.17079   0.16654   0.00000  Uiso   1.00
C57    C     0.43491   0.15672   0.38177   0.00000  Uiso   1.00
C58    C     0.56509   0.17661   0.11823   0.00000  Uiso   1.00
C59    C     0.35522   0.11949   0.44727   0.00000  Uiso   1.00
C60    C     0.64479   0.21383   0.05273   0.00000  Uiso   1.00
C61    C     0.37060   0.13256   0.40289   0.00000  Uiso   1.00
C62    C     0.62940   0.20077   0.09711   0.00000  Uiso   1.00
C63    C     0.47956   0.17142   0.40689   0.00000  Uiso   1.00
C64    C     0.52044   0.16192   0.09311   0.00000  Uiso   1.00
C65    C     0.46388   0.16016   0.45184   0.00000  Uiso   1.00
C66    C     0.48493   0.06658   0.24870   0.00000  Uiso   1.00
C67    C     0.53612   0.17316   0.04816   0.00000  Uiso   1.00
C68    C     0.40102   0.13224   0.47136   0.00000  Uiso   1.00
C69    C     0.59898   0.20109   0.02864   0.00000  Uiso   1.00
C70    C     0.50918   0.17447   0.47759   0.00000  Uiso   1.00
C71    C     0.49082   0.15886   0.02240   0.00000  Uiso   1.00
C72    C     0.34849   0.21280   0.11949   0.00000  Uiso   1.00
C73    C     0.65151   0.12052   0.38051   0.00000  Uiso   1.00
C74    C     0.42793   0.12928   0.03982   0.00000  Uiso   1.00
C75    C     0.57207   0.20405   0.46018   0.00000  Uiso   1.00
C76    C     0.38400   0.11691   0.01489   0.00000  Uiso   1.00
C77    C     0.61600   0.21642   0.48511   0.00000  Uiso   1.00
C78    C     0.52355   0.32272   0.25194   0.00000  Uiso   1.00
C79    C     0.47645   0.01062   0.24806   0.00000  Uiso   1.00
C80    C     0.46042   0.16254   0.33346   0.00000  Uiso   1.00
Cu81   Cu    0.44071   0.16108   0.24516   0.00000  Uiso   1.00
Cu82   Cu    0.55929   0.17225   0.25483   0.00000  Uiso   1.00
H83    H     0.33607   0.09490   0.02993   0.00000  Uiso   1.00
H84    H     0.43109   0.32010   0.24438   0.00000  Uiso   1.00
H85    H     0.33459   0.20495   0.28435   0.00000  Uiso   1.00
H86    H     0.66541   0.12838   0.21565   0.00000  Uiso   1.00
H87    H     0.34837   0.18850   0.14573   0.00000  Uiso   1.00
H88    H     0.65163   0.14482   0.35427   0.00000  Uiso   1.00
H89    H     0.66393   0.23843   0.47006   0.00000  Uiso   1.00
H90    H     0.47261   0.14297   0.11010   0.00000  Uiso   1.00
H91    H     0.52739   0.19036   0.38990   0.00000  Uiso   1.00
H92    H     0.63997   0.09983   0.46351   0.00000  Uiso   1.00
H93    H     0.36004   0.23349   0.03649   0.00000  Uiso   1.00
H94    H     0.41046   0.11457   0.07274   0.00000  Uiso   1.00
H95    H     0.58954   0.21876   0.42725   0.00000  Uiso   1.00
H96    H     0.56891   0.01323   0.25562   0.00000  Uiso   1.00
N97    N     0.64839   0.18068   0.26212   0.00000  Uiso   1.00
N98    N     0.35161   0.15265   0.23788   0.00000  Uiso   1.00
O99    O     0.46148   0.23809   0.24686   0.00000  Uiso   1.00
O100   O     0.60561   0.08395   0.39248   0.00000  Uiso   1.00
O101   O     0.53852   0.09524   0.25314   0.00000  Uiso   1.00
O102   O     0.56163   0.24753   0.25502   0.00000  Uiso   1.00
O103   O     0.43837   0.08580   0.24497   0.00000  Uiso   1.00
O104   O     0.42185   0.15930   0.30854   0.00000  Uiso   1.00
O105   O     0.57815   0.17403   0.19145   0.00000  Uiso   1.00
O106   O     0.52199   0.16874   0.31671   0.00000  Uiso   1.00
O107   O     0.47801   0.16460   0.18329   0.00000  Uiso   1.00
O108   O     0.39440   0.24937   0.10752   0.00000  Uiso   1.00
C109   C     0.84840   0.26675   0.25130   0.00000  Uiso   1.00
C110   C     0.87291   0.17079   0.16654   0.00000  Uiso   1.00
C111   C     0.76824   0.15672   0.38177   0.00000  Uiso   1.00
C112   C     0.89842   0.17661   0.11823   0.00000  Uiso   1.00
C113   C     0.68855   0.11949   0.44727   0.00000  Uiso   1.00
C114   C     0.97812   0.21383   0.05273   0.00000  Uiso   1.00
C115   C     0.70394   0.13256   0.40289   0.00000  Uiso   1.00
C116   C     0.96273   0.20077   0.09711   0.00000  Uiso   1.00
C117   C     0.81289   0.17142   0.40689   0.00000  Uiso   1.00
C118   C     0.85377   0.16192   0.09311   0.00000  Uiso   1.00
C119   C     0.79721   0.16016   0.45184   0.00000  Uiso   1.00
C120   C     0.81827   0.06658   0.24870   0.00000  Uiso   1.00
C121   C     0.86945   0.17316   0.04816   0.00000  Uiso   1.00
C122   C     0.73436   0.13224   0.47136   0.00000  Uiso   1.00
C123   C     0.93231   0.20109   0.02864   0.00000  Uiso   1.00
C124   C     0.84252   0.17447   0.47759   0.00000  Uiso   1.00
C125   C     0.82415   0.15886   0.02240   0.00000  Uiso   1.00
C126   C     0.68182   0.21280   0.11949   0.00000  Uiso   1.00
C127   C     0.98485   0.12052   0.38051   0.00000  Uiso   1.00
C128   C     0.76126   0.12928   0.03982   0.00000  Uiso   1.00
C129   C     0.90541   0.20405   0.46018   0.00000  Uiso   1.00
C130   C     0.71734   0.11691   0.01489   0.00000  Uiso   1.00
C131   C     0.94933   0.21642   0.48511   0.00000  Uiso   1.00
C132   C     0.85688   0.32272   0.25194   0.00000  Uiso   1.00
C133   C     0.80979   0.01062   0.24806   0.00000  Uiso   1.00
C134   C     0.79375   0.16254   0.33346   0.00000  Uiso   1.00
Cu135  Cu    0.77404   0.16108   0.24516   0.00000  Uiso   1.00
Cu136  Cu    0.89263   0.17225   0.25483   0.00000  Uiso   1.00
H137   H     0.66941   0.09490   0.02993   0.00000  Uiso   1.00
H138   H     0.76442   0.32010   0.24438   0.00000  Uiso   1.00
H139   H     0.66792   0.20495   0.28435   0.00000  Uiso   1.00
H140   H     0.99874   0.12838   0.21565   0.00000  Uiso   1.00
H141   H     0.68170   0.18850   0.14573   0.00000  Uiso   1.00
H142   H     0.98496   0.14482   0.35427   0.00000  Uiso   1.00
H143   H     0.99727   0.23843   0.47006   0.00000  Uiso   1.00
H144   H     0.80595   0.14297   0.11010   0.00000  Uiso   1.00
H145   H     0.86072   0.19036   0.38990   0.00000  Uiso   1.00
H146   H     0.97330   0.09983   0.46351   0.00000  Uiso   1.00
H147   H     0.69337   0.23349   0.03649   0.00000  Uiso   1.00
H148   H     0.74380   0.11457   0.07274   0.00000  Uiso   1.00
H149   H     0.92288   0.21876   0.42725   0.00000  Uiso   1.00
H150   H     0.90224   0.01323   0.25562   0.00000  Uiso   1.00
N151   N     0.98173   0.18068   0.26212   0.00000  Uiso   1.00
N152   N     0.68494   0.15265   0.23788   0.00000  Uiso   1.00
O153   O     0.79482   0.23809   0.24686   0.00000  Uiso   1.00
O154   O     0.93894   0.08395   0.39248   0.00000  Uiso   1.00
O155   O     0.87185   0.09524   0.25314   0.00000  Uiso   1.00
O156   O     0.89496   0.24753   0.25502   0.00000  Uiso   1.00
O157   O     0.77171   0.08580   0.24497   0.00000  Uiso   1.00
O158   O     0.75518   0.15930   0.30854   0.00000  Uiso   1.00
O159   O     0.91149   0.17403   0.19145   0.00000  Uiso   1.00
O160   O     0.85532   0.16874   0.31671   0.00000  Uiso   1.00
O161   O     0.81134   0.16460   0.18329   0.00000  Uiso   1.00
O162   O     0.72773   0.24937   0.10752   0.00000  Uiso   1.00
C163   C     0.18173   0.60008   0.25130   0.00000  Uiso   1.00
C164   C     0.20625   0.50412   0.16654   0.00000  Uiso   1.00
C165   C     0.10157   0.49005   0.38177   0.00000  Uiso   1.00
C166   C     0.23176   0.50995   0.11823   0.00000  Uiso   1.00
C167   C     0.02188   0.45283   0.44727   0.00000  Uiso   1.00
C168   C     0.31145   0.54716   0.05273   0.00000  Uiso   1.00
C169   C     0.03727   0.46589   0.40289   0.00000  Uiso   1.00
C170   C     0.29606   0.53410   0.09711   0.00000  Uiso   1.00
C171   C     0.14623   0.50475   0.40689   0.00000  Uiso   1.00
C172   C     0.18711   0.49525   0.09311   0.00000  Uiso   1.00
C173   C     0.13055   0.49350   0.45184   0.00000  Uiso   1.00
C174   C     0.15160   0.39992   0.24870   0.00000  Uiso   1.00
C175   C     0.20279   0.50650   0.04816   0.00000  Uiso   1.00
C176   C     0.06769   0.46557   0.47136   0.00000  Uiso   1.00
C177   C     0.26565   0.53442   0.02864   0.00000  Uiso   1.00
C178   C     0.17585   0.50781   0.47759   0.00000  Uiso   1.00
C179   C     0.15749   0.49219   0.02240   0.00000  Uiso   1.00
C180   C     0.01515   0.54614   0.11949   0.00000  Uiso   1.00
C181   C     0.31818   0.45385   0.38051   0.00000  Uiso   1.00
C182   C     0.09460   0.46261   0.03982   0.00000  Uiso   1.00
C183   C     0.23874   0.53738   0.46018   0.00000  Uiso   1.00
C184   C     0.05067   0.45024   0.01489   0.00000  Uiso   1.00
C185   C     0.28267   0.54975   0.48511   0.00000  Uiso   1.00
C186   C     0.19021   0.65605   0.25194   0.00000  Uiso   1.00
C187   C     0.14312   0.34395   0.24806   0.00000  Uiso   1.00
C188   C     0.12709   0.49588   0.33346   0.00000  Uiso   1.00
Cu189  Cu    0.10737   0.49441   0.24516   0.00000  Uiso   1.00
Cu190  Cu    0.22596   0.50559   0.25483   0.00000  Uiso   1.00
H191   H     0.00274   0.42823   0.02993   0.00000  Uiso   1.00
H192   H     0.09776   0.65343   0.24438   0.00000  Uiso   1.00
H193   H     0.00125   0.53828   0.28435   0.00000  Uiso   1.00
H194   H     0.33208   0.46172   0.21565   0.00000  Uiso   1.00
H195   H     0.01504   0.52183   0.14573   0.00000  Uiso   1.00
H196   H     0.31829   0.47815   0.35427   0.00000  Uiso   1.00
H197   H     0.33060   0.57176   0.47006   0.00000  Uiso   1.00
H198   H     0.13928   0.47631   0.11010   0.00000  Uiso   1.00
H199   H     0.19405   0.52370   0.38990   0.00000  Uiso   1.00
H200   H     0.30663   0.43317   0.46351   0.00000  Uiso   1.00
H201   H     0.02670   0.56682   0.03649   0.00000  Uiso   1.00
H202   H     0.07713   0.44790   0.07274   0.00000  Uiso   1.00
H203   H     0.25621   0.55209   0.42725   0.00000  Uiso   1.00
H204   H     0.23558   0.34657   0.25562   0.00000  Uiso   1.00
N205   N     0.31506   0.51401   0.26212   0.00000  Uiso   1.00
N206   N     0.01827   0.48599   0.23788   0.00000  Uiso   1.00
O207   O     0.12815   0.57142   0.24686   0.00000  Uiso   1.00
O208   O     0.27227   0.41728   0.39248   0.00000  Uiso   1.00
O209   O     0.20518   0.42858   0.25314   0.00000  Uiso   1.00
O210   O     0.22829   0.58086   0.25502   0.00000  Uiso   1.00
O211   O     0.10504   0.41914   0.24497   0.00000  Uiso   1.00
O212   O     0.08851   0.49263   0.30854   0.00000  Uiso   1.00
O213   O     0.24482   0.50737   0.19145   0.00000  Uiso   1.00
O214   O     0.18866   0.50207   0.31671   0.00000  Uiso   1.00
O215   O     0.14468   0.49793   0.18329   0.00000  Uiso   1.00
O216   O     0.06106   0.58270   0.10752   0.00000  Uiso   1.00
C217   C     0.51507   0.60008   0.25130   0.00000  Uiso   1.00
C218   C     0.53958   0.50412   0.16654   0.00000  Uiso   1.00
C219   C     0.43491   0.49005   0.38177   0.00000  Uiso   1.00
C220   C     0.56509   0.50995   0.11823   0.00000  Uiso   1.00
C221   C     0.35522   0.45283   0.44727   0.00000  Uiso   1.00
C222   C     0.64479   0.54716   0.05273   0.00000  Uiso   1.00
C223   C     0.37060   0.46589   0.40289   0.00000  Uiso   1.00
C224   C     0.62940   0.53410   0.09711   0.00000  Uiso   1.00
C225   C     0.47956   0.50475   0.40689   0.00000  Uiso   1.00
C226   C     0.52044   0.49525   0.09311   0.00000  Uiso   1.00
C227   C     0.46388   0.49350   0.45184   0.00000  Uiso   1.00
C228   C     0.48493   0.39992   0.24870   0.00000  Uiso   1.00
C229   C     0.53612   0.50650   0.04816   0.00000  Uiso   1.00
C230   C     0.40102   0.46557   0.47136   0.00000  Uiso   1.00
C231   C     0.59898   0.53442   0.02864   0.00000  Uiso   1.00
C232   C     0.50918   0.50781   0.47759   0.00000  Uiso   1.00
C233   C     0.49082   0.49219   0.02240   0.00000  Uiso   1.00
C234   C     0.34849   0.54614   0.11949   0.00000  Uiso   1.00
C235   C     0.65151   0.45385   0.38051   0.00000  Uiso   1.00
C236   C     0.42793   0.46261   0.03982   0.00000  Uiso   1.00
C237   C     0.57207   0.53738   0.46018   0.00000  Uiso   1.00
C238   C     0.38400   0.45024   0.01489   0.00000  Uiso   1.00
C239   C     0.61600   0.54975   0.48511   0.00000  Uiso   1.00
C240   C     0.52355   0.65605   0.25194   0.00000  Uiso   1.00
C241   C     0.47645   0.34395   0.24806   0.00000  Uiso   1.00
C242   C     0.46042   0.49588   0.33346   0.00000  Uiso   1.00
Cu243  Cu    0.44071   0.49441   0.24516   0.00000  Uiso   1.00
Cu244  Cu    0.55929   0.50559   0.25483   0.00000  Uiso   1.00
H245   H     0.33607   0.42823   0.02993   0.00000  Uiso   1.00
H246   H     0.43109   0.65343   0.24438   0.00000  Uiso   1.00
H247   H     0.33459   0.53828   0.28435   0.00000  Uiso   1.00
H248   H     0.66541   0.46172   0.21565   0.00000  Uiso   1.00
H249   H     0.34837   0.52183   0.14573   0.00000  Uiso   1.00
H250   H     0.65163   0.47815   0.35427   0.00000  Uiso   1.00
H251   H     0.66393   0.57176   0.47006   0.00000  Uiso   1.00
H252   H     0.47261   0.47631   0.11010   0.00000  Uiso   1.00
H253   H     0.52739   0.52370   0.38990   0.00000  Uiso   1.00
H254   H     0.63997   0.43317   0.46351   0.00000  Uiso   1.00
H255   H     0.36004   0.56682   0.03649   0.00000  Uiso   1.00
H256   H     0.41046   0.44790   0.07274   0.00000  Uiso   1.00
H257   H     0.58954   0.55209   0.42725   0.00000  Uiso   1.00
H258   H     0.56891   0.34657   0.25562   0.00000  Uiso   1.00
N259   N     0.64839   0.51401   0.26212   0.00000  Uiso   1.00
N260   N     0.35161   0.48599   0.23788   0.00000  Uiso   1.00
O261   O     0.46148   0.57142   0.24686   0.00000  Uiso   1.00
O262   O     0.60561   0.41728   0.39248   0.00000  Uiso   1.00
O263   O     0.53852   0.42858   0.25314   0.00000  Uiso   1.00
O264   O     0.56163   0.58086   0.25502   0.00000  Uiso   1.00
O265   O     0.43837   0.41914   0.24497   0.00000  Uiso   1.00
O266   O     0.42185   0.49263   0.30854   0.00000  Uiso   1.00
O267   O     0.57815   0.50737   0.19145   0.00000  Uiso   1.00
O268   O     0.52199   0.50207   0.31671   0.00000  Uiso   1.00
O269   O     0.47801   0.49793   0.18329   0.00000  Uiso   1.00
O270   O     0.39440   0.58270   0.10752   0.00000  Uiso   1.00
C271   C     0.84840   0.60008   0.25130   0.00000  Uiso   1.00
C272   C     0.87291   0.50412   0.16654   0.00000  Uiso   1.00
C273   C     0.76824   0.49005   0.38177   0.00000  Uiso   1.00
C274   C     0.89842   0.50995   0.11823   0.00000  Uiso   1.00
C275   C     0.68855   0.45283   0.44727   0.00000  Uiso   1.00
C276   C     0.97812   0.54716   0.05273   0.00000  Uiso   1.00
C277   C     0.70394   0.46589   0.40289   0.00000  Uiso   1.00
C278   C     0.96273   0.53410   0.09711   0.00000  Uiso   1.00
C279   C     0.81289   0.50475   0.40689   0.00000  Uiso   1.00
C280   C     0.85377   0.49525   0.09311   0.00000  Uiso   1.00
C281   C     0.79721   0.49350   0.45184   0.00000  Uiso   1.00
C282   C     0.81827   0.39992   0.24870   0.00000  Uiso   1.00
C283   C     0.86945   0.50650   0.04816   0.00000  Uiso   1.00
C284   C     0.73436   0.46557   0.47136   0.00000  Uiso   1.00
C285   C     0.93231   0.53442   0.02864   0.00000  Uiso   1.00
C286   C     0.84252   0.50781   0.47759   0.00000  Uiso   1.00
C287   C     0.82415   0.49219   0.02240   0.00000  Uiso   1.00
C288   C     0.68182   0.54614   0.11949   0.00000  Uiso   1.00
C289   C     0.98485   0.45385   0.38051   0.00000  Uiso   1.00
C290   C     0.76126   0.46261   0.03982   0.00000  Uiso   1.00
C291   C     0.90541   0.53738   0.46018   0.00000  Uiso   1.00
C292   C     0.71734   0.45024   0.01489   0.00000  Uiso   1.00
C293   C     0.94933   0.54975   0.48511   0.00000  Uiso   1.00
C294   C     0.85688   0.65605   0.25194   0.00000  Uiso   1.00
C295   C     0.80979   0.34395   0.24806   0.00000  Uiso   1.00
C296   C     0.79375   0.49588   0.33346   0.00000  Uiso   1.00
Cu297  Cu    0.77404   0.49441   0.24516   0.00000  Uiso   1.00
Cu298  Cu    0.89263   0.50559   0.25483   0.00000  Uiso   1.00
H299   H     0.66941   0.42823   0.02993   0.00000  Uiso   1.00
H300   H     0.76442   0.65343   0.24438   0.00000  Uiso   1.00
H301   H     0.66792   0.53828   0.28435   0.00000  Uiso   1.00
H302   H     0.99874   0.46172   0.21565   0.00000  Uiso   1.00
H303   H     0.68170   0.52183   0.14573   0.00000  Uiso   1.00
H304   H     0.98496   0.47815   0.35427   0.00000  Uiso   1.00
H305   H     0.99727   0.57176   0.47006   0.00000  Uiso   1.00
H306   H     0.80595   0.47631   0.11010   0.00000  Uiso   1.00
H307   H     0.86072   0.52370   0.38990   0.00000  Uiso   1.00
H308   H     0.97330   0.43317   0.46351   0.00000  Uiso   1.00
H309   H     0.69337   0.56682   0.03649   0.00000  Uiso   1.00
H310   H     0.74380   0.44790   0.07274   0.00000  Uiso   1.00
H311   H     0.92288   0.55209   0.42725   0.00000  Uiso   1.00
H312   H     0.90224   0.34657   0.25562   0.00000  Uiso   1.00
N313   N     0.98173   0.51401   0.26212   0.00000  Uiso   1.00
N314   N     0.68494   0.48599   0.23788   0.00000  Uiso   1.00
O315   O     0.79482   0.57142   0.24686   0.00000  Uiso   1.00
O316   O     0.93894   0.41728   0.39248   0.00000  Uiso   1.00
O317   O     0.87185   0.42858   0.25314   0.00000  Uiso   1.00
O318   O     0.89496   0.58086   0.25502   0.00000  Uiso   1.00
O319   O     0.77171   0.41914   0.24497   0.00000  Uiso   1.00
O320   O     0.75518   0.49263   0.30854   0.00000  Uiso   1.00
O321   O     0.91149   0.50737   0.19145   0.00000  Uiso   1.00
O322   O     0.85532   0.50207   0.31671   0.00000  Uiso   1.00
O323   O     0.81134   0.49793   0.18329   0.00000  Uiso   1.00
O324   O     0.72773   0.58270   0.10752   0.00000  Uiso   1.00
C325   C     0.18173   0.93342   0.25130   0.00000  Uiso   1.00
C326   C     0.20625   0.83746   0.16654   0.00000  Uiso   1.00
C327   C     0.10157   0.82338   0.38177   0.00000  Uiso   1.00
C328   C     0.23176   0.84328   0.11823   0.00000  Uiso   1.00
C329   C     0.02188   0.78616   0.44727   0.00000  Uiso   1.00
C330   C     0.31145   0.88050   0.05273   0.00000  Uiso   1.00
C331   C     0.03727   0.79923   0.40289   0.00000  Uiso   1.00
C332   C     0.29606   0.86743   0.09711   0.00000  Uiso   1.00
C333   C     0.14623   0.83808   0.40689   0.00000  Uiso   1.00
C334   C     0.18711   0.82858   0.09311   0.00000  Uiso   1.00
C335   C     0.13055   0.82683   0.45184   0.00000  Uiso   1.00
C336   C     0.15160   0.73325   0.24870   0.00000  Uiso   1.00
C337   C     0.20279   0.83983   0.04816   0.00000  Uiso   1.00
C338   C     0.06769   0.79891   0.47136   0.00000  Uiso   1.00
C339   C     0.26565   0.86775   0.02864   0.00000  Uiso   1.00
C340   C     0.17585   0.84114   0.47759   0.00000  Uiso   1.00
C341   C     0.15749   0.82552   0.02240   0.00000  Uiso   1.00
C342   C     0.01515   0.87947   0.11949   0.00000  Uiso   1.00
C343   C     0.31818   0.78718   0.38051   0.00000  Uiso   1.00
C344   C     0.09460   0.79594   0.03982   0.00000  Uiso   1.00
C345   C     0.23874   0.87072   0.46018   0.00000  Uiso   1.00
C346   C     0.05067   0.78357   0.01489   0.00000  Uiso   1.00
C347   C     0.28267   0.88308   0.48511   0.00000  Uiso   1.00
C348   C     0.19021   0.98938   0.25194   0.00000  Uiso   1.00
C349   C     0.14312   0.67728   0.24806   0.00000  Uiso   1.00
C350   C     0.12709   0.82921   0.33346   0.00000  Uiso   1.00
Cu351  Cu    0.10737   0.82775   0.24516   0.00000  Uiso   1.00
Cu352  Cu    0.22596   0.83892   0.25483   0.00000  Uiso   1.00
H353   H     0.00274   0.76156   0.02993   0.00000  Uiso   1.00
H354   H     0.09776   0.98677   0.24438   0.00000  Uiso   1.00
H355   H     0.00125   0.87162   0.28435   0.00000  Uiso   1.00
H356   H     0.33208   0.79505   0.21565   0.00000  Uiso   1.00
H357   H     0.01504   0.85516   0.14573   0.00000  Uiso   1.00
H358   H     0.31829   0.81149   0.35427   0.00000  Uiso   1.00
H359   H     0.33060   0.90509   0.47006   0.00000  Uiso   1.00
H360   H     0.13928   0.80964   0.11010   0.00000  Uiso   1.00
H361   H     0.19405   0.85703   0.38990   0.00000  Uiso   1.00
H362   H     0.30663   0.76650   0.46351   0.00000  Uiso   1.00
H363   H     0.02670   0.90016   0.03649   0.00000  Uiso   1.00
H364   H     0.07713   0.78124   0.07274   0.00000  Uiso   1.00
H365   H     0.25621   0.88542   0.42725   0.00000  Uiso   1.00
H366   H     0.23558   0.67990   0.25562   0.00000  Uiso   1.00
N367   N     0.31506   0.84735   0.26212   0.00000  Uiso   1.00
N368   N     0.01827   0.81932   0.23788   0.00000  Uiso   1.00
O369   O     0.12815   0.90476   0.24686   0.00000  Uiso   1.00
O370   O     0.27227   0.75061   0.39248   0.00000  Uiso   1.00
O371   O     0.20518   0.76191   0.25314   0.00000  Uiso   1.00
O372   O     0.22829   0.91420   0.25502   0.00000  Uiso   1.00
O373   O     0.10504   0.75247   0.24497   0.00000  Uiso   1.00
O374   O     0.08851   0.82597   0.30854   0.00000  Uiso   1.00
O375   O     0.24482   0.84070   0.19145   0.00000  Uiso   1.00
O376   O     0.18866   0.83540   0.31671   0.00000  Uiso   1.00
O377   O     0.14468   0.83126   0.18329   0.00000  Uiso   1.00
O378   O     0.06106   0.91604   0.10752   0.00000  Uiso   1.00
C379   C     0.51507   0.93342   0.25130   0.00000  Uiso   1.00
C380   C     0.53958   0.83746   0.16654   0.00000  Uiso   1.00
C381   C     0.43491   0.82338   0.38177   0.00000  Uiso   1.00
C382   C     0.56509   0.84328   0.11823   0.00000  Uiso   1.00
C383   C     0.35522   0.78616   0.44727   0.00000  Uiso   1.00
C384   C     0.64479   0.88050   0.05273   0.00000  Uiso   1.00
C385   C     0.37060   0.79923   0.40289   0.00000  Uiso   1.00
C386   C     0.62940   0.86743   0.09711   0.00000  Uiso   1.00
C387   C     0.47956   0.83808   0.40689   0.00000  Uiso   1.00
C388   C     0.52044   0.82858   0.09311   0.00000  Uiso   1.00
C389   C     0.46388   0.82683   0.45184   0.00000  Uiso   1.00
C390   C     0.48493   0.73325   0.24870   0.00000  Uiso   1.00
C391   C     0.53612   0.83983   0.04816   0.00000  Uiso   1.00
C392   C     0.40102   0.79891   0.47136   0.00000  Uiso   1.00
C393   C     0.59898   0.86775   0.02864   0.00000  Uiso   1.00
C394   C     0.50918   0.84114   0.47759   0.00000  Uiso   1.00
C395   C     0.49082   0.82552   0.02240   0.00000  Uiso   1.00
C396   C     0.34849   0.87947   0.11949   0.00000  Uiso   1.00
C397   C     0.65151   0.78718   0.38051   0.00000  Uiso   1.00
C398   C     0.42793   0.79594   0.03982   0.00000  Uiso   1.00
C399   C     0.57207   0.87072   0.46018   0.00000  Uiso   1.00
C400   C     0.38400   0.78357   0.01489   0.00000  Uiso   1.00
C401   C     0.61600   0.88308   0.48511   0.00000  Uiso   1.00
C402   C     0.52355   0.98938   0.25194   0.00000  Uiso   1.00
C403   C     0.47645   0.67728   0.24806   0.00000  Uiso   1.00
C404   C     0.46042   0.82921   0.33346   0.00000  Uiso   1.00
Cu405  Cu    0.44071   0.82775   0.24516   0.00000  Uiso   1.00
Cu406  Cu    0.55929   0.83892   0.25483   0.00000  Uiso   1.00
H407   H     0.33607   0.76156   0.02993   0.00000  Uiso   1.00
H408   H     0.43109   0.98677   0.24438   0.00000  Uiso   1.00
H409   H     0.33459   0.87162   0.28435   0.00000  Uiso   1.00
H410   H     0.66541   0.79505   0.21565   0.00000  Uiso   1.00
H411   H     0.34837   0.85516   0.14573   0.00000  Uiso   1.00
H412   H     0.65163   0.81149   0.35427   0.00000  Uiso   1.00
H413   H     0.66393   0.90509   0.47006   0.00000  Uiso   1.00
H414   H     0.47261   0.80964   0.11010   0.00000  Uiso   1.00
H415   H     0.52739   0.85703   0.38990   0.00000  Uiso   1.00
H416   H     0.63997   0.76650   0.46351   0.00000  Uiso   1.00
H417   H     0.36004   0.90016   0.03649   0.00000  Uiso   1.00
H418   H     0.41046   0.78124   0.07274   0.00000  Uiso   1.00
H419   H     0.58954   0.88542   0.42725   0.00000  Uiso   1.00
H420   H     0.56891   0.67990   0.25562   0.00000  Uiso   1.00
N421   N     0.64839   0.84735   0.26212   0.00000  Uiso   1.00
N422   N     0.35161   0.81932   0.23788   0.00000  Uiso   1.00
O423   O     0.46148   0.90476   0.24686   0.00000  Uiso   1.00
O424   O     0.60561   0.75061   0.39248   0.00000  Uiso   1.00
O425   O     0.53852   0.76191   0.25314   0.00000  Uiso   1.00
O426   O     0.56163   0.91420   0.25502   0.00000  Uiso   1.00
O427   O     0.43837   0.75247   0.24497   0.00000  Uiso   1.00
O428   O     0.42185   0.82597   0.30854   0.00000  Uiso   1.00
O429   O     0.57815   0.84070   0.19145   0.00000  Uiso   1.00
O430   O     0.52199   0.83540   0.31671   0.00000  Uiso   1.00
O431   O     0.47801   0.83126   0.18329   0.00000  Uiso   1.00
O432   O     0.39440   0.91604   0.10752   0.00000  Uiso   1.00
C433   C     0.84840   0.93342   0.25130   0.00000  Uiso   1.00
C434   C     0.87291   0.83746   0.16654   0.00000  Uiso   1.00
C435   C     0.76824   0.82338   0.38177   0.00000  Uiso   1.00
C436   C     0.89842   0.84328   0.11823   0.00000  Uiso   1.00
C437   C     0.68855   0.78616   0.44727   0.00000  Uiso   1.00
C438   C     0.97812   0.88050   0.05273   0.00000  Uiso   1.00
C439   C     0.70394   0.79923   0.40289   0.00000  Uiso   1.00
C440   C     0.96273   0.86743   0.09711   0.00000  Uiso   1.00
C441   C     0.81289   0.83808   0.40689   0.00000  Uiso   1.00
C442   C     0.85377   0.82858   0.09311   0.00000  Uiso   1.00
C443   C     0.79721   0.82683   0.45184   0.00000  Uiso   1.00
C444   C     0.81827   0.73325   0.24870   0.00000  Uiso   1.00
C445   C     0.86945   0.83983   0.04816   0.00000  Uiso   1.00
C446   C     0.73436   0.79891   0.47136   0.00000  Uiso   1.00
C447   C     0.93231   0.86775   0.02864   0.00000  Uiso   1.00
C448   C     0.84252   0.84114   0.47759   0.00000  Uiso   1.00
C449   C     0.82415   0.82552   0.02240   0.00000  Uiso   1.00
C450   C     0.68182   0.87947   0.11949   0.00000  Uiso   1.00
C451   C     0.98485   0.78718   0.38051   0.00000  Uiso   1.00
C452   C     0.76126   0.79594   0.03982   0.00000  Uiso   1.00
C453   C     0.90541   0.87072   0.46018   0.00000  Uiso   1.00
C454   C     0.71734   0.78357   0.01489   0.00000  Uiso   1.00
C455   C     0.94933   0.88308   0.48511   0.00000  Uiso   1.00
C456   C     0.85688   0.98938   0.25194   0.00000  Uiso   1.00
C457   C     0.80979   0.67728   0.24806   0.00000  Uiso   1.00
C458   C     0.79375   0.82921   0.33346   0.00000  Uiso   1.00
Cu459  Cu    0.77404   0.82775   0.24516   0.00000  Uiso   1.00
Cu460  Cu    0.89263   0.83892   0.25483   0.00000  Uiso   1.00
H461   H     0.66941   0.76156   0.02993   0.00000  Uiso   1.00
H462   H     0.76442   0.98677   0.24438   0.00000  Uiso   1.00
H463   H     0.66792   0.87162   0.28435   0.00000  Uiso   1.00
H464   H     0.99874   0.79505   0.21565   0.00000  Uiso   1.00
H465   H     0.68170   0.85516   0.14573   0.00000  Uiso   1.00
H466   H     0.98496   0.81149   0.35427   0.00000  Uiso   1.00
H467   H     0.99727   0.90509   0.47006   0.00000  Uiso   1.00
H468   H     0.80595   0.80964   0.11010   0.00000  Uiso   1.00
H469   H     0.86072   0.85703   0.38990   0.00000  Uiso   1.00
H470   H     0.97330   0.76650   0.46351   0.00000  Uiso   1.00
H471   H     0.69337   0.90016   0.03649   0.00000  Uiso   1.00
H472   H     0.74380   0.78124   0.07274   0.00000  Uiso   1.00
H473   H     0.92288   0.88542   0.42725   0.00000  Uiso   1.00
H474   H     0.90224   0.67990   0.25562   0.00000  Uiso   1.00
N475   N     0.98173   0.84735   0.26212   0.00000  Uiso   1.00
N476   N     0.68494   0.81932   0.23788   0.00000  Uiso   1.00
O477   O     0.79482   0.90476   0.24686   0.00000  Uiso   1.00
O478   O     0.93894   0.75061   0.39248   0.00000  Uiso   1.00
O479   O     0.87185   0.76191   0.25314   0.00000  Uiso   1.00
O480   O     0.89496   0.91420   0.25502   0.00000  Uiso   1.00
O481   O     0.77171   0.75247   0.24497   0.00000  Uiso   1.00
O482   O     0.75518   0.82597   0.30854   0.00000  Uiso   1.00
O483   O     0.91149   0.84070   0.19145   0.00000  Uiso   1.00
O484   O     0.85532   0.83540   0.31671   0.00000  Uiso   1.00
O485   O     0.81134   0.83126   0.18329   0.00000  Uiso   1.00
O486   O     0.72773   0.91604   0.10752   0.00000  Uiso   1.00
C487   C     0.18173   0.26675   0.75130   0.00000  Uiso   1.00
C488   C     0.20625   0.17079   0.66654   0.00000  Uiso   1.00
C489   C     0.10157   0.15672   0.88177   0.00000  Uiso   1.00
C490   C     0.23176   0.17661   0.61823   0.00000  Uiso   1.00
C491   C     0.02188   0.11949   0.94727   0.00000  Uiso   1.00
C492   C     0.31145   0.21383   0.55273   0.00000  Uiso   1.00
C493   C     0.03727   0.13256   0.90289   0.00000  Uiso   1.00
C494   C     0.29606   0.20077   0.59711   0.00000  Uiso   1.00
C495   C     0.14623   0.17142   0.90689   0.00000  Uiso   1.00
C496   C     0.18711   0.16192   0.59311   0.00000  Uiso   1.00
C497   C     0.13055   0.16016   0.95184   0.00000  Uiso   1.00
C498   C     0.15160   0.06658   0.74870   0.00000  Uiso   1.00
C499   C     0.20279   0.17316   0.54816   0.00000  Uiso   1.00
C500   C     0.06769   0.13224   0.97136   0.00000  Uiso   1.00
C501   C     0.26565   0.20109   0.52864   0.00000  Uiso   1.00
C502   C     0.17585   0.17447   0.97759   0.00000  Uiso   1.00
C503   C     0.15749   0.15886   0.52240   0.00000  Uiso   1.00
C504   C     0.01515   0.21280   0.61949   0.00000  Uiso   1.00
C505   C     0.31818   0.12052   0.88051   0.00000  Uiso   1.00
C506   C     0.09460   0.12928   0.53982   0.00000  Uiso   1.00
C507   C     0.23874   0.20405   0.96018   0.00000  Uiso   1.00
C508   C     0.05067   0.11691   0.51489   0.00000  Uiso   1.00
C509   C     0.28267   0.21642   0.98511   0.00000  Uiso   1.00
C510   C     0.19021   0.32272   0.75194   0.00000  Uiso   1.00
C511   C     0.14312   0.01062   0.74806   0.00000  Uiso   1.00
C512   C     0.12709   0.16254   0.83346   0.00000  Uiso   1.00
Cu513  Cu    0.10737   0.16108   0.74516   0.00000  Uiso   1.00
Cu514  Cu    0.22596   0.17225   0.75483   0.00000  Uiso   1.00
H515   H     0.00274   0.09490   0.52993   0.00000  Uiso   1.00
H516   H     0.09776   0.32010   0.74438   0.00000  Uiso   1.00
H517   H     0.00125   0.20495   0.78435   0.00000  Uiso   1.00
H518   H     0.33208   0.12838   0.71565   0.00000  Uiso   1.00
H519   H     0.01504   0.18850   0.64573   0.00000  Uiso   1.00
H520   H     0.31829   0.14482   0.85427   0.00000  Uiso   1.00
H521   H     0.33060   0.23843   0.97006   0.00000  Uiso   1.00
H522   H     0.13928   0.14297   0.61010   0.00000  Uiso   1.00
H523   H     0.19405   0.19036   0.88990   0.00000  Uiso   1.00
H524   H     0.30663   0.09983   0.96351   0.00000  Uiso   1.00
H525   H     0.02670   0.23349   0.53649   0.00000  Uiso   1.00
H526   H     0.07713   0.11457   0.57274   0.00000  Uiso   1.00
H527   H     0.25621   0.21876   0.92725   0.00000  Uiso   1.00
H528   H     0.23558   0.01323   0.75562   0.00000  Uiso   1.00
N529   N     0.31506   0.18068   0.76212   0.00000  Uiso   1.00
N530   N     0.01827   0.15265   0.73788   0.00000  Uiso   1.00
O531   O     0.12815   0.23809   0.74686   0.00000  Uiso   1.00
O532   O     0.27227   0.08395   0.89248   0.00000  Uiso   1.00
O533   O     0.20518   0.09524   0.75314   0.00000  Uiso   1.00
O534   O     0.22829   0.24753   0.75502   0.00000  Uiso   1.00
O535   O     0.10504   0.08580   0.74497   0.00000  Uiso   1.00
O536   O     0.08851   0.15930   0.80854   0.00000  Uiso   1.00
O537   O     0.24482   0.17403   0.69145   0.00000  Uiso   1.00
O538   O     0.18866   0.16874   0.81671   0.00000  Uiso   1.00
O539   O     0.14468   0.16460   0.68329   0.00000  Uiso   1.00
O540   O     0.06106   0.24937   0.60752   0.00000  Uiso   1.00
C541   C     0.51507   0.26675   0.75130   0.00000  Uiso   1.00
C542   C     0.53958   0.17079   0.66654   0.00000  Uiso   1.00
C543   C     0.43491   0.15672   0.88177   0.00000  Uiso   1.00
C544   C     0.56509   0.17661   0.61823   0.00000  Uiso   1.00
C545   C     0.35522   0.11949   0.94727   0.00000  Uiso   1.00
C546   C     0.64479   0.21383   0.55273   0.00000  Uiso   1.00
C547   C     0.37060   0.13256   0.90289   0.00000  Uiso   1.00
C548   C     0.62940   0.20077   0.59711   0.00000  Uiso   1.00
C549   C     0.47956   0.17142   0.90689   0.00000  Uiso   1.00
C550   C     0.52044   0.16192   0.59311   0.00000  Uiso   1.00
C551   C     0.46388   0.16016   0.95184   0.00000  Uiso   1.00
C552   C     0.48493   0.06658   0.74870   0.00000  Uiso   1.00
C553   C     0.53612   0.17316   0.54816   0.00000  Uiso   1.00
C554   C     0.40102   0.13224   0.97136   0.00000  Uiso   1.00
C555   C     0.59898   0.20109   0.52864   0.00000  Uiso   1.00
C556   C     0.50918   0.17447   0.97759   0.00000  Uiso   1.00
C557   C     0.49082   0.15886   0.52240   0.00000  Uiso   1.00
C558   C     0.34849   0.21280   0.61949   0.00000  Uiso   1.00
C559   C     0.65151   0.12052   0.88051   0.00000  Uiso   1.00
C560   C     0.42793   0.12928   0.53982   0.00000  Uiso   1.00
C561   C     0.57207   0.20405   0.96018   0.00000  Uiso   1.00
C562   C     0.38400   0.11691   0.51489   0.00000  Uiso   1.00
C563   C     0.61600   0.21642   0.98511   0.00000  Uiso   1.00
C564   C     0.52355   0.32272   0.75194   0.00000  Uiso   1.00
C565   C     0.47645   0.01062   0.74806   0.00000  Uiso   1.00
C566   C     0.46042   0.16254   0.83346   0.00000  Uiso   1.00
Cu567  Cu    0.44071   0.16108   0.74516   0.00000  Uiso   1.00
Cu568  Cu    0.55929   0.17225   0.75483   0.00000  Uiso   1.00
H569   H     0.33607   0.09490   0.52993   0.00000  Uiso   1.00
H570   H     0.43109   0.32010   0.74438   0.00000  Uiso   1.00
H571   H     0.33459   0.20495   0.78435   0.00000  Uiso   1.00
H572   H     0.66541   0.12838   0.71565   0.00000  Uiso   1.00
H573   H     0.34837   0.18850   0.64573   0.00000  Uiso   1.00
H574   H     0.65163   0.14482   0.85427   0.00000  Uiso   1.00
H575   H     0.66393   0.23843   0.97006   0.00000  Uiso   1.00
H576   H     0.47261   0.14297   0.61010   0.00000  Uiso   1.00
H577   H     0.52739   0.19036   0.88990   0.00000  Uiso   1.00
H578   H     0.63997   0.09983   0.96351   0.00000  Uiso   1.00
H579   H     0.36004   0.23349   0.53649   0.00000  Uiso   1.00
H580   H     0.41046   0.11457   0.57274   0.00000  Uiso   1.00
H581   H     0.58954   0.21876   0.92725   0.00000  Uiso   1.00
H582   H     0.56891   0.01323   0.75562   0.00000  Uiso   1.00
N583   N     0.64839   0.18068   0.76212   0.00000  Uiso   1.00
N584   N     0.35161   0.15265   0.73788   0.00000  Uiso   1.00
O585   O     0.46148   0.23809   0.74686   0.00000  Uiso   1.00
O586   O     0.60561   0.08395   0.89248   0.00000  Uiso   1.00
O587   O     0.53852   0.09524   0.75314   0.00000  Uiso   1.00
O588   O     0.56163   0.24753   0.75502   0.00000  Uiso   1.00
O589   O     0.43837   0.08580   0.74497   0.00000  Uiso   1.00
O590   O     0.42185   0.15930   0.80854   0.00000  Uiso   1.00
O591   O     0.57815   0.17403   0.69145   0.00000  Uiso   1.00
O592   O     0.52199   0.16874   0.81671   0.00000  Uiso   1.00
O593   O     0.47801   0.16460   0.68329   0.00000  Uiso   1.00
O594   O     0.39440   0.24937   0.60752   0.00000  Uiso   1.00
C595   C     0.84840   0.26675   0.75130   0.00000  Uiso   1.00
C596   C     0.87291   0.17079   0.66654   0.00000  Uiso   1.00
C597   C     0.76824   0.15672   0.88177   0.00000  Uiso   1.00
C598   C     0.89842   0.17661   0.61823   0.00000  Uiso   1.00
C599   C     0.68855   0.11949   0.94727   0.00000  Uiso   1.00
C600   C     0.97812   0.21383   0.55273   0.00000  Uiso   1.00
C601   C     0.70394   0.13256   0.90289   0.00000  Uiso   1.00
C602   C     0.96273   0.20077   0.59711   0.00000  Uiso   1.00
C603   C     0.81289   0.17142   0.90689   0.00000  Uiso   1.00
C604   C     0.85377   0.16192   0.59311   0.00000  Uiso   1.00
C605   C     0.79721   0.16016   0.95184   0.00000  Uiso   1.00
C606   C     0.81827   0.06658   0.74870   0.00000  Uiso   1.00
C607   C     0.86945   0.17316   0.54816   0.00000  Uiso   1.00
C608   C     0.73436   0.13224   0.97136   0.00000  Uiso   1.00
C609   C     0.93231   0.20109   0.52864   0.00000  Uiso   1.00
C610   C     0.84252   0.17447   0.97759   0.00000  Uiso   1.00
C611   C     0.82415   0.15886   0.52240   0.00000  Uiso   1.00
C612   C     0.68182   0.21280   0.61949   0.00000  Uiso   1.00
C613   C     0.98485   0.12052   0.88051   0.00000  Uiso   1.00
C614   C     0.76126   0.12928   0.53982   0.00000  Uiso   1.00
C615   C     0.90541   0.20405   0.96018   0.00000  Uiso   1.00
C616   C     0.71734   0.11691   0.51489   0.00000  Uiso   1.00
C617   C     0.94933   0.21642   0.98511   0.00000  Uiso   1.00
C618   C     0.85688   0.32272   0.75194   0.00000  Uiso   1.00
C619   C     0.80979   0.01062   0.74806   0.00000  Uiso   1.00
C620   C     0.79375   0.16254   0.83346   0.00000  Uiso   1.00
Cu621  Cu    0.77404   0.16108   0.74516   0.00000  Uiso   1.00
Cu622  Cu    0.89263   0.17225   0.75483   0.00000  Uiso   1.00
H623   H     0.66941   0.09490   0.52993   0.00000  Uiso   1.00
H624   H     0.76442   0.32010   0.74438   0.00000  Uiso   1.00
H625   H     0.66792   0.20495   0.78435   0.00000  Uiso   1.00
H626   H     0.99874   0.12838   0.71565   0.00000  Uiso   1.00
H627   H     0.68170   0.18850   0.64573   0.00000  Uiso   1.00
H628   H     0.98496   0.14482   0.85427   0.00000  Uiso   1.00
H629   H     0.99727   0.23843   0.97006   0.00000  Uiso   1.00
H630   H     0.80595   0.14297   0.61010   0.00000  Uiso   1.00
H631   H     0.86072   0.19036   0.88990   0.00000  Uiso   1.00
H632   H     0.97330   0.09983   0.96351   0.00000  Uiso   1.00
H633   H     0.69337   0.23349   0.53649   0.00000  Uiso   1.00
H634   H     0.74380   0.11457   0.57274   0.00000  Uiso   1.00
H635   H     0.92288   0.21876   0.92725   0.00000  Uiso   1.00
H636   H     0.90224   0.01323   0.75562   0.00000  Uiso   1.00
N637   N     0.98173   0.18068   0.76212   0.00000  Uiso   1.00
N638   N     0.68494   0.15265   0.73788   0.00000  Uiso   1.00
O639   O     0.79482   0.23809   0.74686   0.00000  Uiso   1.00
O640   O     0.93894   0.08395   0.89248   0.00000  Uiso   1.00
O641   O     0.87185   0.09524   0.75314   0.00000  Uiso   1.00
O642   O     0.89496   0.24753   0.75502   0.00000  Uiso   1.00
O643   O     0.77171   0.08580   0.74497   0.00000  Uiso   1.00
O644   O     0.75518   0.15930   0.80854   0.00000  Uiso   1.00
O645   O     0.91149   0.17403   0.69145   0.00000  Uiso   1.00
O646   O     0.85532   0.16874   0.81671   0.00000  Uiso   1.00
O647   O     0.81134   0.16460   0.68329   0.00000  Uiso   1.00
O648   O     0.72773   0.24937   0.60752   0.00000  Uiso   1.00
C649   C     0.18173   0.60008   0.75130   0.00000  Uiso   1.00
C650   C     0.20625   0.50412   0.66654   0.00000  Uiso   1.00
C651   C     0.10157   0.49005   0.88177   0.00000  Uiso   1.00
C652   C     0.23176   0.50995   0.61823   0.00000  Uiso   1.00
C653   C     0.02188   0.45283   0.94727   0.00000  Uiso   1.00
C654   C     0.31145   0.54716   0.55273   0.00000  Uiso   1.00
C655   C     0.03727   0.46589   0.90289   0.00000  Uiso   1.00
C656   C     0.29606   0.53410   0.59711   0.00000  Uiso   1.00
C657   C     0.14623   0.50475   0.90689   0.00000  Uiso   1.00
C658   C     0.18711   0.49525   0.59311   0.00000  Uiso   1.00
C659   C     0.13055   0.49350   0.95184   0.00000  Uiso   1.00
C660   C     0.15160   0.39992   0.74870   0.00000  Uiso   1.00
C661   C     0.20279   0.50650   0.54816   0.00000  Uiso   1.00
C662   C     0.06769   0.46557   0.97136   0.00000  Uiso   1.00
C663   C     0.26565   0.53442   0.52864   0.00000  Uiso   1.00
C664   C     0.17585   0.50781   0.97759   0.00000  Uiso   1.00
C665   C     0.15749   0.49219   0.52240   0.00000  Uiso   1.00
C666   C     0.01515   0.54614   0.61949   0.00000  Uiso   1.00
C667   C     0.31818   0.45385   0.88051   0.00000  Uiso   1.00
C668   C     0.09460   0.46261   0.53982   0.00000  Uiso   1.00
C669   C     0.23874   0.53738   0.96018   0.00000  Uiso   1.00
C670   C     0.05067   0.45024   0.51489   0.00000  Uiso   1.00
C671   C     0.28267   0.54975   0.98511   0.00000  Uiso   1.00
C672   C     0.19021   0.65605   0.75194   0.00000  Uiso   1.00
C673   C     0.14312   0.34395   0.74806   0.00000  Uiso   1.00
C674   C     0.12709   0.49588   0.83346   0.00000  Uiso   1.00
Cu675  Cu    0.10737   0.49441   0.74516   0.00000  Uiso   1.00
Cu676  Cu    0.22596   0.50559   0.75483   0.00000  Uiso   1.00
H677   H     0.00274   0.42823   0.52993   0.00000  Uiso   1.00
H678   H     0.09776   0.65343   0.74438   0.00000  Uiso   1.00
H679   H     0.00125   0.53828   0.78435   0.00000  Uiso   1.00
H680   H     0.33208   0.46172   0.71565   0.00000  Uiso   1.00
H681   H     0.01504   0.52183   0.64573   0.00000  Uiso   1.00
H682   H     0.31829   0.47815   0.85427   0.00000  Uiso   1.00
H683   H     0.33060   0.57176   0.97006   0.00000  Uiso   1.00
H684   H     0.13928   0.47631   0.61010   0.00000  Uiso   1.00
H685   H     0.19405   0.52370   0.88990   0.00000  Uiso   1.00
H686   H     0.30663   0.43317   0.96351   0.00000  Uiso   1.00
H687   H     0.02670   0.56682   0.53649   0.00000  Uiso   1.00
H688   H     0.07713   0.44790   0.57274   0.00000  Uiso   1.00
H689   H     0.25621   0.55209   0.92725   0.00000  Uiso   1.00
H690   H     0.23558   0.34657   0.75562   0.00000  Uiso   1.00
N691   N     0.31506   0.51401   0.76212   0.00000  Uiso   1.00
N692   N     0.01827   0.48599   0.73788   0.00000  Uiso   1.00
O693   O     0.12815   0.57142   0.74686   0.00000  Uiso   1.00
O694   O     0.27227   0.41728   0.89248   0.00000  Uiso   1.00
O695   O     0.20518   0.42858   0.75314   0.00000  Uiso   1.00
O696   O     0.22829   0.58086   0.75502   0.00000  Uiso   1.00
O697   O     0.10504   0.41914   0.74497   0.00000  Uiso   1.00
O698   O     0.08851   0.49263   0.80854   0.00000  Uiso   1.00
O699   O     0.24482   0.50737   0.69145   0.00000  Uiso   1.00
O700   O     0.18866   0.50207   0.81671   0.00000  Uiso   1.00
O701   O     0.14468   0.49793   0.68329   0.00000  Uiso   1.00
O702   O     0.06106   0.58270   0.60752   0.00000  Uiso   1.00
C703   C     0.51507   0.60008   0.75130   0.00000  Uiso   1.00
C704   C     0.53958   0.50412   0.66654   0.00000  Uiso   1.00
C705   C     0.43491   0.49005   0.88177   0.00000  Uiso   1.00
C706   C     0.56509   0.50995   0.61823   0.00000  Uiso   1.00
C707   C     0.35522   0.45283   0.94727   0.00000  Uiso   1.00
C708   C     0.64479   0.54716   0.55273   0.00000  Uiso   1.00
C709   C     0.37060   0.46589   0.90289   0.00000  Uiso   1.00
C710   C     0.62940   0.53410   0.59711   0.00000  Uiso   1.00
C711   C     0.47956   0.50475   0.90689   0.00000  Uiso   1.00
C712   C     0.52044   0.49525   0.59311   0.00000  Uiso   1.00
C713   C     0.46388   0.49350   0.95184   0.00000  Uiso   1.00
C714   C     0.48493   0.39992   0.74870   0.00000  Uiso   1.00
C715   C     0.53612   0.50650   0.54816   0.00000  Uiso   1.00
C716   C     0.40102   0.46557   0.97136   0.00000  Uiso   1.00
C717   C     0.59898   0.53442   0.52864   0.00000  Uiso   1.00
C718   C     0.50918   0.50781   0.97759   0.00000  Uiso   1.00
C719   C     0.49082   0.49219   0.52240   0.00000  Uiso   1.00
C720   C     0.34849   0.54614   0.61949   0.00000  Uiso   1.00
C721   C     0.65151   0.45385   0.88051   0.00000  Uiso   1.00
C722   C     0.42793   0.46261   0.53982   0.00000  Uiso   1.00
C723   C     0.57207   0.53738   0.96018   0.00000  Uiso   1.00
C724   C     0.38400   0.45024   0.51489   0.00000  Uiso   1.00
C725   C     0.61600   0.54975   0.98511   0.00000  Uiso   1.00
C726   C     0.52355   0.65605   0.75194   0.00000  Uiso   1.00
C727   C     0.47645   0.34395   0.74806   0.00000  Uiso   1.00
C728   C     0.46042   0.49588   0.83346   0.00000  Uiso   1.00
Cu729  Cu    0.44071   0.49441   0.74516   0.00000  Uiso   1.00
Cu730  Cu    0.55929   0.50559   0.75483   0.00000  Uiso   1.00
H731   H     0.33607   0.42823   0.52993   0.00000  Uiso   1.00
H732   H     0.43109   0.65343   0.74438   0.00000  Uiso   1.00
H733   H     0.33459   0.53828   0.78435   0.00000  Uiso   1.00
H734   H     0.66541   0.46172   0.71565   0.00000  Uiso   1.00
H735   H     0.34837   0.52183   0.64573   0.00000  Uiso   1.00
H736   H     0.65163   0.47815   0.85427   0.00000  Uiso   1.00
H737   H     0.66393   0.57176   0.97006   0.00000  Uiso   1.00
H738   H     0.47261   0.47631   0.61010   0.00000  Uiso   1.00
H739   H     0.52739   0.52370   0.88990   0.00000  Uiso   1.00
H740   H     0.63997   0.43317   0.96351   0.00000  Uiso   1.00
H741   H     0.36004   0.56682   0.53649   0.00000  Uiso   1.00
H742   H     0.41046   0.44790   0.57274   0.00000  Uiso   1.00
H743   H     0.58954   0.55209   0.92725   0.00000  Uiso   1.00
H744   H     0.56891   0.34657   0.75562   0.00000  Uiso   1.00
N745   N     0.64839   0.51401   0.76212   0.00000  Uiso   1.00
N746   N     0.35161   0.48599   0.73788   0.00000  Uiso   1.00
O747   O     0.46148   0.57142   0.74686   0.00000  Uiso   1.00
O748   O     0.60561   0.41728   0.89248   0.00000  Uiso   1.00
O749   O     0.53852   0.42858   0.75314   0.00000  Uiso   1.00
O750   O     0.56163   0.58086   0.75502   0.00000  Uiso   1.00
O751   O     0.43837   0.41914   0.74497   0.00000  Uiso   1.00
O752   O     0.42185   0.49263   0.80854   0.00000  Uiso   1.00
O753   O     0.57815   0.50737   0.69145   0.00000  Uiso   1.00
O754   O     0.52199   0.50207   0.81671   0.00000  Uiso   1.00
O755   O     0.47801   0.49793   0.68329   0.00000  Uiso   1.00
O756   O     0.39440   0.58270   0.60752   0.00000  Uiso   1.00
C757   C     0.84840   0.60008   0.75130   0.00000  Uiso   1.00
C758   C     0.87291   0.50412   0.66654   0.00000  Uiso   1.00
C759   C     0.76824   0.49005   0.88177   0.00000  Uiso   1.00
C760   C     0.89842   0.50995   0.61823   0.00000  Uiso   1.00
C761   C     0.68855   0.45283   0.94727   0.00000  Uiso   1.00
C762   C     0.97812   0.54716   0.55273   0.00000  Uiso   1.00
C763   C     0.70394   0.46589   0.90289   0.00000  Uiso   1.00
C764   C     0.96273   0.53410   0.59711   0.00000  Uiso   1.00
C765   C     0.81289   0.50475   0.90689   0.00000  Uiso   1.00
C766   C     0.85377   0.49525   0.59311   0.00000  Uiso   1.00
C767   C     0.79721   0.49350   0.95184   0.00000  Uiso   1.00
C768   C     0.81827   0.39992   0.74870   0.00000  Uiso   1.00
C769   C     0.86945   0.50650   0.54816   0.00000  Uiso   1.00
C770   C     0.73436   0.46557   0.97136   0.00000  Uiso   1.00
C771   C     0.93231   0.53442   0.52864   0.00000  Uiso   1.00
C772   C     0.84252   0.50781   0.97759   0.00000  Uiso   1.00
C773   C     0.82415   0.49219   0.52240   0.00000  Uiso   1.00
C774   C     0.68182   0.54614   0.61949   0.00000  Uiso   1.00
C775   C     0.98485   0.45385   0.88051   0.00000  Uiso   1.00
C776   C     0.76126   0.46261   0.53982   0.00000  Uiso   1.00
C777   C     0.90541   0.53738   0.96018   0.00000  Uiso   1.00
C778   C     0.71734   0.45024   0.51489   0.00000  Uiso   1.00
C779   C     0.94933   0.54975   0.98511   0.00000  Uiso   1.00
C780   C     0.85688   0.65605   0.75194   0.00000  Uiso   1.00
C781   C     0.80979   0.34395   0.74806   0.00000  Uiso   1.00
C782   C     0.79375   0.49588   0.83346   0.00000  Uiso   1.00
Cu783  Cu    0.77404   0.49441   0.74516   0.00000  Uiso   1.00
Cu784  Cu    0.89263   0.50559   0.75483   0.00000  Uiso   1.00
H785   H     0.66941   0.42823   0.52993   0.00000  Uiso   1.00
H786   H     0.76442   0.65343   0.74438   0.00000  Uiso   1.00
H787   H     0.66792   0.53828   0.78435   0.00000  Uiso   1.00
H788   H     0.99874   0.46172   0.71565   0.00000  Uiso   1.00
H789   H     0.68170   0.52183   0.64573   0.00000  Uiso   1.00
H790   H     0.98496   0.47815   0.85427   0.00000  Uiso   1.00
H791   H     0.99727   0.57176   0.97006   0.00000  Uiso   1.00
H792   H     0.80595   0.47631   0.61010   0.00000  Uiso   1.00
H793   H     0.86072   0.52370   0.88990   0.00000  Uiso   1.00
H794   H     0.97330   0.43317   0.96351   0.00000  Uiso   1.00
H795   H     0.69337   0.56682   0.53649   0.00000  Uiso   1.00
H796   H     0.74380   0.44790   0.57274   0.00000  Uiso   1.00
H797   H     0.92288   0.55209   0.92725   0.00000  Uiso   1.00
H798   H     0.90224   0.34657   0.75562   0.00000  Uiso   1.00
N799   N     0.98173   0.51401   0.76212   0.00000  Uiso   1.00
N800   N     0.68494   0.48599   0.73788   0.00000  Uiso   1.00
O801   O     0.79482   0.57142   0.74686   0.00000  Uiso   1.00
O802   O     0.93894   0.41728   0.89248   0.00000  Uiso   1.00
O803   O     0.87185   0.42858   0.75314   0.00000  Uiso   1.00
O804   O     0.89496   0.58086   0.75502   0.00000  Uiso   1.00
O805   O     0.77171   0.41914   0.74497   0.00000  Uiso   1.00
O806   O     0.75518   0.49263   0.80854   0.00000  Uiso   1.00
O807   O     0.91149   0.50737   0.69145   0.00000  Uiso   1.00
O808   O     0.85532   0.50207   0.81671   0.00000  Uiso   1.00
O809   O     0.81134   0.49793   0.68329   0.00000  Uiso   1.00
O810   O     0.72773   0.58270   0.60752   0.00000  Uiso   1.00
C811   C     0.18173   0.93342   0.75130   0.00000  Uiso   1.00
C812   C     0.20625   0.83746   0.66654   0.00000  Uiso   1.00
C813   C     0.10157   0.82338   0.88177   0.00000  Uiso   1.00
C814   C     0.23176   0.84328   0.61823   0.00000  Uiso   1.00
C815   C     0.02188   0.78616   0.94727   0.00000  Uiso   1.00
C816   C     0.31145   0.88050   0.55273   0.00000  Uiso   1.00
C817   C     0.03727   0.79923   0.90289   0.00000  Uiso   1.00
C818   C     0.29606   0.86743   0.59711   0.00000  Uiso   1.00
C819   C     0.14623   0.83808   0.90689   0.00000  Uiso   1.00
C820   C     0.18711   0.82858   0.59311   0.00000  Uiso   1.00
C821   C     0.13055   0.82683   0.95184   0.00000  Uiso   1.00
C822   C     0.15160   0.73325   0.74870   0.00000  Uiso   1.00
C823   C     0.20279   0.83983   0.54816   0.00000  Uiso   1.00
C824   C     0.06769   0.79891   0.97136   0.00000  Uiso   1.00
C825   C     0.26565   0.86775   0.52864   0.00000  Uiso   1.00
C826   C     0.17585   0.84114   0.97759   0.00000  Uiso   1.00
C827   C     0.15749   0.82552   0.52240   0.00000  Uiso   1.00
C828   C     0.01515   0.87947   0.61949   0.00000  Uiso   1.00
C829   C     0.31818   0.78718   0.88051   0.00000  Uiso   1.00
C830   C     0.09460   0.79594   0.53982   0.00000  Uiso   1.00
C831   C     0.23874   0.87072   0.96018   0.00000  Uiso   1.00
C832   C     0.05067   0.78357   0.51489   0.00000  Uiso   1.00
C833   C     0.28267   0.88308   0.98511   0.00000  Uiso   1.00
C834   C     0.19021   0.98938   0.75194   0.00000  Uiso   1.00
C835   C     0.14312   0.67728   0.74806   0.00000  Uiso   1.00
C836   C     0.12709   0.82921   0.83346   0.00000  Uiso   1.00
Cu837  Cu    0.10737   0.82775   0.74516   0.00000  Uiso   1.00
Cu838  Cu    0.22596   0.83892   0.75483   0.00000  Uiso   1.00
H839   H     0.00274   0.76156   0.52993   0.00000  Uiso   1.00
H840   H     0.09776   0.98677   0.74438   0.00000  Uiso   1.00
H841   H     0.00125   0.87162   0.78435   0.00000  Uiso   1.00
H842   H     0.33208   0.79505   0.71565   0.00000  Uiso   1.00
H843   H     0.01504   0.85516   0.64573   0.00000  Uiso   1.00
H844   H     0.31829   0.81149   0.85427   0.00000  Uiso   1.00
H845   H     0.33060   0.90509   0.97006   0.00000  Uiso   1.00
H846   H     0.13928   0.80964   0.61010   0.00000  Uiso   1.00
H847   H     0.19405   0.85703   0.88990   0.00000  Uiso   1.00
H848   H     0.30663   0.76650   0.96351   0.00000  Uiso   1.00
H849   H     0.02670   0.90016   0.53649   0.00000  Uiso   1.00
H850   H     0.07713   0.78124   0.57274   0.00000  Uiso   1.00
H851   H     0.25621   0.88542   0.92725   0.00000  Uiso   1.00
H852   H     0.23558   0.67990   0.75562   0.00000  Uiso   1.00
N853   N     0.31506   0.84735   0.76212   0.00000  Uiso   1.00
N854   N     0.01827   0.81932   0.73788   0.00000  Uiso   1.00
O855   O     0.12815   0.90476   0.74686   0.00000  Uiso   1.00
O856   O     0.27227   0.75061   0.89248   0.00000  Uiso   1.00
O857   O     0.20518   0.76191   0.75314   0.00000  Uiso   1.00
O858   O     0.22829   0.91420   0.75502   0.00000  Uiso   1.00
O859   O     0.10504   0.75247   0.74497   0.00000  Uiso   1.00
O860   O     0.08851   0.82597   0.80854   0.00000  Uiso   1.00
O861   O     0.24482   0.84070   0.69145   0.00000  Uiso   1.00
O862   O     0.18866   0.83540   0.81671   0.00000  Uiso   1.00
O863   O     0.14468   0.83126   0.68329   0.00000  Uiso   1.00
O864   O     0.06106   0.91604   0.60752   0.00000  Uiso   1.00
C865   C     0.51507   0.93342   0.75130   0.00000  Uiso   1.00
C866   C     0.53958   0.83746   0.66654   0.00000  Uiso   1.00
C867   C     0.43491   0.82338   0.88177   0.00000  Uiso   1.00
C868   C     0.56509   0.84328   0.61823   0.00000  Uiso   1.00
C869   C     0.35522   0.78616   0.94727   0.00000  Uiso   1.00
C870   C     0.64479   0.88050   0.55273   0.00000  Uiso   1.00
C871   C     0.37060   0.79923   0.90289   0.00000  Uiso   1.00
C872   C     0.62940   0.86743   0.59711   0.00000  Uiso   1.00
C873   C     0.47956   0.83808   0.90689   0.00000  Uiso   1.00
C874   C     0.52044   0.82858   0.59311   0.00000  Uiso   1.00
C875   C     0.46388   0.82683   0.95184   0.00000  Uiso   1.00
C876   C     0.48493   0.73325   0.74870   0.00000  Uiso   1.00
C877   C     0.53612   0.83983   0.54816   0.00000  Uiso   1.00
C878   C     0.40102   0.79891   0.97136   0.00000  Uiso   1.00
C879   C     0.59898   0.86775   0.52864   0.00000  Uiso   1.00
C880   C     0.50918   0.84114   0.97759   0.00000  Uiso   1.00
C881   C     0.49082   0.82552   0.52240   0.00000  Uiso   1.00
C882   C     0.34849   0.87947   0.61949   0.00000  Uiso   1.00
C883   C     0.65151   0.78718   0.88051   0.00000  Uiso   1.00
C884   C     0.42793   0.79594   0.53982   0.00000  Uiso   1.00
C885   C     0.57207   0.87072   0.96018   0.00000  Uiso   1.00
C886   C     0.38400   0.78357   0.51489   0.00000  Uiso   1.00
C887   C     0.61600   0.88308   0.98511   0.00000  Uiso   1.00
C888   C     0.52355   0.98938   0.75194   0.00000  Uiso   1.00
C889   C     0.47645   0.67728   0.74806   0.00000  Uiso   1.00
C890   C     0.46042   0.82921   0.83346   0.00000  Uiso   1.00
Cu891  Cu    0.44071   0.82775   0.74516   0.00000  Uiso   1.00
Cu892  Cu    0.55929   0.83892   0.75483   0.00000  Uiso   1.00
H893   H     0.33607   0.76156   0.52993   0.00000  Uiso   1.00
H894   H     0.43109   0.98677   0.74438   0.00000  Uiso   1.00
H895   H     0.33459   0.87162   0.78435   0.00000  Uiso   1.00
H896   H     0.66541   0.79505   0.71565   0.00000  Uiso   1.00
H897   H     0.34837   0.85516   0.64573   0.00000  Uiso   1.00
H898   H     0.65163   0.81149   0.85427   0.00000  Uiso   1.00
H899   H     0.66393   0.90509   0.97006   0.00000  Uiso   1.00
H900   H     0.47261   0.80964   0.61010   0.00000  Uiso   1.00
H901   H     0.52739   0.85703   0.88990   0.00000  Uiso   1.00
H902   H     0.63997   0.76650   0.96351   0.00000  Uiso   1.00
H903   H     0.36004   0.90016   0.53649   0.00000  Uiso   1.00
H904   H     0.41046   0.78124   0.57274   0.00000  Uiso   1.00
H905   H     0.58954   0.88542   0.92725   0.00000  Uiso   1.00
H906   H     0.56891   0.67990   0.75562   0.00000  Uiso   1.00
N907   N     0.64839   0.84735   0.76212   0.00000  Uiso   1.00
N908   N     0.35161   0.81932   0.73788   0.00000  Uiso   1.00
O909   O     0.46148   0.90476   0.74686   0.00000  Uiso   1.00
O910   O     0.60561   0.75061   0.89248   0.00000  Uiso   1.00
O911   O     0.53852   0.76191   0.75314   0.00000  Uiso   1.00
O912   O     0.56163   0.91420   0.75502   0.00000  Uiso   1.00
O913   O     0.43837   0.75247   0.74497   0.00000  Uiso   1.00
O914   O     0.42185   0.82597   0.80854   0.00000  Uiso   1.00
O915   O     0.57815   0.84070   0.69145   0.00000  Uiso   1.00
O916   O     0.52199   0.83540   0.81671   0.00000  Uiso   1.00
O917   O     0.47801   0.83126   0.68329   0.00000  Uiso   1.00
O918   O     0.39440   0.91604   0.60752   0.00000  Uiso   1.00
C919   C     0.84840   0.93342   0.75130   0.00000  Uiso   1.00
C920   C     0.87291   0.83746   0.66654   0.00000  Uiso   1.00
C921   C     0.76824   0.82338   0.88177   0.00000  Uiso   1.00
C922   C     0.89842   0.84328   0.61823   0.00000  Uiso   1.00
C923   C     0.68855   0.78616   0.94727   0.00000  Uiso   1.00
C924   C     0.97812   0.88050   0.55273   0.00000  Uiso   1.00
C925   C     0.70394   0.79923   0.90289   0.00000  Uiso   1.00
C926   C     0.96273   0.86743   0.59711   0.00000  Uiso   1.00
C927   C     0.81289   0.83808   0.90689   0.00000  Uiso   1.00
C928   C     0.85377   0.82858   0.59311   0.00000  Uiso   1.00
C929   C     0.79721   0.82683   0.95184   0.00000  Uiso   1.00
C930   C     0.81827   0.73325   0.74870   0.00000  Uiso   1.00
C931   C     0.86945   0.83983   0.54816   0.00000  Uiso   1.00
C932   C     0.73436   0.79891   0.97136   0.00000  Uiso   1.00
C933   C     0.93231   0.86775   0.52864   0.00000  Uiso   1.00
C934   C     0.84252   0.84114   0.97759   0.00000  Uiso   1.00
C935   C     0.82415   0.82552   0.52240   0.00000  Uiso   1.00
C936   C     0.68182   0.87947   0.61949   0.00000  Uiso   1.00
C937   C     0.98485   0.78718   0.88051   0.00000  Uiso   1.00
C938   C     0.76126   0.79594   0.53982   0.00000  Uiso   1.00
C939   C     0.90541   0.87072   0.96018   0.00000  Uiso   1.00
C940   C     0.71734   0.78357   0.51489   0.00000  Uiso   1.00
C941   C     0.94933   0.88308   0.98511   0.00000  Uiso   1.00
C942   C     0.85688   0.98938   0.75194   0.00000  Uiso   1.00
C943   C     0.80979   0.67728   0.74806   0.00000  Uiso   1.00
C944   C     0.79375   0.82921   0.83346   0.00000  Uiso   1.00
Cu945  Cu    0.77404   0.82775   0.74516   0.00000  Uiso   1.00
Cu946  Cu    0.89263   0.83892   0.75483   0.00000  Uiso   1.00
H947   H     0.66941   0.76156   0.52993   0.00000  Uiso   1.00
H948   H     0.76442   0.98677   0.74438   0.00000  Uiso   1.00
H949   H     0.66792   0.87162   0.78435   0.00000  Uiso   1.00
H950   H     0.99874   0.79505   0.71565   0.00000  Uiso   1.00
H951   H     0.68170   0.85516   0.64573   0.00000  Uiso   1.00
H952   H     0.98496   0.81149   0.85427   0.00000  Uiso   1.00
H953   H     0.99727   0.90509   0.97006   0.00000  Uiso   1.00
H954   H     0.80595   0.80964   0.61010   0.00000  Uiso   1.00
H955   H     0.86072   0.85703   0.88990   0.00000  Uiso   1.00
H956   H     0.97330   0.76650   0.96351   0.00000  Uiso   1.00
H957   H     0.69337   0.90016   0.53649   0.00000  Uiso   1.00
H958   H     0.74380   0.78124   0.57274   0.00000  Uiso   1.00
H959   H     0.92288   0.88542   0.92725   0.00000  Uiso   1.00
H960   H     0.90224   0.67990   0.75562   0.00000  Uiso   1.00
N961   N     0.98173   0.84735   0.76212   0.00000  Uiso   1.00
N962   N     0.68494   0.81932   0.73788   0.00000  Uiso   1.00
O963   O     0.79482   0.90476   0.74686   0.00000  Uiso   1.00
O964   O     0.93894   0.75061   0.89248   0.00000  Uiso   1.00
O965   O     0.87185   0.76191   0.75314   0.00000  Uiso   1.00
O966   O     0.89496   0.91420   0.75502   0.00000  Uiso   1.00
O967   O     0.77171   0.75247   0.74497   0.00000  Uiso   1.00
O968   O     0.75518   0.82597   0.80854   0.00000  Uiso   1.00
O969   O     0.91149   0.84070   0.69145   0.00000  Uiso   1.00
O970   O     0.85532   0.83540   0.81671   0.00000  Uiso   1.00
O971   O     0.81134   0.83126   0.68329   0.00000  Uiso   1.00
O972   O     0.72773   0.91604   0.60752   0.00000  Uiso   1.00
loop_
_geom_bond_atom_site_label_1
_geom_bond_atom_site_label_2
_geom_bond_distance
_geom_bond_site_symmetry_2
_ccdc_geom_bond_type
C1     O48     1.285   .     A
C1     O45     1.290   .     A
C1     C24     1.428   .     S
C2     C4      1.486   .     S
C2     O51     1.300   .     A
C2     O53     1.304   .     A
C3     C9      1.405   .     A
C3     C7      1.421   .     A
C3     C26     1.486   .     S
C4     C8      1.421   .     A
C4     C10     1.405   .     A
C5     C14     1.400   .     A
C5     C7      1.402   .     A
C5     H146    1.085   1_455 S
C6     C8      1.402   .     A
C6     C15     1.400   .     A
C6     H93     1.085   .     S
C7     C127    1.486   1_455 S
C8     C72     1.486   .     S
C9     C11     1.407   .     A
C9     H37     1.073   .     S
C10    C13     1.407   .     A
C10    H36     1.073   .     S
C11    C16     1.431   .     A
C11    C14     1.413   .     A
C12    C25     1.428   .     S
C12    O49     1.285   .     A
C12    O47     1.290   .     A
C13    C17     1.431   .     A
C13    C15     1.413   .     A
C14    C508    1.390   .     S
C15    C509    1.390   1_554 S
C16    C21     1.416   .     A
C16    C503    1.429   .     S
C17    C20     1.416   .     A
C17    C502    1.429   1_554 S
C18    H33     1.081   .     S
C18    O54     1.222   .     D
C18    C116    1.486   1_455 S
C19    O46     1.222   .     D
C19    H34     1.081   .     S
C19    C61     1.486   .     S
C20    C22     1.385   .     A
C20    H40     1.075   .     S
C21    H41     1.075   .     S
C21    C23     1.385   .     A
C22    H29     1.085   .     S
C22    C500    1.390   1_554 S
C23    H35     1.085   .     S
C23    C501    1.390   .     S
C24    C187    1.329   .     S
C24    H204    1.088   .     S
C25    C348    1.329   1_545 S
C25    H354    1.088   1_545 S
C26    O52     1.304   .     A
C26    O50     1.300   .     A
Cu27   O53     1.910   .     S
Cu27   O50     1.938   .     S
Cu27   O45     1.956   .     S
Cu27   Cu28    2.684   .     S
Cu27   N44     2.017   .     S
Cu27   O49     1.953   .     S
Cu28   N43     2.017   .     S
Cu28   O47     1.956   .     S
Cu28   O51     1.938   .     S
Cu28   O48     1.953   .     S
Cu28   O52     1.910   .     S
H30    C187    1.088   .     S
H31    N151    1.029   1_455 S
H32    N98     1.029   .     S
H38    C59     1.085   .     S
H39    C114    1.085   1_455 S
H42    C348    1.088   1_545 S
N43    H85     1.029   .     S
N43    N98     1.279   .     S
N44    H140    1.029   1_455 S
N44    N151    1.279   1_455 S
C55    O102    1.285   .     A
C55    O99     1.290   .     A
C55    C78     1.428   .     S
C56    C58     1.486   .     S
C56    O105    1.300   .     A
C56    O107    1.304   .     A
C57    C63     1.405   .     A
C57    C61     1.421   .     A
C57    C80     1.486   .     S
C58    C62     1.421   .     A
C58    C64     1.405   .     A
C59    C68     1.400   .     A
C59    C61     1.402   .     A
C60    C62     1.402   .     A
C60    C69     1.400   .     A
C60    H147    1.085   .     S
C62    C126    1.486   .     S
C63    C65     1.407   .     A
C63    H91     1.073   .     S
C64    C67     1.407   .     A
C64    H90     1.073   .     S
C65    C70     1.431   .     A
C65    C68     1.413   .     A
C66    C79     1.428   .     S
C66    O103    1.285   .     A
C66    O101    1.290   .     A
C67    C71     1.431   .     A
C67    C69     1.413   .     A
C68    C562    1.390   .     S
C69    C563    1.390   1_554 S
C70    C75     1.416   .     A
C70    C557    1.429   .     S
C71    C74     1.416   .     A
C71    C556    1.429   1_554 S
C72    H87     1.081   .     S
C72    O108    1.222   .     D
C73    O100    1.222   .     D
C73    H88     1.081   .     S
C73    C115    1.486   .     S
C74    C76     1.385   .     A
C74    H94     1.075   .     S
C75    H95     1.075   .     S
C75    C77     1.385   .     A
C76    H83     1.085   .     S
C76    C554    1.390   1_554 S
C77    H89     1.085   .     S
C77    C555    1.390   .     S
C78    C241    1.329   .     S
C78    H258    1.088   .     S
C79    C402    1.329   1_545 S
C79    H408    1.088   1_545 S
C80    O106    1.304   .     A
C80    O104    1.300   .     A
Cu81   O107    1.910   .     S
Cu81   O104    1.938   .     S
Cu81   O99     1.956   .     S
Cu81   Cu82    2.684   .     S
Cu81   N98     2.017   .     S
Cu81   O103    1.953   .     S
Cu82   N97     2.017   .     S
Cu82   O101    1.956   .     S
Cu82   O105    1.938   .     S
Cu82   O102    1.953   .     S
Cu82   O106    1.910   .     S
H84    C241    1.088   .     S
H86    N152    1.029   .     S
H92    C113    1.085   .     S
H96    C402    1.088   1_545 S
N97    H139    1.029   .     S
N97    N152    1.279   .     S
C109   O156    1.285   .     A
C109   O153    1.290   .     A
C109   C132    1.428   .     S
C110   C112    1.486   .     S
C110   O159    1.300   .     A
C110   O161    1.304   .     A
C111   C117    1.405   .     A
C111   C115    1.421   .     A
C111   C134    1.486   .     S
C112   C116    1.421   .     A
C112   C118    1.405   .     A
C113   C122    1.400   .     A
C113   C115    1.402   .     A
C114   C116    1.402   .     A
C114   C123    1.400   .     A
C114   H39     1.085   1_655 S
C116   C18     1.486   1_655 S
C117   C119    1.407   .     A
C117   H145    1.073   .     S
C118   C121    1.407   .     A
C118   H144    1.073   .     S
C119   C124    1.431   .     A
C119   C122    1.413   .     A
C120   C133    1.428   .     S
C120   O157    1.285   .     A
C120   O155    1.290   .     A
C121   C125    1.431   .     A
C121   C123    1.413   .     A
C122   C616    1.390   .     S
C123   C617    1.390   1_554 S
C124   C129    1.416   .     A
C124   C611    1.429   .     S
C125   C128    1.416   .     A
C125   C610    1.429   1_554 S
C126   H141    1.081   .     S
C126   O162    1.222   .     D
C127   O154    1.222   .     D
C127   H142    1.081   .     S
C127   C7      1.486   1_655 S
C128   C130    1.385   .     A
C128   H148    1.075   .     S
C129   H149    1.075   .     S
C129   C131    1.385   .     A
C130   H137    1.085   .     S
C130   C608    1.390   1_554 S
C131   H143    1.085   .     S
C131   C609    1.390   .     S
C132   C295    1.329   .     S
C132   H312    1.088   .     S
C133   C456    1.329   1_545 S
C133   H462    1.088   1_545 S
C134   O160    1.304   .     A
C134   O158    1.300   .     A
Cu135  O161    1.910   .     S
Cu135  O158    1.938   .     S
Cu135  O153    1.956   .     S
Cu135  Cu136   2.684   .     S
Cu135  N152    2.017   .     S
Cu135  O157    1.953   .     S
Cu136  N151    2.017   .     S
Cu136  O155    1.956   .     S
Cu136  O159    1.938   .     S
Cu136  O156    1.953   .     S
Cu136  O160    1.910   .     S
H138   C295    1.088   .     S
H140   N44     1.029   1_655 S
H146   C5      1.085   1_655 S
H150   C456    1.088   1_545 S
N151   H31     1.029   1_655 S
N151   N44     1.279   1_655 S
C163   O210    1.285   .     A
C163   O207    1.290   .     A
C163   C186    1.428   .     S
C164   C166    1.486   .     S
C164   O213    1.300   .     A
C164   O215    1.304   .     A
C165   C171    1.405   .     A
C165   C169    1.421   .     A
C165   C188    1.486   .     S
C166   C170    1.421   .     A
C166   C172    1.405   .     A
C167   C176    1.400   .     A
C167   C169    1.402   .     A
C167   H308    1.085   1_455 S
C168   C170    1.402   .     A
C168   C177    1.400   .     A
C168   H255    1.085   .     S
C169   C289    1.486   1_455 S
C170   C234    1.486   .     S
C171   C173    1.407   .     A
C171   H199    1.073   .     S
C172   C175    1.407   .     A
C172   H198    1.073   .     S
C173   C178    1.431   .     A
C173   C176    1.413   .     A
C174   C187    1.428   .     S
C174   O211    1.285   .     A
C174   O209    1.290   .     A
C175   C179    1.431   .     A
C175   C177    1.413   .     A
C176   C670    1.390   .     S
C177   C671    1.390   1_554 S
C178   C183    1.416   .     A
C178   C665    1.429   .     S
C179   C182    1.416   .     A
C179   C664    1.429   1_554 S
C180   H195    1.081   .     S
C180   O216    1.222   .     D
C180   C278    1.486   1_455 S
C181   O208    1.222   .     D
C181   H196    1.081   .     S
C181   C223    1.486   .     S
C182   C184    1.385   .     A
C182   H202    1.075   .     S
C183   H203    1.075   .     S
C183   C185    1.385   .     A
C184   H191    1.085   .     S
C184   C662    1.390   1_554 S
C185   H197    1.085   .     S
C185   C663    1.390   .     S
C186   C349    1.329   .     S
C186   H366    1.088   .     S
C188   O214    1.304   .     A
C188   O212    1.300   .     A
Cu189  O215    1.910   .     S
Cu189  O212    1.938   .     S
Cu189  O207    1.956   .     S
Cu189  Cu190   2.684   .     S
Cu189  N206    2.017   .     S
Cu189  O211    1.953   .     S
Cu190  N205    2.017   .     S
Cu190  O209    1.956   .     S
Cu190  O213    1.938   .     S
Cu190  O210    1.953   .     S
Cu190  O214    1.910   .     S
H192   C349    1.088   .     S
H193   N313    1.029   1_455 S
H194   N260    1.029   .     S
H200   C221    1.085   .     S
H201   C276    1.085   1_455 S
N205   H247    1.029   .     S
N205   N260    1.279   .     S
N206   H302    1.029   1_455 S
N206   N313    1.279   1_455 S
C217   O264    1.285   .     A
C217   O261    1.290   .     A
C217   C240    1.428   .     S
C218   C220    1.486   .     S
C218   O267    1.300   .     A
C218   O269    1.304   .     A
C219   C225    1.405   .     A
C219   C223    1.421   .     A
C219   C242    1.486   .     S
C220   C224    1.421   .     A
C220   C226    1.405   .     A
C221   C230    1.400   .     A
C221   C223    1.402   .     A
C222   C224    1.402   .     A
C222   C231    1.400   .     A
C222   H309    1.085   .     S
C224   C288    1.486   .     S
C225   C227    1.407   .     A
C225   H253    1.073   .     S
C226   C229    1.407   .     A
C226   H252    1.073   .     S
C227   C232    1.431   .     A
C227   C230    1.413   .     A
C228   C241    1.428   .     S
C228   O265    1.285   .     A
C228   O263    1.290   .     A
C229   C233    1.431   .     A
C229   C231    1.413   .     A
C230   C724    1.390   .     S
C231   C725    1.390   1_554 S
C232   C237    1.416   .     A
C232   C719    1.429   .     S
C233   C236    1.416   .     A
C233   C718    1.429   1_554 S
C234   H249    1.081   .     S
C234   O270    1.222   .     D
C235   O262    1.222   .     D
C235   H250    1.081   .     S
C235   C277    1.486   .     S
C236   C238    1.385   .     A
C236   H256    1.075   .     S
C237   H257    1.075   .     S
C237   C239    1.385   .     A
C238   H245    1.085   .     S
C238   C716    1.390   1_554 S
C239   H251    1.085   .     S
C239   C717    1.390   .     S
C240   C403    1.329   .     S
C240   H420    1.088   .     S
C242   O268    1.304   .     A
C242   O266    1.300   .     A
Cu243  O269    1.910   .     S
Cu243  O266    1.938   .     S
Cu243  O261    1.956   .     S
Cu243  Cu244   2.684   .     S
Cu243  N260    2.017   .     S
Cu243  O265    1.953   .     S
Cu244  N259    2.017   .     S
Cu244  O263    1.956   .     S
Cu244  O267    1.938   .     S
Cu244  O264    1.953   .     S
Cu244  O268    1.910   .     S
H246   C403    1.088   .     S
H248   N314    1.029   .     S
H254   C275    1.085   .     S
N259   H301    1.029   .     S
N259   N314    1.279   .     S
C271   O318    1.285   .     A
C271   O315    1.290   .     A
C271   C294    1.428   .     S
C272   C274    1.486   .     S
C272   O321    1.300   .     A
C272   O323    1.304   .     A
C273   C279    1.405   .     A
C273   C277    1.421   .     A
C273   C296    1.486   .     S
C274   C278    1.421   .     A
C274   C280    1.405   .     A
C275   C284    1.400   .     A
C275   C277    1.402   .     A
C276   C278    1.402   .     A
C276   C285    1.400   .     A
C276   H201    1.085   1_655 S
C278   C180    1.486   1_655 S
C279   C281    1.407   .     A
C279   H307    1.073   .     S
C280   C283    1.407   .     A
C280   H306    1.073   .     S
C281   C286    1.431   .     A
C281   C284    1.413   .     A
C282   C295    1.428   .     S
C282   O319    1.285   .     A
C282   O317    1.290   .     A
C283   C287    1.431   .     A
C283   C285    1.413   .     A
C284   C778    1.390   .     S
C285   C779    1.390   1_554 S
C286   C291    1.416   .     A
C286   C773    1.429   .     S
C287   C290    1.416   .     A
C287   C772    1.429   1_554 S
C288   H303    1.081   .     S
C288   O324    1.222   .     D
C289   O316    1.222   .     D
C289   H304    1.081   .     S
C289   C169    1.486   1_655 S
C290   C292    1.385   .     A
C290   H310    1.075   .     S
C291   H311    1.075   .     S
C291   C293    1.385   .     A
C292   H299    1.085   .     S
C292   C770    1.390   1_554 S
C293   H305    1.085   .     S
C293   C771    1.390   .     S
C294   C457    1.329   .     S
C294   H474    1.088   .     S
C296   O322    1.304   .     A
C296   O320    1.300   .     A
Cu297  O323    1.910   .     S
Cu297  O320    1.938   .     S
Cu297  O315    1.956   .     S
Cu297  Cu298   2.684   .     S
Cu297  N314    2.017   .     S
Cu297  O319    1.953   .     S
Cu298  N313    2.017   .     S
Cu298  O317    1.956   .     S
Cu298  O321    1.938   .     S
Cu298  O318    1.953   .     S
Cu298  O322    1.910   .     S
H300   C457    1.088   .     S
H302   N206    1.029   1_655 S
H308   C167    1.085   1_655 S
N313   H193    1.029   1_655 S
N313   N206    1.279   1_655 S
C325   O372    1.285   .     A
C325   O369    1.290   .     A
C325   C348    1.428   .     S
C326   C328    1.486   .     S
C326   O375    1.300   .     A
C326   O377    1.304   .     A
C327   C333    1.405   .     A
C327   C331    1.421   .     A
C327   C350    1.486   .     S
C328   C332    1.421   .     A
C328   C334    1.405   .     A
C329   C338    1.400   .     A
C329   C331    1.402   .     A
C329   H470    1.085   1_455 S
C330   C332    1.402   .     A
C330   C339    1.400   .     A
C330   H417    1.085   .     S
C331   C451    1.486   1_455 S
C332   C396    1.486   .     S
C333   C335    1.407   .     A
C333   H361    1.073   .     S
C334   C337    1.407   .     A
C334   H360    1.073   .     S
C335   C340    1.431   .     A
C335   C338    1.413   .     A
C336   C349    1.428   .     S
C336   O373    1.285   .     A
C336   O371    1.290   .     A
C337   C341    1.431   .     A
C337   C339    1.413   .     A
C338   C832    1.390   .     S
C339   C833    1.390   1_554 S
C340   C345    1.416   .     A
C340   C827    1.429   .     S
C341   C344    1.416   .     A
C341   C826    1.429   1_554 S
C342   H357    1.081   .     S
C342   O378    1.222   .     D
C342   C440    1.486   1_455 S
C343   O370    1.222   .     D
C343   H358    1.081   .     S
C343   C385    1.486   .     S
C344   C346    1.385   .     A
C344   H364    1.075   .     S
C345   H365    1.075   .     S
C345   C347    1.385   .     A
C346   H353    1.085   .     S
C346   C824    1.390   1_554 S
C347   H359    1.085   .     S
C347   C825    1.390   .     S
C348   C25     1.329   1_565 S
C348   H42     1.088   1_565 S
C350   O376    1.304   .     A
C350   O374    1.300   .     A
Cu351  O377    1.910   .     S
Cu351  O374    1.938   .     S
Cu351  O369    1.956   .     S
Cu351  Cu352   2.684   .     S
Cu351  N368    2.017   .     S
Cu351  O373    1.953   .     S
Cu352  N367    2.017   .     S
Cu352  O371    1.956   .     S
Cu352  O375    1.938   .     S
Cu352  O372    1.953   .     S
Cu352  O376    1.910   .     S
H354   C25     1.088   1_565 S
H355   N475    1.029   1_455 S
H356   N422    1.029   .     S
H362   C383    1.085   .     S
H363   C438    1.085   1_455 S
N367   H409    1.029   .     S
N367   N422    1.279   .     S
N368   H464    1.029   1_455 S
N368   N475    1.279   1_455 S
C379   O426    1.285   .     A
C379   O423    1.290   .     A
C379   C402    1.428   .     S
C380   C382    1.486   .     S
C380   O429    1.300   .     A
C380   O431    1.304   .     A
C381   C387    1.405   .     A
C381   C385    1.421   .     A
C381   C404    1.486   .     S
C382   C386    1.421   .     A
C382   C388    1.405   .     A
C383   C392    1.400   .     A
C383   C385    1.402   .     A
C384   C386    1.402   .     A
C384   C393    1.400   .     A
C384   H471    1.085   .     S
C386   C450    1.486   .     S
C387   C389    1.407   .     A
C387   H415    1.073   .     S
C388   C391    1.407   .     A
C388   H414    1.073   .     S
C389   C394    1.431   .     A
C389   C392    1.413   .     A
C390   C403    1.428   .     S
C390   O427    1.285   .     A
C390   O425    1.290   .     A
C391   C395    1.431   .     A
C391   C393    1.413   .     A
C392   C886    1.390   .     S
C393   C887    1.390   1_554 S
C394   C399    1.416   .     A
C394   C881    1.429   .     S
C395   C398    1.416   .     A
C395   C880    1.429   1_554 S
C396   H411    1.081   .     S
C396   O432    1.222   .     D
C397   O424    1.222   .     D
C397   H412    1.081   .     S
C397   C439    1.486   .     S
C398   C400    1.385   .     A
C398   H418    1.075   .     S
C399   H419    1.075   .     S
C399   C401    1.385   .     A
C400   H407    1.085   .     S
C400   C878    1.390   1_554 S
C401   H413    1.085   .     S
C401   C879    1.390   .     S
C402   C79     1.329   1_565 S
C402   H96     1.088   1_565 S
C404   O430    1.304   .     A
C404   O428    1.300   .     A
Cu405  O431    1.910   .     S
Cu405  O428    1.938   .     S
Cu405  O423    1.956   .     S
Cu405  Cu406   2.684   .     S
Cu405  N422    2.017   .     S
Cu405  O427    1.953   .     S
Cu406  N421    2.017   .     S
Cu406  O425    1.956   .     S
Cu406  O429    1.938   .     S
Cu406  O426    1.953   .     S
Cu406  O430    1.910   .     S
H408   C79     1.088   1_565 S
H410   N476    1.029   .     S
H416   C437    1.085   .     S
N421   H463    1.029   .     S
N421   N476    1.279   .     S
C433   O480    1.285   .     A
C433   O477    1.290   .     A
C433   C456    1.428   .     S
C434   C436    1.486   .     S
C434   O483    1.300   .     A
C434   O485    1.304   .     A
C435   C441    1.405   .     A
C435   C439    1.421   .     A
C435   C458    1.486   .     S
C436   C440    1.421   .     A
C436   C442    1.405   .     A
C437   C446    1.400   .     A
C437   C439    1.402   .     A
C438   C440    1.402   .     A
C438   C447    1.400   .     A
C438   H363    1.085   1_655 S
C440   C342    1.486   1_655 S
C441   C443    1.407   .     A
C441   H469    1.073   .     S
C442   C445    1.407   .     A
C442   H468    1.073   .     S
C443   C448    1.431   .     A
C443   C446    1.413   .     A
C444   C457    1.428   .     S
C444   O481    1.285   .     A
C444   O479    1.290   .     A
C445   C449    1.431   .     A
C445   C447    1.413   .     A
C446   C940    1.390   .     S
C447   C941    1.390   1_554 S
C448   C453    1.416   .     A
C448   C935    1.429   .     S
C449   C452    1.416   .     A
C449   C934    1.429   1_554 S
C450   H465    1.081   .     S
C450   O486    1.222   .     D
C451   O478    1.222   .     D
C451   H466    1.081   .     S
C451   C331    1.486   1_655 S
C452   C454    1.385   .     A
C452   H472    1.075   .     S
C453   H473    1.075   .     S
C453   C455    1.385   .     A
C454   H461    1.085   .     S
C454   C932    1.390   1_554 S
C455   H467    1.085   .     S
C455   C933    1.390   .     S
C456   C133    1.329   1_565 S
C456   H150    1.088   1_565 S
C458   O484    1.304   .     A
C458   O482    1.300   .     A
Cu459  O485    1.910   .     S
Cu459  O482    1.938   .     S
Cu459  O477    1.956   .     S
Cu459  Cu460   2.684   .     S
Cu459  N476    2.017   .     S
Cu459  O481    1.953   .     S
Cu460  N475    2.017   .     S
Cu460  O479    1.956   .     S
Cu460  O483    1.938   .     S
Cu460  O480    1.953   .     S
Cu460  O484    1.910   .     S
H462   C133    1.088   1_565 S
H464   N368    1.029   1_655 S
H470   C329    1.085   1_655 S
N475   H355    1.029   1_655 S
N475   N368    1.279   1_655 S
C487   O534    1.285   .     A
C487   O531    1.290   .     A
C487   C510    1.428   .     S
C488   C490    1.486   .     S
C488   O537    1.300   .     A
C488   O539    1.304   .     A
C489   C495    1.405   .     A
C489   C493    1.421   .     A
C489   C512    1.486   .     S
C490   C494    1.421   .     A
C490   C496    1.405   .     A
C491   C500    1.400   .     A
C491   C493    1.402   .     A
C491   H632    1.085   1_455 S
C492   C494    1.402   .     A
C492   C501    1.400   .     A
C492   H579    1.085   .     S
C493   C613    1.486   1_455 S
C494   C558    1.486   .     S
C495   C497    1.407   .     A
C495   H523    1.073   .     S
C496   C499    1.407   .     A
C496   H522    1.073   .     S
C497   C502    1.431   .     A
C497   C500    1.413   .     A
C498   C511    1.428   .     S
C498   O535    1.285   .     A
C498   O533    1.290   .     A
C499   C503    1.431   .     A
C499   C501    1.413   .     A
C500   C22     1.390   1_556 S
C502   C507    1.416   .     A
C502   C17     1.429   1_556 S
C503   C506    1.416   .     A
C504   H519    1.081   .     S
C504   O540    1.222   .     D
C504   C602    1.486   1_455 S
C505   O532    1.222   .     D
C505   H520    1.081   .     S
C505   C547    1.486   .     S
C506   C508    1.385   .     A
C506   H526    1.075   .     S
C507   H527    1.075   .     S
C507   C509    1.385   .     A
C508   H515    1.085   .     S
C509   H521    1.085   .     S
C509   C15     1.390   1_556 S
C510   C673    1.329   .     S
C510   H690    1.088   .     S
C511   C834    1.329   1_545 S
C511   H840    1.088   1_545 S
C512   O538    1.304   .     A
C512   O536    1.300   .     A
Cu513  O539    1.910   .     S
Cu513  O536    1.938   .     S
Cu513  O531    1.956   .     S
Cu513  Cu514   2.684   .     S
Cu513  N530    2.017   .     S
Cu513  O535    1.953   .     S
Cu514  N529    2.017   .     S
Cu514  O533    1.956   .     S
Cu514  O537    1.938   .     S
Cu514  O534    1.953   .     S
Cu514  O538    1.910   .     S
H516   C673    1.088   .     S
H517   N637    1.029   1_455 S
H518   N584    1.029   .     S
H524   C545    1.085   .     S
H525   C600    1.085   1_455 S
H528   C834    1.088   1_545 S
N529   H571    1.029   .     S
N529   N584    1.279   .     S
N530   H626    1.029   1_455 S
N530   N637    1.279   1_455 S
C541   O588    1.285   .     A
C541   O585    1.290   .     A
C541   C564    1.428   .     S
C542   C544    1.486   .     S
C542   O591    1.300   .     A
C542   O593    1.304   .     A
C543   C549    1.405   .     A
C543   C547    1.421   .     A
C543   C566    1.486   .     S
C544   C548    1.421   .     A
C544   C550    1.405   .     A
C545   C554    1.400   .     A
C545   C547    1.402   .     A
C546   C548    1.402   .     A
C546   C555    1.400   .     A
C546   H633    1.085   .     S
C548   C612    1.486   .     S
C549   C551    1.407   .     A
C549   H577    1.073   .     S
C550   C553    1.407   .     A
C550   H576    1.073   .     S
C551   C556    1.431   .     A
C551   C554    1.413   .     A
C552   C565    1.428   .     S
C552   O589    1.285   .     A
C552   O587    1.290   .     A
C553   C557    1.431   .     A
C553   C555    1.413   .     A
C554   C76     1.390   1_556 S
C556   C561    1.416   .     A
C556   C71     1.429   1_556 S
C557   C560    1.416   .     A
C558   H573    1.081   .     S
C558   O594    1.222   .     D
C559   O586    1.222   .     D
C559   H574    1.081   .     S
C559   C601    1.486   .     S
C560   C562    1.385   .     A
C560   H580    1.075   .     S
C561   H581    1.075   .     S
C561   C563    1.385   .     A
C562   H569    1.085   .     S
C563   H575    1.085   .     S
C563   C69     1.390   1_556 S
C564   C727    1.329   .     S
C564   H744    1.088   .     S
C565   C888    1.329   1_545 S
C565   H894    1.088   1_545 S
C566   O592    1.304   .     A
C566   O590    1.300   .     A
Cu567  O593    1.910   .     S
Cu567  O590    1.938   .     S
Cu567  O585    1.956   .     S
Cu567  Cu568   2.684   .     S
Cu567  N584    2.017   .     S
Cu567  O589    1.953   .     S
Cu568  N583    2.017   .     S
Cu568  O587    1.956   .     S
Cu568  O591    1.938   .     S
Cu568  O588    1.953   .     S
Cu568  O592    1.910   .     S
H570   C727    1.088   .     S
H572   N638    1.029   .     S
H578   C599    1.085   .     S
H582   C888    1.088   1_545 S
N583   H625    1.029   .     S
N583   N638    1.279   .     S
C595   O642    1.285   .     A
C595   O639    1.290   .     A
C595   C618    1.428   .     S
C596   C598    1.486   .     S
C596   O645    1.300   .     A
C596   O647    1.304   .     A
C597   C603    1.405   .     A
C597   C601    1.421   .     A
C597   C620    1.486   .     S
C598   C602    1.421   .     A
C598   C604    1.405   .     A
C599   C608    1.400   .     A
C599   C601    1.402   .     A
C600   C602    1.402   .     A
C600   C609    1.400   .     A
C600   H525    1.085   1_655 S
C602   C504    1.486   1_655 S
C603   C605    1.407   .     A
C603   H631    1.073   .     S
C604   C607    1.407   .     A
C604   H630    1.073   .     S
C605   C610    1.431   .     A
C605   C608    1.413   .     A
C606   C619    1.428   .     S
C606   O643    1.285   .     A
C606   O641    1.290   .     A
C607   C611    1.431   .     A
C607   C609    1.413   .     A
C608   C130    1.390   1_556 S
C610   C615    1.416   .     A
C610   C125    1.429   1_556 S
C611   C614    1.416   .     A
C612   H627    1.081   .     S
C612   O648    1.222   .     D
C613   O640    1.222   .     D
C613   H628    1.081   .     S
C613   C493    1.486   1_655 S
C614   C616    1.385   .     A
C614   H634    1.075   .     S
C615   H635    1.075   .     S
C615   C617    1.385   .     A
C616   H623    1.085   .     S
C617   H629    1.085   .     S
C617   C123    1.390   1_556 S
C618   C781    1.329   .     S
C618   H798    1.088   .     S
C619   C942    1.329   1_545 S
C619   H948    1.088   1_545 S
C620   O646    1.304   .     A
C620   O644    1.300   .     A
Cu621  O647    1.910   .     S
Cu621  O644    1.938   .     S
Cu621  O639    1.956   .     S
Cu621  Cu622   2.684   .     S
Cu621  N638    2.017   .     S
Cu621  O643    1.953   .     S
Cu622  N637    2.017   .     S
Cu622  O641    1.956   .     S
Cu622  O645    1.938   .     S
Cu622  O642    1.953   .     S
Cu622  O646    1.910   .     S
H624   C781    1.088   .     S
H626   N530    1.029   1_655 S
H632   C491    1.085   1_655 S
H636   C942    1.088   1_545 S
N637   H517    1.029   1_655 S
N637   N530    1.279   1_655 S
C649   O696    1.285   .     A
C649   O693    1.290   .     A
C649   C672    1.428   .     S
C650   C652    1.486   .     S
C650   O699    1.300   .     A
C650   O701    1.304   .     A
C651   C657    1.405   .     A
C651   C655    1.421   .     A
C651   C674    1.486   .     S
C652   C656    1.421   .     A
C652   C658    1.405   .     A
C653   C662    1.400   .     A
C653   C655    1.402   .     A
C653   H794    1.085   1_455 S
C654   C656    1.402   .     A
C654   C663    1.400   .     A
C654   H741    1.085   .     S
C655   C775    1.486   1_455 S
C656   C720    1.486   .     S
C657   C659    1.407   .     A
C657   H685    1.073   .     S
C658   C661    1.407   .     A
C658   H684    1.073   .     S
C659   C664    1.431   .     A
C659   C662    1.413   .     A
C660   C673    1.428   .     S
C660   O697    1.285   .     A
C660   O695    1.290   .     A
C661   C665    1.431   .     A
C661   C663    1.413   .     A
C662   C184    1.390   1_556 S
C664   C669    1.416   .     A
C664   C179    1.429   1_556 S
C665   C668    1.416   .     A
C666   H681    1.081   .     S
C666   O702    1.222   .     D
C666   C764    1.486   1_455 S
C667   O694    1.222   .     D
C667   H682    1.081   .     S
C667   C709    1.486   .     S
C668   C670    1.385   .     A
C668   H688    1.075   .     S
C669   H689    1.075   .     S
C669   C671    1.385   .     A
C670   H677    1.085   .     S
C671   H683    1.085   .     S
C671   C177    1.390   1_556 S
C672   C835    1.329   .     S
C672   H852    1.088   .     S
C674   O700    1.304   .     A
C674   O698    1.300   .     A
Cu675  O701    1.910   .     S
Cu675  O698    1.938   .     S
Cu675  O693    1.956   .     S
Cu675  Cu676   2.684   .     S
Cu675  N692    2.017   .     S
Cu675  O697    1.953   .     S
Cu676  N691    2.017   .     S
Cu676  O695    1.956   .     S
Cu676  O699    1.938   .     S
Cu676  O696    1.953   .     S
Cu676  O700    1.910   .     S
H678   C835    1.088   .     S
H679   N799    1.029   1_455 S
H680   N746    1.029   .     S
H686   C707    1.085   .     S
H687   C762    1.085   1_455 S
N691   H733    1.029   .     S
N691   N746    1.279   .     S
N692   H788    1.029   1_455 S
N692   N799    1.279   1_455 S
C703   O750    1.285   .     A
C703   O747    1.290   .     A
C703   C726    1.428   .     S
C704   C706    1.486   .     S
C704   O753    1.300   .     A
C704   O755    1.304   .     A
C705   C711    1.405   .     A
C705   C709    1.421   .     A
C705   C728    1.486   .     S
C706   C710    1.421   .     A
C706   C712    1.405   .     A
C707   C716    1.400   .     A
C707   C709    1.402   .     A
C708   C710    1.402   .     A
C708   C717    1.400   .     A
C708   H795    1.085   .     S
C710   C774    1.486   .     S
C711   C713    1.407   .     A
C711   H739    1.073   .     S
C712   C715    1.407   .     A
C712   H738    1.073   .     S
C713   C718    1.431   .     A
C713   C716    1.413   .     A
C714   C727    1.428   .     S
C714   O751    1.285   .     A
C714   O749    1.290   .     A
C715   C719    1.431   .     A
C715   C717    1.413   .     A
C716   C238    1.390   1_556 S
C718   C723    1.416   .     A
C718   C233    1.429   1_556 S
C719   C722    1.416   .     A
C720   H735    1.081   .     S
C720   O756    1.222   .     D
C721   O748    1.222   .     D
C721   H736    1.081   .     S
C721   C763    1.486   .     S
C722   C724    1.385   .     A
C722   H742    1.075   .     S
C723   H743    1.075   .     S
C723   C725    1.385   .     A
C724   H731    1.085   .     S
C725   H737    1.085   .     S
C725   C231    1.390   1_556 S
C726   C889    1.329   .     S
C726   H906    1.088   .     S
C728   O754    1.304   .     A
C728   O752    1.300   .     A
Cu729  O755    1.910   .     S
Cu729  O752    1.938   .     S
Cu729  O747    1.956   .     S
Cu729  Cu730   2.684   .     S
Cu729  N746    2.017   .     S
Cu729  O751    1.953   .     S
Cu730  N745    2.017   .     S
Cu730  O749    1.956   .     S
Cu730  O753    1.938   .     S
Cu730  O750    1.953   .     S
Cu730  O754    1.910   .     S
H732   C889    1.088   .     S
H734   N800    1.029   .     S
H740   C761    1.085   .     S
N745   H787    1.029   .     S
N745   N800    1.279   .     S
C757   O804    1.285   .     A
C757   O801    1.290   .     A
C757   C780    1.428   .     S
C758   C760    1.486   .     S
C758   O807    1.300   .     A
C758   O809    1.304   .     A
C759   C765    1.405   .     A
C759   C763    1.421   .     A
C759   C782    1.486   .     S
C760   C764    1.421   .     A
C760   C766    1.405   .     A
C761   C770    1.400   .     A
C761   C763    1.402   .     A
C762   C764    1.402   .     A
C762   C771    1.400   .     A
C762   H687    1.085   1_655 S
C764   C666    1.486   1_655 S
C765   C767    1.407   .     A
C765   H793    1.073   .     S
C766   C769    1.407   .     A
C766   H792    1.073   .     S
C767   C772    1.431   .     A
C767   C770    1.413   .     A
C768   C781    1.428   .     S
C768   O805    1.285   .     A
C768   O803    1.290   .     A
C769   C773    1.431   .     A
C769   C771    1.413   .     A
C770   C292    1.390   1_556 S
C772   C777    1.416   .     A
C772   C287    1.429   1_556 S
C773   C776    1.416   .     A
C774   H789    1.081   .     S
C774   O810    1.222   .     D
C775   O802    1.222   .     D
C775   H790    1.081   .     S
C775   C655    1.486   1_655 S
C776   C778    1.385   .     A
C776   H796    1.075   .     S
C777   H797    1.075   .     S
C777   C779    1.385   .     A
C778   H785    1.085   .     S
C779   H791    1.085   .     S
C779   C285    1.390   1_556 S
C780   C943    1.329   .     S
C780   H960    1.088   .     S
C782   O808    1.304   .     A
C782   O806    1.300   .     A
Cu783  O809    1.910   .     S
Cu783  O806    1.938   .     S
Cu783  O801    1.956   .     S
Cu783  Cu784   2.684   .     S
Cu783  N800    2.017   .     S
Cu783  O805    1.953   .     S
Cu784  N799    2.017   .     S
Cu784  O803    1.956   .     S
Cu784  O807    1.938   .     S
Cu784  O804    1.953   .     S
Cu784  O808    1.910   .     S
H786   C943    1.088   .     S
H788   N692    1.029   1_655 S
H794   C653    1.085   1_655 S
N799   H679    1.029   1_655 S
N799   N692    1.279   1_655 S
C811   O858    1.285   .     A
C811   O855    1.290   .     A
C811   C834    1.428   .     S
C812   C814    1.486   .     S
C812   O861    1.300   .     A
C812   O863    1.304   .     A
C813   C819    1.405   .     A
C813   C817    1.421   .     A
C813   C836    1.486   .     S
C814   C818    1.421   .     A
C814   C820    1.405   .     A
C815   C824    1.400   .     A
C815   C817    1.402   .     A
C815   H956    1.085   1_455 S
C816   C818    1.402   .     A
C816   C825    1.400   .     A
C816   H903    1.085   .     S
C817   C937    1.486   1_455 S
C818   C882    1.486   .     S
C819   C821    1.407   .     A
C819   H847    1.073   .     S
C820   C823    1.407   .     A
C820   H846    1.073   .     S
C821   C826    1.431   .     A
C821   C824    1.413   .     A
C822   C835    1.428   .     S
C822   O859    1.285   .     A
C822   O857    1.290   .     A
C823   C827    1.431   .     A
C823   C825    1.413   .     A
C824   C346    1.390   1_556 S
C826   C831    1.416   .     A
C826   C341    1.429   1_556 S
C827   C830    1.416   .     A
C828   H843    1.081   .     S
C828   O864    1.222   .     D
C828   C926    1.486   1_455 S
C829   O856    1.222   .     D
C829   H844    1.081   .     S
C829   C871    1.486   .     S
C830   C832    1.385   .     A
C830   H850    1.075   .     S
C831   H851    1.075   .     S
C831   C833    1.385   .     A
C832   H839    1.085   .     S
C833   H845    1.085   .     S
C833   C339    1.390   1_556 S
C834   C511    1.329   1_565 S
C834   H528    1.088   1_565 S
C836   O862    1.304   .     A
C836   O860    1.300   .     A
Cu837  O863    1.910   .     S
Cu837  O860    1.938   .     S
Cu837  O855    1.956   .     S
Cu837  Cu838   2.684   .     S
Cu837  N854    2.017   .     S
Cu837  O859    1.953   .     S
Cu838  N853    2.017   .     S
Cu838  O857    1.956   .     S
Cu838  O861    1.938   .     S
Cu838  O858    1.953   .     S
Cu838  O862    1.910   .     S
H840   C511    1.088   1_565 S
H841   N961    1.029   1_455 S
H842   N908    1.029   .     S
H848   C869    1.085   .     S
H849   C924    1.085   1_455 S
N853   H895    1.029   .     S
N853   N908    1.279   .     S
N854   H950    1.029   1_455 S
N854   N961    1.279   1_455 S
C865   O912    1.285   .     A
C865   O909    1.290   .     A
C865   C888    1.428   .     S
C866   C868    1.486   .     S
C866   O915    1.300   .     A
C866   O917    1.304   .     A
C867   C873    1.405   .     A
C867   C871    1.421   .     A
C867   C890    1.486   .     S
C868   C872    1.421   .     A
C868   C874    1.405   .     A
C869   C878    1.400   .     A
C869   C871    1.402   .     A
C870   C872    1.402   .     A
C870   C879    1.400   .     A
C870   H957    1.085   .     S
C872   C936    1.486   .     S
C873   C875    1.407   .     A
C873   H901    1.073   .     S
C874   C877    1.407   .     A
C874   H900    1.073   .     S
C875   C880    1.431   .     A
C875   C878    1.413   .     A
C876   C889    1.428   .     S
C876   O913    1.285   .     A
C876   O911    1.290   .     A
C877   C881    1.431   .     A
C877   C879    1.413   .     A
C878   C400    1.390   1_556 S
C880   C885    1.416   .     A
C880   C395    1.429   1_556 S
C881   C884    1.416   .     A
C882   H897    1.081   .     S
C882   O918    1.222   .     D
C883   O910    1.222   .     D
C883   H898    1.081   .     S
C883   C925    1.486   .     S
C884   C886    1.385   .     A
C884   H904    1.075   .     S
C885   H905    1.075   .     S
C885   C887    1.385   .     A
C886   H893    1.085   .     S
C887   H899    1.085   .     S
C887   C393    1.390   1_556 S
C888   C565    1.329   1_565 S
C888   H582    1.088   1_565 S
C890   O916    1.304   .     A
C890   O914    1.300   .     A
Cu891  O917    1.910   .     S
Cu891  O914    1.938   .     S
Cu891  O909    1.956   .     S
Cu891  Cu892   2.684   .     S
Cu891  N908    2.017   .     S
Cu891  O913    1.953   .     S
Cu892  N907    2.017   .     S
Cu892  O911    1.956   .     S
Cu892  O915    1.938   .     S
Cu892  O912    1.953   .     S
Cu892  O916    1.910   .     S
H894   C565    1.088   1_565 S
H896   N962    1.029   .     S
H902   C923    1.085   .     S
N907   H949    1.029   .     S
N907   N962    1.279   .     S
C919   O966    1.285   .     A
C919   O963    1.290   .     A
C919   C942    1.428   .     S
C920   C922    1.486   .     S
C920   O969    1.300   .     A
C920   O971    1.304   .     A
C921   C927    1.405   .     A
C921   C925    1.421   .     A
C921   C944    1.486   .     S
C922   C926    1.421   .     A
C922   C928    1.405   .     A
C923   C932    1.400   .     A
C923   C925    1.402   .     A
C924   C926    1.402   .     A
C924   C933    1.400   .     A
C924   H849    1.085   1_655 S
C926   C828    1.486   1_655 S
C927   C929    1.407   .     A
C927   H955    1.073   .     S
C928   C931    1.407   .     A
C928   H954    1.073   .     S
C929   C934    1.431   .     A
C929   C932    1.413   .     A
C930   C943    1.428   .     S
C930   O967    1.285   .     A
C930   O965    1.290   .     A
C931   C935    1.431   .     A
C931   C933    1.413   .     A
C932   C454    1.390   1_556 S
C934   C939    1.416   .     A
C934   C449    1.429   1_556 S
C935   C938    1.416   .     A
C936   H951    1.081   .     S
C936   O972    1.222   .     D
C937   O964    1.222   .     D
C937   H952    1.081   .     S
C937   C817    1.486   1_655 S
C938   C940    1.385   .     A
C938   H958    1.075   .     S
C939   H959    1.075   .     S
C939   C941    1.385   .     A
C940   H947    1.085   .     S
C941   H953    1.085   .     S
C941   C447    1.390   1_556 S
C942   C619    1.329   1_565 S
C942   H636    1.088   1_565 S
C944   O970    1.304   .     A
C944   O968    1.300   .     A
Cu945  O971    1.910   .     S
Cu945  O968    1.938   .     S
Cu945  O963    1.956   .     S
Cu945  Cu946   2.684   .     S
Cu945  N962    2.017   .     S
Cu945  O967    1.953   .     S
Cu946  N961    2.017   .     S
Cu946  O965    1.956   .     S
Cu946  O969    1.938   .     S
Cu946  O966    1.953   .     S
Cu946  O970    1.910   .     S
H948   C619    1.088   1_565 S
H950   N854    1.029   1_655 S
H956   C815    1.085   1_655 S
N961   H841    1.029   1_655 S
N961   N854    1.279   1_655 S
