data_str_m3_o1_o17_pcu_sym.195
_audit_creation_date              2020-01-03
_audit_creation_method            'Materials Studio'
_symmetry_space_group_name_H-M    'P1'
_symmetry_Int_Tables_number       1
_symmetry_cell_setting            triclinic
loop_
_symmetry_equiv_pos_as_xyz
  x,y,z
_cell_length_a                    32.0698
_cell_length_b                    29.5344
_cell_length_c                    29.6989
_cell_angle_alpha                 89.9217
_cell_angle_beta                  90.1952
_cell_angle_gamma                 89.8924
loop_
_atom_site_label
_atom_site_type_symbol
_atom_site_fract_x
_atom_site_fract_y
_atom_site_fract_z
_atom_site_U_iso_or_equiv
_atom_site_adp_type
_atom_site_occupancy
O1     O     0.10559   0.20487   0.24999   0.00000  Uiso   1.00
O2     O     0.22774   0.12846   0.25000   0.00000  Uiso   1.00
O3     O     0.22774   0.20487   0.25000   0.00000  Uiso   1.00
O4     O     0.10559   0.12846   0.24999   0.00000  Uiso   1.00
C5     C     0.08664   0.16669   0.25000   0.00000  Uiso   1.00
C6     C     0.24669   0.16664   0.24991   0.00000  Uiso   1.00
O7     O     0.16666   0.20489   0.18392   0.00000  Uiso   1.00
O8     O     0.16667   0.12844   0.31607   0.00000  Uiso   1.00
O9     O     0.16667   0.20489   0.31607   0.00000  Uiso   1.00
O10    O     0.16666   0.12844   0.18392   0.00000  Uiso   1.00
C11    C     0.16695   0.16677   0.16348   0.00000  Uiso   1.00
C12    C     0.16578   0.16668   0.33664   0.00000  Uiso   1.00
Zn13   Zn    0.16667   0.21771   0.25000   0.00000  Uiso   1.00
Zn14   Zn    0.16667   0.11563   0.25000   0.00000  Uiso   1.00
C15    C     0.19669   0.18983   0.40635   0.00000  Uiso   1.00
C16    C     0.12911   0.16147   0.09407   0.00000  Uiso   1.00
C17    C     0.16419   0.16778   0.38473   0.00000  Uiso   1.00
C18    C     0.16698   0.16794   0.11559   0.00000  Uiso   1.00
C19    C     0.12892   0.15235   0.40801   0.00000  Uiso   1.00
C20    C     0.20293   0.18142   0.09260   0.00000  Uiso   1.00
C21    C     0.12499   0.16416   0.45386   0.00000  Uiso   1.00
C22    C     0.19919   0.19291   0.04665   0.00000  Uiso   1.00
C23    C     0.16100   0.18023   0.47678   0.00000  Uiso   1.00
C24    C     0.16196   0.18035   0.02373   0.00000  Uiso   1.00
C25    C     0.19663   0.19446   0.45274   0.00000  Uiso   1.00
C26    C     0.12624   0.16611   0.04772   0.00000  Uiso   1.00
C27    C     0.08694   0.16069   0.47790   0.00000  Uiso   1.00
C28    C     0.23081   0.21616   0.02255   0.00000  Uiso   1.00
C29    C     0.08815   0.15878   0.02510   0.00000  Uiso   1.00
C30    C     0.23062   0.21443   0.47534   0.00000  Uiso   1.00
H31    H     0.22259   0.20169   0.38629   0.00000  Uiso   1.00
H32    H     0.10237   0.15214   0.11417   0.00000  Uiso   1.00
C33    C     0.02147   0.12775   0.26380   0.00000  Uiso   1.00
C34    C     0.31186   0.20551   0.23582   0.00000  Uiso   1.00
C35    C     0.31209   0.12768   0.26366   0.00000  Uiso   1.00
C36    C     0.02124   0.20558   0.23595   0.00000  Uiso   1.00
H37    H     0.03793   0.09769   0.27507   0.00000  Uiso   1.00
H38    H     0.29539   0.23558   0.22457   0.00000  Uiso   1.00
H39    H     0.29582   0.09758   0.27484   0.00000  Uiso   1.00
H40    H     0.03753   0.23568   0.22477   0.00000  Uiso   1.00
C41    C     0.29083   0.16659   0.24975   0.00000  Uiso   1.00
C42    C     0.04251   0.16670   0.24995   0.00000  Uiso   1.00
C43    C     0.19341   0.02389   0.27713   0.00000  Uiso   1.00
C44    C     0.13991   0.30944   0.22288   0.00000  Uiso   1.00
C45    C     0.13991   0.02407   0.22288   0.00000  Uiso   1.00
C46    C     0.19341   0.30926   0.27714   0.00000  Uiso   1.00
H47    H     0.21480   0.04198   0.29883   0.00000  Uiso   1.00
H48    H     0.11852   0.29135   0.20120   0.00000  Uiso   1.00
H49    H     0.11852   0.04231   0.20120   0.00000  Uiso   1.00
H50    H     0.21479   0.29102   0.29884   0.00000  Uiso   1.00
N51    N     0.16667   0.28573   0.25000   0.00000  Uiso   1.00
N52    N     0.16667   0.04760   0.25000   0.00000  Uiso   1.00
C53    C     0.09927   0.11979   0.38477   0.00000  Uiso   1.00
H54    H     0.11715   0.09208   0.36860   0.00000  Uiso   1.00
H55    H     0.07836   0.10221   0.40858   0.00000  Uiso   1.00
H56    H     0.08069   0.13781   0.35867   0.00000  Uiso   1.00
C57    C     0.24476   0.17643   0.11627   0.00000  Uiso   1.00
H58    H     0.24547   0.14451   0.13611   0.00000  Uiso   1.00
H59    H     0.27094   0.17346   0.09222   0.00000  Uiso   1.00
H60    H     0.24999   0.20510   0.13975   0.00000  Uiso   1.00
C61    C     0.04495   0.16615   0.45501   0.00000  Uiso   1.00
H62    H     0.04773   0.17837   0.41986   0.00000  Uiso   1.00
H63    H     0.02739   0.13380   0.45590   0.00000  Uiso   1.00
H64    H     0.02650   0.19251   0.47266   0.00000  Uiso   1.00
C65    C     0.26114   0.24798   0.04552   0.00000  Uiso   1.00
H66    H     0.25153   0.25647   0.08027   0.00000  Uiso   1.00
H67    H     0.29306   0.23333   0.04547   0.00000  Uiso   1.00
H68    H     0.26173   0.28097   0.02756   0.00000  Uiso   1.00
Br69   Br    0.03711   0.14702   0.05795   0.00000  Uiso   1.00
Br70   Br    0.27717   0.23988   0.44238   0.00000  Uiso   1.00
O71    O     0.43892   0.20487   0.24999   0.00000  Uiso   1.00
O72    O     0.56108   0.12846   0.25000   0.00000  Uiso   1.00
O73    O     0.56108   0.20487   0.25000   0.00000  Uiso   1.00
O74    O     0.43892   0.12846   0.24999   0.00000  Uiso   1.00
C75    C     0.41998   0.16669   0.25000   0.00000  Uiso   1.00
C76    C     0.58002   0.16664   0.24991   0.00000  Uiso   1.00
O77    O     0.49999   0.20489   0.18392   0.00000  Uiso   1.00
O78    O     0.50001   0.12844   0.31607   0.00000  Uiso   1.00
O79    O     0.50001   0.20489   0.31607   0.00000  Uiso   1.00
O80    O     0.49999   0.12844   0.18392   0.00000  Uiso   1.00
C81    C     0.50029   0.16677   0.16348   0.00000  Uiso   1.00
C82    C     0.49912   0.16668   0.33664   0.00000  Uiso   1.00
Zn83   Zn    0.50000   0.21771   0.25000   0.00000  Uiso   1.00
Zn84   Zn    0.50000   0.11563   0.25000   0.00000  Uiso   1.00
C85    C     0.53002   0.18983   0.40635   0.00000  Uiso   1.00
C86    C     0.46245   0.16147   0.09407   0.00000  Uiso   1.00
C87    C     0.49752   0.16778   0.38473   0.00000  Uiso   1.00
C88    C     0.50031   0.16794   0.11559   0.00000  Uiso   1.00
C89    C     0.46226   0.15235   0.40801   0.00000  Uiso   1.00
C90    C     0.53626   0.18142   0.09260   0.00000  Uiso   1.00
C91    C     0.45832   0.16416   0.45386   0.00000  Uiso   1.00
C92    C     0.53252   0.19291   0.04665   0.00000  Uiso   1.00
C93    C     0.49434   0.18023   0.47678   0.00000  Uiso   1.00
C94    C     0.49529   0.18035   0.02373   0.00000  Uiso   1.00
C95    C     0.52996   0.19446   0.45274   0.00000  Uiso   1.00
C96    C     0.45957   0.16611   0.04772   0.00000  Uiso   1.00
C97    C     0.42027   0.16069   0.47790   0.00000  Uiso   1.00
C98    C     0.56414   0.21616   0.02255   0.00000  Uiso   1.00
C99    C     0.42148   0.15878   0.02510   0.00000  Uiso   1.00
C100   C     0.56396   0.21443   0.47534   0.00000  Uiso   1.00
H101   H     0.55592   0.20169   0.38629   0.00000  Uiso   1.00
H102   H     0.43570   0.15214   0.11417   0.00000  Uiso   1.00
C103   C     0.35480   0.12775   0.26380   0.00000  Uiso   1.00
C104   C     0.64519   0.20551   0.23582   0.00000  Uiso   1.00
C105   C     0.64543   0.12768   0.26366   0.00000  Uiso   1.00
C106   C     0.35458   0.20558   0.23595   0.00000  Uiso   1.00
H107   H     0.37126   0.09769   0.27507   0.00000  Uiso   1.00
H108   H     0.62872   0.23558   0.22457   0.00000  Uiso   1.00
H109   H     0.62915   0.09758   0.27484   0.00000  Uiso   1.00
H110   H     0.37086   0.23568   0.22477   0.00000  Uiso   1.00
C111   C     0.62416   0.16659   0.24975   0.00000  Uiso   1.00
C112   C     0.37584   0.16670   0.24995   0.00000  Uiso   1.00
C113   C     0.52674   0.02389   0.27713   0.00000  Uiso   1.00
C114   C     0.47324   0.30944   0.22288   0.00000  Uiso   1.00
C115   C     0.47324   0.02407   0.22288   0.00000  Uiso   1.00
C116   C     0.52674   0.30926   0.27714   0.00000  Uiso   1.00
H117   H     0.54813   0.04198   0.29883   0.00000  Uiso   1.00
H118   H     0.45185   0.29135   0.20120   0.00000  Uiso   1.00
H119   H     0.45185   0.04231   0.20120   0.00000  Uiso   1.00
H120   H     0.54812   0.29102   0.29884   0.00000  Uiso   1.00
N121   N     0.50000   0.28573   0.25000   0.00000  Uiso   1.00
N122   N     0.50000   0.04760   0.25000   0.00000  Uiso   1.00
C123   C     0.43261   0.11979   0.38477   0.00000  Uiso   1.00
H124   H     0.45048   0.09208   0.36860   0.00000  Uiso   1.00
H125   H     0.41169   0.10221   0.40858   0.00000  Uiso   1.00
H126   H     0.41402   0.13781   0.35867   0.00000  Uiso   1.00
C127   C     0.57809   0.17643   0.11627   0.00000  Uiso   1.00
H128   H     0.57881   0.14451   0.13611   0.00000  Uiso   1.00
H129   H     0.60427   0.17346   0.09222   0.00000  Uiso   1.00
H130   H     0.58332   0.20510   0.13975   0.00000  Uiso   1.00
C131   C     0.37828   0.16615   0.45501   0.00000  Uiso   1.00
H132   H     0.38106   0.17837   0.41986   0.00000  Uiso   1.00
H133   H     0.36073   0.13380   0.45590   0.00000  Uiso   1.00
H134   H     0.35983   0.19251   0.47266   0.00000  Uiso   1.00
C135   C     0.59447   0.24798   0.04552   0.00000  Uiso   1.00
H136   H     0.58486   0.25647   0.08027   0.00000  Uiso   1.00
H137   H     0.62639   0.23333   0.04547   0.00000  Uiso   1.00
H138   H     0.59506   0.28097   0.02756   0.00000  Uiso   1.00
Br139  Br    0.37044   0.14702   0.05795   0.00000  Uiso   1.00
Br140  Br    0.61050   0.23988   0.44238   0.00000  Uiso   1.00
O141   O     0.77226   0.20487   0.24999   0.00000  Uiso   1.00
O142   O     0.89441   0.12846   0.25000   0.00000  Uiso   1.00
O143   O     0.89441   0.20487   0.25000   0.00000  Uiso   1.00
O144   O     0.77226   0.12846   0.24999   0.00000  Uiso   1.00
C145   C     0.75331   0.16669   0.25000   0.00000  Uiso   1.00
C146   C     0.91335   0.16664   0.24991   0.00000  Uiso   1.00
O147   O     0.83333   0.20489   0.18392   0.00000  Uiso   1.00
O148   O     0.83334   0.12844   0.31607   0.00000  Uiso   1.00
O149   O     0.83334   0.20489   0.31607   0.00000  Uiso   1.00
O150   O     0.83333   0.12844   0.18392   0.00000  Uiso   1.00
C151   C     0.83362   0.16677   0.16348   0.00000  Uiso   1.00
C152   C     0.83245   0.16668   0.33664   0.00000  Uiso   1.00
Zn153  Zn    0.83333   0.21771   0.25000   0.00000  Uiso   1.00
Zn154  Zn    0.83333   0.11563   0.25000   0.00000  Uiso   1.00
C155   C     0.86335   0.18983   0.40635   0.00000  Uiso   1.00
C156   C     0.79578   0.16147   0.09407   0.00000  Uiso   1.00
C157   C     0.83085   0.16778   0.38473   0.00000  Uiso   1.00
C158   C     0.83364   0.16794   0.11559   0.00000  Uiso   1.00
C159   C     0.79559   0.15235   0.40801   0.00000  Uiso   1.00
C160   C     0.86960   0.18142   0.09260   0.00000  Uiso   1.00
C161   C     0.79166   0.16416   0.45386   0.00000  Uiso   1.00
C162   C     0.86585   0.19291   0.04665   0.00000  Uiso   1.00
C163   C     0.82767   0.18023   0.47678   0.00000  Uiso   1.00
C164   C     0.82863   0.18035   0.02373   0.00000  Uiso   1.00
C165   C     0.86329   0.19446   0.45274   0.00000  Uiso   1.00
C166   C     0.79290   0.16611   0.04772   0.00000  Uiso   1.00
C167   C     0.75360   0.16069   0.47790   0.00000  Uiso   1.00
C168   C     0.89747   0.21616   0.02255   0.00000  Uiso   1.00
C169   C     0.75481   0.15878   0.02510   0.00000  Uiso   1.00
C170   C     0.89729   0.21443   0.47534   0.00000  Uiso   1.00
H171   H     0.88925   0.20169   0.38629   0.00000  Uiso   1.00
H172   H     0.76903   0.15214   0.11417   0.00000  Uiso   1.00
C173   C     0.68814   0.12775   0.26380   0.00000  Uiso   1.00
C174   C     0.97852   0.20551   0.23582   0.00000  Uiso   1.00
C175   C     0.97876   0.12768   0.26366   0.00000  Uiso   1.00
C176   C     0.68791   0.20558   0.23595   0.00000  Uiso   1.00
H177   H     0.70460   0.09769   0.27507   0.00000  Uiso   1.00
H178   H     0.96206   0.23558   0.22457   0.00000  Uiso   1.00
H179   H     0.96248   0.09758   0.27484   0.00000  Uiso   1.00
H180   H     0.70419   0.23568   0.22477   0.00000  Uiso   1.00
C181   C     0.95749   0.16659   0.24975   0.00000  Uiso   1.00
C182   C     0.70917   0.16670   0.24995   0.00000  Uiso   1.00
C183   C     0.86008   0.02389   0.27713   0.00000  Uiso   1.00
C184   C     0.80658   0.30944   0.22288   0.00000  Uiso   1.00
C185   C     0.80658   0.02407   0.22288   0.00000  Uiso   1.00
C186   C     0.86008   0.30926   0.27714   0.00000  Uiso   1.00
H187   H     0.88146   0.04198   0.29883   0.00000  Uiso   1.00
H188   H     0.78518   0.29135   0.20120   0.00000  Uiso   1.00
H189   H     0.78518   0.04231   0.20120   0.00000  Uiso   1.00
H190   H     0.88145   0.29102   0.29884   0.00000  Uiso   1.00
N191   N     0.83333   0.28573   0.25000   0.00000  Uiso   1.00
N192   N     0.83333   0.04760   0.25000   0.00000  Uiso   1.00
C193   C     0.76594   0.11979   0.38477   0.00000  Uiso   1.00
H194   H     0.78382   0.09208   0.36860   0.00000  Uiso   1.00
H195   H     0.74502   0.10221   0.40858   0.00000  Uiso   1.00
H196   H     0.74736   0.13781   0.35867   0.00000  Uiso   1.00
C197   C     0.91143   0.17643   0.11627   0.00000  Uiso   1.00
H198   H     0.91214   0.14451   0.13611   0.00000  Uiso   1.00
H199   H     0.93760   0.17346   0.09222   0.00000  Uiso   1.00
H200   H     0.91666   0.20510   0.13975   0.00000  Uiso   1.00
C201   C     0.71162   0.16615   0.45501   0.00000  Uiso   1.00
H202   H     0.71439   0.17837   0.41986   0.00000  Uiso   1.00
H203   H     0.69406   0.13380   0.45590   0.00000  Uiso   1.00
H204   H     0.69317   0.19251   0.47266   0.00000  Uiso   1.00
C205   C     0.92780   0.24798   0.04552   0.00000  Uiso   1.00
H206   H     0.91819   0.25647   0.08027   0.00000  Uiso   1.00
H207   H     0.95972   0.23333   0.04547   0.00000  Uiso   1.00
H208   H     0.92840   0.28097   0.02756   0.00000  Uiso   1.00
Br209  Br    0.70378   0.14702   0.05795   0.00000  Uiso   1.00
Br210  Br    0.94383   0.23988   0.44238   0.00000  Uiso   1.00
O211   O     0.10559   0.53821   0.24999   0.00000  Uiso   1.00
O212   O     0.22774   0.46179   0.25000   0.00000  Uiso   1.00
O213   O     0.22774   0.53821   0.25000   0.00000  Uiso   1.00
O214   O     0.10559   0.46179   0.24999   0.00000  Uiso   1.00
C215   C     0.08664   0.50003   0.25000   0.00000  Uiso   1.00
C216   C     0.24669   0.49997   0.24991   0.00000  Uiso   1.00
O217   O     0.16666   0.53823   0.18392   0.00000  Uiso   1.00
O218   O     0.16667   0.46177   0.31607   0.00000  Uiso   1.00
O219   O     0.16667   0.53823   0.31607   0.00000  Uiso   1.00
O220   O     0.16666   0.46177   0.18392   0.00000  Uiso   1.00
C221   C     0.16695   0.50010   0.16348   0.00000  Uiso   1.00
C222   C     0.16578   0.50001   0.33664   0.00000  Uiso   1.00
Zn223  Zn    0.16667   0.55104   0.25000   0.00000  Uiso   1.00
Zn224  Zn    0.16667   0.44896   0.25000   0.00000  Uiso   1.00
C225   C     0.19669   0.52317   0.40635   0.00000  Uiso   1.00
C226   C     0.12911   0.49480   0.09407   0.00000  Uiso   1.00
C227   C     0.16419   0.50111   0.38473   0.00000  Uiso   1.00
C228   C     0.16698   0.50127   0.11559   0.00000  Uiso   1.00
C229   C     0.12892   0.48569   0.40801   0.00000  Uiso   1.00
C230   C     0.20293   0.51476   0.09260   0.00000  Uiso   1.00
C231   C     0.12499   0.49750   0.45386   0.00000  Uiso   1.00
C232   C     0.19919   0.52624   0.04665   0.00000  Uiso   1.00
C233   C     0.16100   0.51356   0.47678   0.00000  Uiso   1.00
C234   C     0.16196   0.51368   0.02373   0.00000  Uiso   1.00
C235   C     0.19663   0.52780   0.45274   0.00000  Uiso   1.00
C236   C     0.12624   0.49945   0.04772   0.00000  Uiso   1.00
C237   C     0.08694   0.49402   0.47790   0.00000  Uiso   1.00
C238   C     0.23081   0.54949   0.02255   0.00000  Uiso   1.00
C239   C     0.08815   0.49211   0.02510   0.00000  Uiso   1.00
C240   C     0.23062   0.54777   0.47534   0.00000  Uiso   1.00
H241   H     0.22259   0.53503   0.38629   0.00000  Uiso   1.00
H242   H     0.10237   0.48547   0.11417   0.00000  Uiso   1.00
C243   C     0.02147   0.46108   0.26380   0.00000  Uiso   1.00
C244   C     0.31186   0.53885   0.23582   0.00000  Uiso   1.00
C245   C     0.31209   0.46102   0.26366   0.00000  Uiso   1.00
C246   C     0.02124   0.53891   0.23595   0.00000  Uiso   1.00
H247   H     0.03793   0.43102   0.27507   0.00000  Uiso   1.00
H248   H     0.29539   0.56891   0.22457   0.00000  Uiso   1.00
H249   H     0.29582   0.43091   0.27484   0.00000  Uiso   1.00
H250   H     0.03753   0.56901   0.22477   0.00000  Uiso   1.00
C251   C     0.29083   0.49992   0.24975   0.00000  Uiso   1.00
C252   C     0.04251   0.50004   0.24995   0.00000  Uiso   1.00
C253   C     0.19341   0.35722   0.27713   0.00000  Uiso   1.00
C254   C     0.13991   0.64278   0.22288   0.00000  Uiso   1.00
C255   C     0.13991   0.35740   0.22288   0.00000  Uiso   1.00
C256   C     0.19341   0.64260   0.27714   0.00000  Uiso   1.00
H257   H     0.21480   0.37532   0.29883   0.00000  Uiso   1.00
H258   H     0.11852   0.62468   0.20120   0.00000  Uiso   1.00
H259   H     0.11852   0.37564   0.20120   0.00000  Uiso   1.00
H260   H     0.21479   0.62436   0.29884   0.00000  Uiso   1.00
N261   N     0.16667   0.61907   0.25000   0.00000  Uiso   1.00
N262   N     0.16667   0.38093   0.25000   0.00000  Uiso   1.00
C263   C     0.09927   0.45313   0.38477   0.00000  Uiso   1.00
H264   H     0.11715   0.42542   0.36860   0.00000  Uiso   1.00
H265   H     0.07836   0.43554   0.40858   0.00000  Uiso   1.00
H266   H     0.08069   0.47114   0.35867   0.00000  Uiso   1.00
C267   C     0.24476   0.50976   0.11627   0.00000  Uiso   1.00
H268   H     0.24547   0.47785   0.13611   0.00000  Uiso   1.00
H269   H     0.27094   0.50679   0.09222   0.00000  Uiso   1.00
H270   H     0.24999   0.53844   0.13975   0.00000  Uiso   1.00
C271   C     0.04495   0.49948   0.45501   0.00000  Uiso   1.00
H272   H     0.04773   0.51171   0.41986   0.00000  Uiso   1.00
H273   H     0.02739   0.46713   0.45590   0.00000  Uiso   1.00
H274   H     0.02650   0.52584   0.47266   0.00000  Uiso   1.00
C275   C     0.26114   0.58131   0.04552   0.00000  Uiso   1.00
H276   H     0.25153   0.58980   0.08027   0.00000  Uiso   1.00
H277   H     0.29306   0.56667   0.04547   0.00000  Uiso   1.00
H278   H     0.26173   0.61431   0.02756   0.00000  Uiso   1.00
Br279  Br    0.03711   0.48035   0.05795   0.00000  Uiso   1.00
Br280  Br    0.27717   0.57321   0.44238   0.00000  Uiso   1.00
O281   O     0.43892   0.53821   0.24999   0.00000  Uiso   1.00
O282   O     0.56108   0.46179   0.25000   0.00000  Uiso   1.00
O283   O     0.56108   0.53821   0.25000   0.00000  Uiso   1.00
O284   O     0.43892   0.46179   0.24999   0.00000  Uiso   1.00
C285   C     0.41998   0.50003   0.25000   0.00000  Uiso   1.00
C286   C     0.58002   0.49997   0.24991   0.00000  Uiso   1.00
O287   O     0.49999   0.53823   0.18392   0.00000  Uiso   1.00
O288   O     0.50001   0.46177   0.31607   0.00000  Uiso   1.00
O289   O     0.50001   0.53823   0.31607   0.00000  Uiso   1.00
O290   O     0.49999   0.46177   0.18392   0.00000  Uiso   1.00
C291   C     0.50029   0.50010   0.16348   0.00000  Uiso   1.00
C292   C     0.49912   0.50001   0.33664   0.00000  Uiso   1.00
Zn293  Zn    0.50000   0.55104   0.25000   0.00000  Uiso   1.00
Zn294  Zn    0.50000   0.44896   0.25000   0.00000  Uiso   1.00
C295   C     0.53002   0.52317   0.40635   0.00000  Uiso   1.00
C296   C     0.46245   0.49480   0.09407   0.00000  Uiso   1.00
C297   C     0.49752   0.50111   0.38473   0.00000  Uiso   1.00
C298   C     0.50031   0.50127   0.11559   0.00000  Uiso   1.00
C299   C     0.46226   0.48569   0.40801   0.00000  Uiso   1.00
C300   C     0.53626   0.51476   0.09260   0.00000  Uiso   1.00
C301   C     0.45832   0.49750   0.45386   0.00000  Uiso   1.00
C302   C     0.53252   0.52624   0.04665   0.00000  Uiso   1.00
C303   C     0.49434   0.51356   0.47678   0.00000  Uiso   1.00
C304   C     0.49529   0.51368   0.02373   0.00000  Uiso   1.00
C305   C     0.52996   0.52780   0.45274   0.00000  Uiso   1.00
C306   C     0.45957   0.49945   0.04772   0.00000  Uiso   1.00
C307   C     0.42027   0.49402   0.47790   0.00000  Uiso   1.00
C308   C     0.56414   0.54949   0.02255   0.00000  Uiso   1.00
C309   C     0.42148   0.49211   0.02510   0.00000  Uiso   1.00
C310   C     0.56396   0.54777   0.47534   0.00000  Uiso   1.00
H311   H     0.55592   0.53503   0.38629   0.00000  Uiso   1.00
H312   H     0.43570   0.48547   0.11417   0.00000  Uiso   1.00
C313   C     0.35480   0.46108   0.26380   0.00000  Uiso   1.00
C314   C     0.64519   0.53885   0.23582   0.00000  Uiso   1.00
C315   C     0.64543   0.46102   0.26366   0.00000  Uiso   1.00
C316   C     0.35458   0.53891   0.23595   0.00000  Uiso   1.00
H317   H     0.37126   0.43102   0.27507   0.00000  Uiso   1.00
H318   H     0.62872   0.56891   0.22457   0.00000  Uiso   1.00
H319   H     0.62915   0.43091   0.27484   0.00000  Uiso   1.00
H320   H     0.37086   0.56901   0.22477   0.00000  Uiso   1.00
C321   C     0.62416   0.49992   0.24975   0.00000  Uiso   1.00
C322   C     0.37584   0.50004   0.24995   0.00000  Uiso   1.00
C323   C     0.52674   0.35722   0.27713   0.00000  Uiso   1.00
C324   C     0.47324   0.64278   0.22288   0.00000  Uiso   1.00
C325   C     0.47324   0.35740   0.22288   0.00000  Uiso   1.00
C326   C     0.52674   0.64260   0.27714   0.00000  Uiso   1.00
H327   H     0.54813   0.37532   0.29883   0.00000  Uiso   1.00
H328   H     0.45185   0.62468   0.20120   0.00000  Uiso   1.00
H329   H     0.45185   0.37564   0.20120   0.00000  Uiso   1.00
H330   H     0.54812   0.62436   0.29884   0.00000  Uiso   1.00
N331   N     0.50000   0.61907   0.25000   0.00000  Uiso   1.00
N332   N     0.50000   0.38093   0.25000   0.00000  Uiso   1.00
C333   C     0.43261   0.45313   0.38477   0.00000  Uiso   1.00
H334   H     0.45048   0.42542   0.36860   0.00000  Uiso   1.00
H335   H     0.41169   0.43554   0.40858   0.00000  Uiso   1.00
H336   H     0.41402   0.47114   0.35867   0.00000  Uiso   1.00
C337   C     0.57809   0.50976   0.11627   0.00000  Uiso   1.00
H338   H     0.57881   0.47785   0.13611   0.00000  Uiso   1.00
H339   H     0.60427   0.50679   0.09222   0.00000  Uiso   1.00
H340   H     0.58332   0.53844   0.13975   0.00000  Uiso   1.00
C341   C     0.37828   0.49948   0.45501   0.00000  Uiso   1.00
H342   H     0.38106   0.51171   0.41986   0.00000  Uiso   1.00
H343   H     0.36073   0.46713   0.45590   0.00000  Uiso   1.00
H344   H     0.35983   0.52584   0.47266   0.00000  Uiso   1.00
C345   C     0.59447   0.58131   0.04552   0.00000  Uiso   1.00
H346   H     0.58486   0.58980   0.08027   0.00000  Uiso   1.00
H347   H     0.62639   0.56667   0.04547   0.00000  Uiso   1.00
H348   H     0.59506   0.61431   0.02756   0.00000  Uiso   1.00
Br349  Br    0.37044   0.48035   0.05795   0.00000  Uiso   1.00
Br350  Br    0.61050   0.57321   0.44238   0.00000  Uiso   1.00
O351   O     0.77226   0.53821   0.24999   0.00000  Uiso   1.00
O352   O     0.89441   0.46179   0.25000   0.00000  Uiso   1.00
O353   O     0.89441   0.53821   0.25000   0.00000  Uiso   1.00
O354   O     0.77226   0.46179   0.24999   0.00000  Uiso   1.00
C355   C     0.75331   0.50003   0.25000   0.00000  Uiso   1.00
C356   C     0.91335   0.49997   0.24991   0.00000  Uiso   1.00
O357   O     0.83333   0.53823   0.18392   0.00000  Uiso   1.00
O358   O     0.83334   0.46177   0.31607   0.00000  Uiso   1.00
O359   O     0.83334   0.53823   0.31607   0.00000  Uiso   1.00
O360   O     0.83333   0.46177   0.18392   0.00000  Uiso   1.00
C361   C     0.83362   0.50010   0.16348   0.00000  Uiso   1.00
C362   C     0.83245   0.50001   0.33664   0.00000  Uiso   1.00
Zn363  Zn    0.83333   0.55104   0.25000   0.00000  Uiso   1.00
Zn364  Zn    0.83333   0.44896   0.25000   0.00000  Uiso   1.00
C365   C     0.86335   0.52317   0.40635   0.00000  Uiso   1.00
C366   C     0.79578   0.49480   0.09407   0.00000  Uiso   1.00
C367   C     0.83085   0.50111   0.38473   0.00000  Uiso   1.00
C368   C     0.83364   0.50127   0.11559   0.00000  Uiso   1.00
C369   C     0.79559   0.48569   0.40801   0.00000  Uiso   1.00
C370   C     0.86960   0.51476   0.09260   0.00000  Uiso   1.00
C371   C     0.79166   0.49750   0.45386   0.00000  Uiso   1.00
C372   C     0.86585   0.52624   0.04665   0.00000  Uiso   1.00
C373   C     0.82767   0.51356   0.47678   0.00000  Uiso   1.00
C374   C     0.82863   0.51368   0.02373   0.00000  Uiso   1.00
C375   C     0.86329   0.52780   0.45274   0.00000  Uiso   1.00
C376   C     0.79290   0.49945   0.04772   0.00000  Uiso   1.00
C377   C     0.75360   0.49402   0.47790   0.00000  Uiso   1.00
C378   C     0.89747   0.54949   0.02255   0.00000  Uiso   1.00
C379   C     0.75481   0.49211   0.02510   0.00000  Uiso   1.00
C380   C     0.89729   0.54777   0.47534   0.00000  Uiso   1.00
H381   H     0.88925   0.53503   0.38629   0.00000  Uiso   1.00
H382   H     0.76903   0.48547   0.11417   0.00000  Uiso   1.00
C383   C     0.68814   0.46108   0.26380   0.00000  Uiso   1.00
C384   C     0.97852   0.53885   0.23582   0.00000  Uiso   1.00
C385   C     0.97876   0.46102   0.26366   0.00000  Uiso   1.00
C386   C     0.68791   0.53891   0.23595   0.00000  Uiso   1.00
H387   H     0.70460   0.43102   0.27507   0.00000  Uiso   1.00
H388   H     0.96206   0.56891   0.22457   0.00000  Uiso   1.00
H389   H     0.96248   0.43091   0.27484   0.00000  Uiso   1.00
H390   H     0.70419   0.56901   0.22477   0.00000  Uiso   1.00
C391   C     0.95749   0.49992   0.24975   0.00000  Uiso   1.00
C392   C     0.70917   0.50004   0.24995   0.00000  Uiso   1.00
C393   C     0.86008   0.35722   0.27713   0.00000  Uiso   1.00
C394   C     0.80658   0.64278   0.22288   0.00000  Uiso   1.00
C395   C     0.80658   0.35740   0.22288   0.00000  Uiso   1.00
C396   C     0.86008   0.64260   0.27714   0.00000  Uiso   1.00
H397   H     0.88146   0.37532   0.29883   0.00000  Uiso   1.00
H398   H     0.78518   0.62468   0.20120   0.00000  Uiso   1.00
H399   H     0.78518   0.37564   0.20120   0.00000  Uiso   1.00
H400   H     0.88145   0.62436   0.29884   0.00000  Uiso   1.00
N401   N     0.83333   0.61907   0.25000   0.00000  Uiso   1.00
N402   N     0.83333   0.38093   0.25000   0.00000  Uiso   1.00
C403   C     0.76594   0.45313   0.38477   0.00000  Uiso   1.00
H404   H     0.78382   0.42542   0.36860   0.00000  Uiso   1.00
H405   H     0.74502   0.43554   0.40858   0.00000  Uiso   1.00
H406   H     0.74736   0.47114   0.35867   0.00000  Uiso   1.00
C407   C     0.91143   0.50976   0.11627   0.00000  Uiso   1.00
H408   H     0.91214   0.47785   0.13611   0.00000  Uiso   1.00
H409   H     0.93760   0.50679   0.09222   0.00000  Uiso   1.00
H410   H     0.91666   0.53844   0.13975   0.00000  Uiso   1.00
C411   C     0.71162   0.49948   0.45501   0.00000  Uiso   1.00
H412   H     0.71439   0.51171   0.41986   0.00000  Uiso   1.00
H413   H     0.69406   0.46713   0.45590   0.00000  Uiso   1.00
H414   H     0.69317   0.52584   0.47266   0.00000  Uiso   1.00
C415   C     0.92780   0.58131   0.04552   0.00000  Uiso   1.00
H416   H     0.91819   0.58980   0.08027   0.00000  Uiso   1.00
H417   H     0.95972   0.56667   0.04547   0.00000  Uiso   1.00
H418   H     0.92840   0.61431   0.02756   0.00000  Uiso   1.00
Br419  Br    0.70378   0.48035   0.05795   0.00000  Uiso   1.00
Br420  Br    0.94383   0.57321   0.44238   0.00000  Uiso   1.00
O421   O     0.10559   0.87154   0.24999   0.00000  Uiso   1.00
O422   O     0.22774   0.79513   0.25000   0.00000  Uiso   1.00
O423   O     0.22774   0.87154   0.25000   0.00000  Uiso   1.00
O424   O     0.10559   0.79513   0.24999   0.00000  Uiso   1.00
C425   C     0.08664   0.83336   0.25000   0.00000  Uiso   1.00
C426   C     0.24669   0.83330   0.24991   0.00000  Uiso   1.00
O427   O     0.16666   0.87156   0.18392   0.00000  Uiso   1.00
O428   O     0.16667   0.79511   0.31607   0.00000  Uiso   1.00
O429   O     0.16667   0.87156   0.31607   0.00000  Uiso   1.00
O430   O     0.16666   0.79511   0.18392   0.00000  Uiso   1.00
C431   C     0.16695   0.83343   0.16348   0.00000  Uiso   1.00
C432   C     0.16578   0.83335   0.33664   0.00000  Uiso   1.00
Zn433  Zn    0.16667   0.88437   0.25000   0.00000  Uiso   1.00
Zn434  Zn    0.16667   0.78229   0.25000   0.00000  Uiso   1.00
C435   C     0.19669   0.85650   0.40635   0.00000  Uiso   1.00
C436   C     0.12911   0.82813   0.09407   0.00000  Uiso   1.00
C437   C     0.16419   0.83444   0.38473   0.00000  Uiso   1.00
C438   C     0.16698   0.83461   0.11559   0.00000  Uiso   1.00
C439   C     0.12892   0.81902   0.40801   0.00000  Uiso   1.00
C440   C     0.20293   0.84809   0.09260   0.00000  Uiso   1.00
C441   C     0.12499   0.83083   0.45386   0.00000  Uiso   1.00
C442   C     0.19919   0.85958   0.04665   0.00000  Uiso   1.00
C443   C     0.16100   0.84690   0.47678   0.00000  Uiso   1.00
C444   C     0.16196   0.84702   0.02373   0.00000  Uiso   1.00
C445   C     0.19663   0.86113   0.45274   0.00000  Uiso   1.00
C446   C     0.12624   0.83278   0.04772   0.00000  Uiso   1.00
C447   C     0.08694   0.82735   0.47790   0.00000  Uiso   1.00
C448   C     0.23081   0.88283   0.02255   0.00000  Uiso   1.00
C449   C     0.08815   0.82545   0.02510   0.00000  Uiso   1.00
C450   C     0.23062   0.88110   0.47534   0.00000  Uiso   1.00
H451   H     0.22259   0.86836   0.38629   0.00000  Uiso   1.00
H452   H     0.10237   0.81880   0.11417   0.00000  Uiso   1.00
C453   C     0.02147   0.79442   0.26380   0.00000  Uiso   1.00
C454   C     0.31186   0.87218   0.23582   0.00000  Uiso   1.00
C455   C     0.31209   0.79435   0.26366   0.00000  Uiso   1.00
C456   C     0.02124   0.87225   0.23595   0.00000  Uiso   1.00
H457   H     0.03793   0.76436   0.27507   0.00000  Uiso   1.00
H458   H     0.29539   0.90224   0.22457   0.00000  Uiso   1.00
H459   H     0.29582   0.76425   0.27484   0.00000  Uiso   1.00
H460   H     0.03753   0.90234   0.22477   0.00000  Uiso   1.00
C461   C     0.29083   0.83326   0.24975   0.00000  Uiso   1.00
C462   C     0.04251   0.83337   0.24995   0.00000  Uiso   1.00
C463   C     0.19341   0.69056   0.27713   0.00000  Uiso   1.00
C464   C     0.13991   0.97611   0.22288   0.00000  Uiso   1.00
C465   C     0.13991   0.69074   0.22288   0.00000  Uiso   1.00
C466   C     0.19341   0.97593   0.27714   0.00000  Uiso   1.00
H467   H     0.21480   0.70865   0.29883   0.00000  Uiso   1.00
H468   H     0.11852   0.95801   0.20120   0.00000  Uiso   1.00
H469   H     0.11852   0.70898   0.20120   0.00000  Uiso   1.00
H470   H     0.21479   0.95769   0.29884   0.00000  Uiso   1.00
N471   N     0.16667   0.95240   0.25000   0.00000  Uiso   1.00
N472   N     0.16667   0.71427   0.25000   0.00000  Uiso   1.00
C473   C     0.09927   0.78646   0.38477   0.00000  Uiso   1.00
H474   H     0.11715   0.75875   0.36860   0.00000  Uiso   1.00
H475   H     0.07836   0.76887   0.40858   0.00000  Uiso   1.00
H476   H     0.08069   0.80447   0.35867   0.00000  Uiso   1.00
C477   C     0.24476   0.84310   0.11627   0.00000  Uiso   1.00
H478   H     0.24547   0.81118   0.13611   0.00000  Uiso   1.00
H479   H     0.27094   0.84012   0.09222   0.00000  Uiso   1.00
H480   H     0.24999   0.87177   0.13975   0.00000  Uiso   1.00
C481   C     0.04495   0.83282   0.45501   0.00000  Uiso   1.00
H482   H     0.04773   0.84504   0.41986   0.00000  Uiso   1.00
H483   H     0.02739   0.80047   0.45590   0.00000  Uiso   1.00
H484   H     0.02650   0.85917   0.47266   0.00000  Uiso   1.00
C485   C     0.26114   0.91464   0.04552   0.00000  Uiso   1.00
H486   H     0.25153   0.92313   0.08027   0.00000  Uiso   1.00
H487   H     0.29306   0.90000   0.04547   0.00000  Uiso   1.00
H488   H     0.26173   0.94764   0.02756   0.00000  Uiso   1.00
Br489  Br    0.03711   0.81369   0.05795   0.00000  Uiso   1.00
Br490  Br    0.27717   0.90654   0.44238   0.00000  Uiso   1.00
O491   O     0.43892   0.87154   0.24999   0.00000  Uiso   1.00
O492   O     0.56108   0.79513   0.25000   0.00000  Uiso   1.00
O493   O     0.56108   0.87154   0.25000   0.00000  Uiso   1.00
O494   O     0.43892   0.79513   0.24999   0.00000  Uiso   1.00
C495   C     0.41998   0.83336   0.25000   0.00000  Uiso   1.00
C496   C     0.58002   0.83330   0.24991   0.00000  Uiso   1.00
O497   O     0.49999   0.87156   0.18392   0.00000  Uiso   1.00
O498   O     0.50001   0.79511   0.31607   0.00000  Uiso   1.00
O499   O     0.50001   0.87156   0.31607   0.00000  Uiso   1.00
O500   O     0.49999   0.79511   0.18392   0.00000  Uiso   1.00
C501   C     0.50029   0.83343   0.16348   0.00000  Uiso   1.00
C502   C     0.49912   0.83335   0.33664   0.00000  Uiso   1.00
Zn503  Zn    0.50000   0.88437   0.25000   0.00000  Uiso   1.00
Zn504  Zn    0.50000   0.78229   0.25000   0.00000  Uiso   1.00
C505   C     0.53002   0.85650   0.40635   0.00000  Uiso   1.00
C506   C     0.46245   0.82813   0.09407   0.00000  Uiso   1.00
C507   C     0.49752   0.83444   0.38473   0.00000  Uiso   1.00
C508   C     0.50031   0.83461   0.11559   0.00000  Uiso   1.00
C509   C     0.46226   0.81902   0.40801   0.00000  Uiso   1.00
C510   C     0.53626   0.84809   0.09260   0.00000  Uiso   1.00
C511   C     0.45832   0.83083   0.45386   0.00000  Uiso   1.00
C512   C     0.53252   0.85958   0.04665   0.00000  Uiso   1.00
C513   C     0.49434   0.84690   0.47678   0.00000  Uiso   1.00
C514   C     0.49529   0.84702   0.02373   0.00000  Uiso   1.00
C515   C     0.52996   0.86113   0.45274   0.00000  Uiso   1.00
C516   C     0.45957   0.83278   0.04772   0.00000  Uiso   1.00
C517   C     0.42027   0.82735   0.47790   0.00000  Uiso   1.00
C518   C     0.56414   0.88283   0.02255   0.00000  Uiso   1.00
C519   C     0.42148   0.82545   0.02510   0.00000  Uiso   1.00
C520   C     0.56396   0.88110   0.47534   0.00000  Uiso   1.00
H521   H     0.55592   0.86836   0.38629   0.00000  Uiso   1.00
H522   H     0.43570   0.81880   0.11417   0.00000  Uiso   1.00
C523   C     0.35480   0.79442   0.26380   0.00000  Uiso   1.00
C524   C     0.64519   0.87218   0.23582   0.00000  Uiso   1.00
C525   C     0.64543   0.79435   0.26366   0.00000  Uiso   1.00
C526   C     0.35458   0.87225   0.23595   0.00000  Uiso   1.00
H527   H     0.37126   0.76436   0.27507   0.00000  Uiso   1.00
H528   H     0.62872   0.90224   0.22457   0.00000  Uiso   1.00
H529   H     0.62915   0.76425   0.27484   0.00000  Uiso   1.00
H530   H     0.37086   0.90234   0.22477   0.00000  Uiso   1.00
C531   C     0.62416   0.83326   0.24975   0.00000  Uiso   1.00
C532   C     0.37584   0.83337   0.24995   0.00000  Uiso   1.00
C533   C     0.52674   0.69056   0.27713   0.00000  Uiso   1.00
C534   C     0.47324   0.97611   0.22288   0.00000  Uiso   1.00
C535   C     0.47324   0.69074   0.22288   0.00000  Uiso   1.00
C536   C     0.52674   0.97593   0.27714   0.00000  Uiso   1.00
H537   H     0.54813   0.70865   0.29883   0.00000  Uiso   1.00
H538   H     0.45185   0.95801   0.20120   0.00000  Uiso   1.00
H539   H     0.45185   0.70898   0.20120   0.00000  Uiso   1.00
H540   H     0.54812   0.95769   0.29884   0.00000  Uiso   1.00
N541   N     0.50000   0.95240   0.25000   0.00000  Uiso   1.00
N542   N     0.50000   0.71427   0.25000   0.00000  Uiso   1.00
C543   C     0.43261   0.78646   0.38477   0.00000  Uiso   1.00
H544   H     0.45048   0.75875   0.36860   0.00000  Uiso   1.00
H545   H     0.41169   0.76887   0.40858   0.00000  Uiso   1.00
H546   H     0.41402   0.80447   0.35867   0.00000  Uiso   1.00
C547   C     0.57809   0.84310   0.11627   0.00000  Uiso   1.00
H548   H     0.57881   0.81118   0.13611   0.00000  Uiso   1.00
H549   H     0.60427   0.84012   0.09222   0.00000  Uiso   1.00
H550   H     0.58332   0.87177   0.13975   0.00000  Uiso   1.00
C551   C     0.37828   0.83282   0.45501   0.00000  Uiso   1.00
H552   H     0.38106   0.84504   0.41986   0.00000  Uiso   1.00
H553   H     0.36073   0.80047   0.45590   0.00000  Uiso   1.00
H554   H     0.35983   0.85917   0.47266   0.00000  Uiso   1.00
C555   C     0.59447   0.91464   0.04552   0.00000  Uiso   1.00
H556   H     0.58486   0.92313   0.08027   0.00000  Uiso   1.00
H557   H     0.62639   0.90000   0.04547   0.00000  Uiso   1.00
H558   H     0.59506   0.94764   0.02756   0.00000  Uiso   1.00
Br559  Br    0.37044   0.81369   0.05795   0.00000  Uiso   1.00
Br560  Br    0.61050   0.90654   0.44238   0.00000  Uiso   1.00
O561   O     0.77226   0.87154   0.24999   0.00000  Uiso   1.00
O562   O     0.89441   0.79513   0.25000   0.00000  Uiso   1.00
O563   O     0.89441   0.87154   0.25000   0.00000  Uiso   1.00
O564   O     0.77226   0.79513   0.24999   0.00000  Uiso   1.00
C565   C     0.75331   0.83336   0.25000   0.00000  Uiso   1.00
C566   C     0.91335   0.83330   0.24991   0.00000  Uiso   1.00
O567   O     0.83333   0.87156   0.18392   0.00000  Uiso   1.00
O568   O     0.83334   0.79511   0.31607   0.00000  Uiso   1.00
O569   O     0.83334   0.87156   0.31607   0.00000  Uiso   1.00
O570   O     0.83333   0.79511   0.18392   0.00000  Uiso   1.00
C571   C     0.83362   0.83343   0.16348   0.00000  Uiso   1.00
C572   C     0.83245   0.83335   0.33664   0.00000  Uiso   1.00
Zn573  Zn    0.83333   0.88437   0.25000   0.00000  Uiso   1.00
Zn574  Zn    0.83333   0.78229   0.25000   0.00000  Uiso   1.00
C575   C     0.86335   0.85650   0.40635   0.00000  Uiso   1.00
C576   C     0.79578   0.82813   0.09407   0.00000  Uiso   1.00
C577   C     0.83085   0.83444   0.38473   0.00000  Uiso   1.00
C578   C     0.83364   0.83461   0.11559   0.00000  Uiso   1.00
C579   C     0.79559   0.81902   0.40801   0.00000  Uiso   1.00
C580   C     0.86960   0.84809   0.09260   0.00000  Uiso   1.00
C581   C     0.79166   0.83083   0.45386   0.00000  Uiso   1.00
C582   C     0.86585   0.85958   0.04665   0.00000  Uiso   1.00
C583   C     0.82767   0.84690   0.47678   0.00000  Uiso   1.00
C584   C     0.82863   0.84702   0.02373   0.00000  Uiso   1.00
C585   C     0.86329   0.86113   0.45274   0.00000  Uiso   1.00
C586   C     0.79290   0.83278   0.04772   0.00000  Uiso   1.00
C587   C     0.75360   0.82735   0.47790   0.00000  Uiso   1.00
C588   C     0.89747   0.88283   0.02255   0.00000  Uiso   1.00
C589   C     0.75481   0.82545   0.02510   0.00000  Uiso   1.00
C590   C     0.89729   0.88110   0.47534   0.00000  Uiso   1.00
H591   H     0.88925   0.86836   0.38629   0.00000  Uiso   1.00
H592   H     0.76903   0.81880   0.11417   0.00000  Uiso   1.00
C593   C     0.68814   0.79442   0.26380   0.00000  Uiso   1.00
C594   C     0.97852   0.87218   0.23582   0.00000  Uiso   1.00
C595   C     0.97876   0.79435   0.26366   0.00000  Uiso   1.00
C596   C     0.68791   0.87225   0.23595   0.00000  Uiso   1.00
H597   H     0.70460   0.76436   0.27507   0.00000  Uiso   1.00
H598   H     0.96206   0.90224   0.22457   0.00000  Uiso   1.00
H599   H     0.96248   0.76425   0.27484   0.00000  Uiso   1.00
H600   H     0.70419   0.90234   0.22477   0.00000  Uiso   1.00
C601   C     0.95749   0.83326   0.24975   0.00000  Uiso   1.00
C602   C     0.70917   0.83337   0.24995   0.00000  Uiso   1.00
C603   C     0.86008   0.69056   0.27713   0.00000  Uiso   1.00
C604   C     0.80658   0.97611   0.22288   0.00000  Uiso   1.00
C605   C     0.80658   0.69074   0.22288   0.00000  Uiso   1.00
C606   C     0.86008   0.97593   0.27714   0.00000  Uiso   1.00
H607   H     0.88146   0.70865   0.29883   0.00000  Uiso   1.00
H608   H     0.78518   0.95801   0.20120   0.00000  Uiso   1.00
H609   H     0.78518   0.70898   0.20120   0.00000  Uiso   1.00
H610   H     0.88145   0.95769   0.29884   0.00000  Uiso   1.00
N611   N     0.83333   0.95240   0.25000   0.00000  Uiso   1.00
N612   N     0.83333   0.71427   0.25000   0.00000  Uiso   1.00
C613   C     0.76594   0.78646   0.38477   0.00000  Uiso   1.00
H614   H     0.78382   0.75875   0.36860   0.00000  Uiso   1.00
H615   H     0.74502   0.76887   0.40858   0.00000  Uiso   1.00
H616   H     0.74736   0.80447   0.35867   0.00000  Uiso   1.00
C617   C     0.91143   0.84310   0.11627   0.00000  Uiso   1.00
H618   H     0.91214   0.81118   0.13611   0.00000  Uiso   1.00
H619   H     0.93760   0.84012   0.09222   0.00000  Uiso   1.00
H620   H     0.91666   0.87177   0.13975   0.00000  Uiso   1.00
C621   C     0.71162   0.83282   0.45501   0.00000  Uiso   1.00
H622   H     0.71439   0.84504   0.41986   0.00000  Uiso   1.00
H623   H     0.69406   0.80047   0.45590   0.00000  Uiso   1.00
H624   H     0.69317   0.85917   0.47266   0.00000  Uiso   1.00
C625   C     0.92780   0.91464   0.04552   0.00000  Uiso   1.00
H626   H     0.91819   0.92313   0.08027   0.00000  Uiso   1.00
H627   H     0.95972   0.90000   0.04547   0.00000  Uiso   1.00
H628   H     0.92840   0.94764   0.02756   0.00000  Uiso   1.00
Br629  Br    0.70378   0.81369   0.05795   0.00000  Uiso   1.00
Br630  Br    0.94383   0.90654   0.44238   0.00000  Uiso   1.00
O631   O     0.10559   0.20487   0.74999   0.00000  Uiso   1.00
O632   O     0.22774   0.12846   0.75000   0.00000  Uiso   1.00
O633   O     0.22774   0.20487   0.75000   0.00000  Uiso   1.00
O634   O     0.10559   0.12846   0.74999   0.00000  Uiso   1.00
C635   C     0.08664   0.16669   0.75000   0.00000  Uiso   1.00
C636   C     0.24669   0.16664   0.74991   0.00000  Uiso   1.00
O637   O     0.16666   0.20489   0.68392   0.00000  Uiso   1.00
O638   O     0.16667   0.12844   0.81607   0.00000  Uiso   1.00
O639   O     0.16667   0.20489   0.81607   0.00000  Uiso   1.00
O640   O     0.16666   0.12844   0.68392   0.00000  Uiso   1.00
C641   C     0.16695   0.16677   0.66348   0.00000  Uiso   1.00
C642   C     0.16578   0.16668   0.83664   0.00000  Uiso   1.00
Zn643  Zn    0.16667   0.21771   0.75000   0.00000  Uiso   1.00
Zn644  Zn    0.16667   0.11563   0.75000   0.00000  Uiso   1.00
C645   C     0.19669   0.18983   0.90635   0.00000  Uiso   1.00
C646   C     0.12911   0.16147   0.59407   0.00000  Uiso   1.00
C647   C     0.16419   0.16778   0.88473   0.00000  Uiso   1.00
C648   C     0.16698   0.16794   0.61559   0.00000  Uiso   1.00
C649   C     0.12892   0.15235   0.90801   0.00000  Uiso   1.00
C650   C     0.20293   0.18142   0.59260   0.00000  Uiso   1.00
C651   C     0.12499   0.16416   0.95386   0.00000  Uiso   1.00
C652   C     0.19919   0.19291   0.54665   0.00000  Uiso   1.00
C653   C     0.16100   0.18023   0.97678   0.00000  Uiso   1.00
C654   C     0.16196   0.18035   0.52373   0.00000  Uiso   1.00
C655   C     0.19663   0.19446   0.95274   0.00000  Uiso   1.00
C656   C     0.12624   0.16611   0.54772   0.00000  Uiso   1.00
C657   C     0.08694   0.16069   0.97790   0.00000  Uiso   1.00
C658   C     0.23081   0.21616   0.52255   0.00000  Uiso   1.00
C659   C     0.08815   0.15878   0.52510   0.00000  Uiso   1.00
C660   C     0.23062   0.21443   0.97534   0.00000  Uiso   1.00
H661   H     0.22259   0.20169   0.88629   0.00000  Uiso   1.00
H662   H     0.10237   0.15214   0.61417   0.00000  Uiso   1.00
C663   C     0.02147   0.12775   0.76380   0.00000  Uiso   1.00
C664   C     0.31186   0.20551   0.73582   0.00000  Uiso   1.00
C665   C     0.31209   0.12768   0.76366   0.00000  Uiso   1.00
C666   C     0.02124   0.20558   0.73595   0.00000  Uiso   1.00
H667   H     0.03793   0.09769   0.77507   0.00000  Uiso   1.00
H668   H     0.29539   0.23558   0.72457   0.00000  Uiso   1.00
H669   H     0.29582   0.09758   0.77484   0.00000  Uiso   1.00
H670   H     0.03753   0.23568   0.72477   0.00000  Uiso   1.00
C671   C     0.29083   0.16659   0.74975   0.00000  Uiso   1.00
C672   C     0.04251   0.16670   0.74995   0.00000  Uiso   1.00
C673   C     0.19341   0.02389   0.77713   0.00000  Uiso   1.00
C674   C     0.13991   0.30944   0.72288   0.00000  Uiso   1.00
C675   C     0.13991   0.02407   0.72288   0.00000  Uiso   1.00
C676   C     0.19341   0.30926   0.77714   0.00000  Uiso   1.00
H677   H     0.21480   0.04198   0.79883   0.00000  Uiso   1.00
H678   H     0.11852   0.29135   0.70120   0.00000  Uiso   1.00
H679   H     0.11852   0.04231   0.70120   0.00000  Uiso   1.00
H680   H     0.21479   0.29102   0.79884   0.00000  Uiso   1.00
N681   N     0.16667   0.28573   0.75000   0.00000  Uiso   1.00
N682   N     0.16667   0.04760   0.75000   0.00000  Uiso   1.00
C683   C     0.09927   0.11979   0.88477   0.00000  Uiso   1.00
H684   H     0.11715   0.09208   0.86860   0.00000  Uiso   1.00
H685   H     0.07836   0.10221   0.90858   0.00000  Uiso   1.00
H686   H     0.08069   0.13781   0.85867   0.00000  Uiso   1.00
C687   C     0.24476   0.17643   0.61627   0.00000  Uiso   1.00
H688   H     0.24547   0.14451   0.63611   0.00000  Uiso   1.00
H689   H     0.27094   0.17346   0.59222   0.00000  Uiso   1.00
H690   H     0.24999   0.20510   0.63975   0.00000  Uiso   1.00
C691   C     0.04495   0.16615   0.95501   0.00000  Uiso   1.00
H692   H     0.04773   0.17837   0.91986   0.00000  Uiso   1.00
H693   H     0.02739   0.13380   0.95590   0.00000  Uiso   1.00
H694   H     0.02650   0.19251   0.97266   0.00000  Uiso   1.00
C695   C     0.26114   0.24798   0.54552   0.00000  Uiso   1.00
H696   H     0.25153   0.25647   0.58027   0.00000  Uiso   1.00
H697   H     0.29306   0.23333   0.54547   0.00000  Uiso   1.00
H698   H     0.26173   0.28097   0.52756   0.00000  Uiso   1.00
Br699  Br    0.03711   0.14702   0.55795   0.00000  Uiso   1.00
Br700  Br    0.27717   0.23988   0.94238   0.00000  Uiso   1.00
O701   O     0.43892   0.20487   0.74999   0.00000  Uiso   1.00
O702   O     0.56108   0.12846   0.75000   0.00000  Uiso   1.00
O703   O     0.56108   0.20487   0.75000   0.00000  Uiso   1.00
O704   O     0.43892   0.12846   0.74999   0.00000  Uiso   1.00
C705   C     0.41998   0.16669   0.75000   0.00000  Uiso   1.00
C706   C     0.58002   0.16664   0.74991   0.00000  Uiso   1.00
O707   O     0.49999   0.20489   0.68392   0.00000  Uiso   1.00
O708   O     0.50001   0.12844   0.81607   0.00000  Uiso   1.00
O709   O     0.50001   0.20489   0.81607   0.00000  Uiso   1.00
O710   O     0.49999   0.12844   0.68392   0.00000  Uiso   1.00
C711   C     0.50029   0.16677   0.66348   0.00000  Uiso   1.00
C712   C     0.49912   0.16668   0.83664   0.00000  Uiso   1.00
Zn713  Zn    0.50000   0.21771   0.75000   0.00000  Uiso   1.00
Zn714  Zn    0.50000   0.11563   0.75000   0.00000  Uiso   1.00
C715   C     0.53002   0.18983   0.90635   0.00000  Uiso   1.00
C716   C     0.46245   0.16147   0.59407   0.00000  Uiso   1.00
C717   C     0.49752   0.16778   0.88473   0.00000  Uiso   1.00
C718   C     0.50031   0.16794   0.61559   0.00000  Uiso   1.00
C719   C     0.46226   0.15235   0.90801   0.00000  Uiso   1.00
C720   C     0.53626   0.18142   0.59260   0.00000  Uiso   1.00
C721   C     0.45832   0.16416   0.95386   0.00000  Uiso   1.00
C722   C     0.53252   0.19291   0.54665   0.00000  Uiso   1.00
C723   C     0.49434   0.18023   0.97678   0.00000  Uiso   1.00
C724   C     0.49529   0.18035   0.52373   0.00000  Uiso   1.00
C725   C     0.52996   0.19446   0.95274   0.00000  Uiso   1.00
C726   C     0.45957   0.16611   0.54772   0.00000  Uiso   1.00
C727   C     0.42027   0.16069   0.97790   0.00000  Uiso   1.00
C728   C     0.56414   0.21616   0.52255   0.00000  Uiso   1.00
C729   C     0.42148   0.15878   0.52510   0.00000  Uiso   1.00
C730   C     0.56396   0.21443   0.97534   0.00000  Uiso   1.00
H731   H     0.55592   0.20169   0.88629   0.00000  Uiso   1.00
H732   H     0.43570   0.15214   0.61417   0.00000  Uiso   1.00
C733   C     0.35480   0.12775   0.76380   0.00000  Uiso   1.00
C734   C     0.64519   0.20551   0.73582   0.00000  Uiso   1.00
C735   C     0.64543   0.12768   0.76366   0.00000  Uiso   1.00
C736   C     0.35458   0.20558   0.73595   0.00000  Uiso   1.00
H737   H     0.37126   0.09769   0.77507   0.00000  Uiso   1.00
H738   H     0.62872   0.23558   0.72457   0.00000  Uiso   1.00
H739   H     0.62915   0.09758   0.77484   0.00000  Uiso   1.00
H740   H     0.37086   0.23568   0.72477   0.00000  Uiso   1.00
C741   C     0.62416   0.16659   0.74975   0.00000  Uiso   1.00
C742   C     0.37584   0.16670   0.74995   0.00000  Uiso   1.00
C743   C     0.52674   0.02389   0.77713   0.00000  Uiso   1.00
C744   C     0.47324   0.30944   0.72288   0.00000  Uiso   1.00
C745   C     0.47324   0.02407   0.72288   0.00000  Uiso   1.00
C746   C     0.52674   0.30926   0.77714   0.00000  Uiso   1.00
H747   H     0.54813   0.04198   0.79883   0.00000  Uiso   1.00
H748   H     0.45185   0.29135   0.70120   0.00000  Uiso   1.00
H749   H     0.45185   0.04231   0.70120   0.00000  Uiso   1.00
H750   H     0.54812   0.29102   0.79884   0.00000  Uiso   1.00
N751   N     0.50000   0.28573   0.75000   0.00000  Uiso   1.00
N752   N     0.50000   0.04760   0.75000   0.00000  Uiso   1.00
C753   C     0.43261   0.11979   0.88477   0.00000  Uiso   1.00
H754   H     0.45048   0.09208   0.86860   0.00000  Uiso   1.00
H755   H     0.41169   0.10221   0.90858   0.00000  Uiso   1.00
H756   H     0.41402   0.13781   0.85867   0.00000  Uiso   1.00
C757   C     0.57809   0.17643   0.61627   0.00000  Uiso   1.00
H758   H     0.57881   0.14451   0.63611   0.00000  Uiso   1.00
H759   H     0.60427   0.17346   0.59222   0.00000  Uiso   1.00
H760   H     0.58332   0.20510   0.63975   0.00000  Uiso   1.00
C761   C     0.37828   0.16615   0.95501   0.00000  Uiso   1.00
H762   H     0.38106   0.17837   0.91986   0.00000  Uiso   1.00
H763   H     0.36073   0.13380   0.95590   0.00000  Uiso   1.00
H764   H     0.35983   0.19251   0.97266   0.00000  Uiso   1.00
C765   C     0.59447   0.24798   0.54552   0.00000  Uiso   1.00
H766   H     0.58486   0.25647   0.58027   0.00000  Uiso   1.00
H767   H     0.62639   0.23333   0.54547   0.00000  Uiso   1.00
H768   H     0.59506   0.28097   0.52756   0.00000  Uiso   1.00
Br769  Br    0.37044   0.14702   0.55795   0.00000  Uiso   1.00
Br770  Br    0.61050   0.23988   0.94238   0.00000  Uiso   1.00
O771   O     0.77226   0.20487   0.74999   0.00000  Uiso   1.00
O772   O     0.89441   0.12846   0.75000   0.00000  Uiso   1.00
O773   O     0.89441   0.20487   0.75000   0.00000  Uiso   1.00
O774   O     0.77226   0.12846   0.74999   0.00000  Uiso   1.00
C775   C     0.75331   0.16669   0.75000   0.00000  Uiso   1.00
C776   C     0.91335   0.16664   0.74991   0.00000  Uiso   1.00
O777   O     0.83333   0.20489   0.68392   0.00000  Uiso   1.00
O778   O     0.83334   0.12844   0.81607   0.00000  Uiso   1.00
O779   O     0.83334   0.20489   0.81607   0.00000  Uiso   1.00
O780   O     0.83333   0.12844   0.68392   0.00000  Uiso   1.00
C781   C     0.83362   0.16677   0.66348   0.00000  Uiso   1.00
C782   C     0.83245   0.16668   0.83664   0.00000  Uiso   1.00
Zn783  Zn    0.83333   0.21771   0.75000   0.00000  Uiso   1.00
Zn784  Zn    0.83333   0.11563   0.75000   0.00000  Uiso   1.00
C785   C     0.86335   0.18983   0.90635   0.00000  Uiso   1.00
C786   C     0.79578   0.16147   0.59407   0.00000  Uiso   1.00
C787   C     0.83085   0.16778   0.88473   0.00000  Uiso   1.00
C788   C     0.83364   0.16794   0.61559   0.00000  Uiso   1.00
C789   C     0.79559   0.15235   0.90801   0.00000  Uiso   1.00
C790   C     0.86960   0.18142   0.59260   0.00000  Uiso   1.00
C791   C     0.79166   0.16416   0.95386   0.00000  Uiso   1.00
C792   C     0.86585   0.19291   0.54665   0.00000  Uiso   1.00
C793   C     0.82767   0.18023   0.97678   0.00000  Uiso   1.00
C794   C     0.82863   0.18035   0.52373   0.00000  Uiso   1.00
C795   C     0.86329   0.19446   0.95274   0.00000  Uiso   1.00
C796   C     0.79290   0.16611   0.54772   0.00000  Uiso   1.00
C797   C     0.75360   0.16069   0.97790   0.00000  Uiso   1.00
C798   C     0.89747   0.21616   0.52255   0.00000  Uiso   1.00
C799   C     0.75481   0.15878   0.52510   0.00000  Uiso   1.00
C800   C     0.89729   0.21443   0.97534   0.00000  Uiso   1.00
H801   H     0.88925   0.20169   0.88629   0.00000  Uiso   1.00
H802   H     0.76903   0.15214   0.61417   0.00000  Uiso   1.00
C803   C     0.68814   0.12775   0.76380   0.00000  Uiso   1.00
C804   C     0.97852   0.20551   0.73582   0.00000  Uiso   1.00
C805   C     0.97876   0.12768   0.76366   0.00000  Uiso   1.00
C806   C     0.68791   0.20558   0.73595   0.00000  Uiso   1.00
H807   H     0.70460   0.09769   0.77507   0.00000  Uiso   1.00
H808   H     0.96206   0.23558   0.72457   0.00000  Uiso   1.00
H809   H     0.96248   0.09758   0.77484   0.00000  Uiso   1.00
H810   H     0.70419   0.23568   0.72477   0.00000  Uiso   1.00
C811   C     0.95749   0.16659   0.74975   0.00000  Uiso   1.00
C812   C     0.70917   0.16670   0.74995   0.00000  Uiso   1.00
C813   C     0.86008   0.02389   0.77713   0.00000  Uiso   1.00
C814   C     0.80658   0.30944   0.72288   0.00000  Uiso   1.00
C815   C     0.80658   0.02407   0.72288   0.00000  Uiso   1.00
C816   C     0.86008   0.30926   0.77714   0.00000  Uiso   1.00
H817   H     0.88146   0.04198   0.79883   0.00000  Uiso   1.00
H818   H     0.78518   0.29135   0.70120   0.00000  Uiso   1.00
H819   H     0.78518   0.04231   0.70120   0.00000  Uiso   1.00
H820   H     0.88145   0.29102   0.79884   0.00000  Uiso   1.00
N821   N     0.83333   0.28573   0.75000   0.00000  Uiso   1.00
N822   N     0.83333   0.04760   0.75000   0.00000  Uiso   1.00
C823   C     0.76594   0.11979   0.88477   0.00000  Uiso   1.00
H824   H     0.78382   0.09208   0.86860   0.00000  Uiso   1.00
H825   H     0.74502   0.10221   0.90858   0.00000  Uiso   1.00
H826   H     0.74736   0.13781   0.85867   0.00000  Uiso   1.00
C827   C     0.91143   0.17643   0.61627   0.00000  Uiso   1.00
H828   H     0.91214   0.14451   0.63611   0.00000  Uiso   1.00
H829   H     0.93760   0.17346   0.59222   0.00000  Uiso   1.00
H830   H     0.91666   0.20510   0.63975   0.00000  Uiso   1.00
C831   C     0.71162   0.16615   0.95501   0.00000  Uiso   1.00
H832   H     0.71439   0.17837   0.91986   0.00000  Uiso   1.00
H833   H     0.69406   0.13380   0.95590   0.00000  Uiso   1.00
H834   H     0.69317   0.19251   0.97266   0.00000  Uiso   1.00
C835   C     0.92780   0.24798   0.54552   0.00000  Uiso   1.00
H836   H     0.91819   0.25647   0.58027   0.00000  Uiso   1.00
H837   H     0.95972   0.23333   0.54547   0.00000  Uiso   1.00
H838   H     0.92840   0.28097   0.52756   0.00000  Uiso   1.00
Br839  Br    0.70378   0.14702   0.55795   0.00000  Uiso   1.00
Br840  Br    0.94383   0.23988   0.94238   0.00000  Uiso   1.00
O841   O     0.10559   0.53821   0.74999   0.00000  Uiso   1.00
O842   O     0.22774   0.46179   0.75000   0.00000  Uiso   1.00
O843   O     0.22774   0.53821   0.75000   0.00000  Uiso   1.00
O844   O     0.10559   0.46179   0.74999   0.00000  Uiso   1.00
C845   C     0.08664   0.50003   0.75000   0.00000  Uiso   1.00
C846   C     0.24669   0.49997   0.74991   0.00000  Uiso   1.00
O847   O     0.16666   0.53823   0.68392   0.00000  Uiso   1.00
O848   O     0.16667   0.46177   0.81607   0.00000  Uiso   1.00
O849   O     0.16667   0.53823   0.81607   0.00000  Uiso   1.00
O850   O     0.16666   0.46177   0.68392   0.00000  Uiso   1.00
C851   C     0.16695   0.50010   0.66348   0.00000  Uiso   1.00
C852   C     0.16578   0.50001   0.83664   0.00000  Uiso   1.00
Zn853  Zn    0.16667   0.55104   0.75000   0.00000  Uiso   1.00
Zn854  Zn    0.16667   0.44896   0.75000   0.00000  Uiso   1.00
C855   C     0.19669   0.52317   0.90635   0.00000  Uiso   1.00
C856   C     0.12911   0.49480   0.59407   0.00000  Uiso   1.00
C857   C     0.16419   0.50111   0.88473   0.00000  Uiso   1.00
C858   C     0.16698   0.50127   0.61559   0.00000  Uiso   1.00
C859   C     0.12892   0.48569   0.90801   0.00000  Uiso   1.00
C860   C     0.20293   0.51476   0.59260   0.00000  Uiso   1.00
C861   C     0.12499   0.49750   0.95386   0.00000  Uiso   1.00
C862   C     0.19919   0.52624   0.54665   0.00000  Uiso   1.00
C863   C     0.16100   0.51356   0.97678   0.00000  Uiso   1.00
C864   C     0.16196   0.51368   0.52373   0.00000  Uiso   1.00
C865   C     0.19663   0.52780   0.95274   0.00000  Uiso   1.00
C866   C     0.12624   0.49945   0.54772   0.00000  Uiso   1.00
C867   C     0.08694   0.49402   0.97790   0.00000  Uiso   1.00
C868   C     0.23081   0.54949   0.52255   0.00000  Uiso   1.00
C869   C     0.08815   0.49211   0.52510   0.00000  Uiso   1.00
C870   C     0.23062   0.54777   0.97534   0.00000  Uiso   1.00
H871   H     0.22259   0.53503   0.88629   0.00000  Uiso   1.00
H872   H     0.10237   0.48547   0.61417   0.00000  Uiso   1.00
C873   C     0.02147   0.46108   0.76380   0.00000  Uiso   1.00
C874   C     0.31186   0.53885   0.73582   0.00000  Uiso   1.00
C875   C     0.31209   0.46102   0.76366   0.00000  Uiso   1.00
C876   C     0.02124   0.53891   0.73595   0.00000  Uiso   1.00
H877   H     0.03793   0.43102   0.77507   0.00000  Uiso   1.00
H878   H     0.29539   0.56891   0.72457   0.00000  Uiso   1.00
H879   H     0.29582   0.43091   0.77484   0.00000  Uiso   1.00
H880   H     0.03753   0.56901   0.72477   0.00000  Uiso   1.00
C881   C     0.29083   0.49992   0.74975   0.00000  Uiso   1.00
C882   C     0.04251   0.50004   0.74995   0.00000  Uiso   1.00
C883   C     0.19341   0.35722   0.77713   0.00000  Uiso   1.00
C884   C     0.13991   0.64278   0.72288   0.00000  Uiso   1.00
C885   C     0.13991   0.35740   0.72288   0.00000  Uiso   1.00
C886   C     0.19341   0.64260   0.77714   0.00000  Uiso   1.00
H887   H     0.21480   0.37532   0.79883   0.00000  Uiso   1.00
H888   H     0.11852   0.62468   0.70120   0.00000  Uiso   1.00
H889   H     0.11852   0.37564   0.70120   0.00000  Uiso   1.00
H890   H     0.21479   0.62436   0.79884   0.00000  Uiso   1.00
N891   N     0.16667   0.61907   0.75000   0.00000  Uiso   1.00
N892   N     0.16667   0.38093   0.75000   0.00000  Uiso   1.00
C893   C     0.09927   0.45313   0.88477   0.00000  Uiso   1.00
H894   H     0.11715   0.42542   0.86860   0.00000  Uiso   1.00
H895   H     0.07836   0.43554   0.90858   0.00000  Uiso   1.00
H896   H     0.08069   0.47114   0.85867   0.00000  Uiso   1.00
C897   C     0.24476   0.50976   0.61627   0.00000  Uiso   1.00
H898   H     0.24547   0.47785   0.63611   0.00000  Uiso   1.00
H899   H     0.27094   0.50679   0.59222   0.00000  Uiso   1.00
H900   H     0.24999   0.53844   0.63975   0.00000  Uiso   1.00
C901   C     0.04495   0.49948   0.95501   0.00000  Uiso   1.00
H902   H     0.04773   0.51171   0.91986   0.00000  Uiso   1.00
H903   H     0.02739   0.46713   0.95590   0.00000  Uiso   1.00
H904   H     0.02650   0.52584   0.97266   0.00000  Uiso   1.00
C905   C     0.26114   0.58131   0.54552   0.00000  Uiso   1.00
H906   H     0.25153   0.58980   0.58027   0.00000  Uiso   1.00
H907   H     0.29306   0.56667   0.54547   0.00000  Uiso   1.00
H908   H     0.26173   0.61431   0.52756   0.00000  Uiso   1.00
Br909  Br    0.03711   0.48035   0.55795   0.00000  Uiso   1.00
Br910  Br    0.27717   0.57321   0.94238   0.00000  Uiso   1.00
O911   O     0.43892   0.53821   0.74999   0.00000  Uiso   1.00
O912   O     0.56108   0.46179   0.75000   0.00000  Uiso   1.00
O913   O     0.56108   0.53821   0.75000   0.00000  Uiso   1.00
O914   O     0.43892   0.46179   0.74999   0.00000  Uiso   1.00
C915   C     0.41998   0.50003   0.75000   0.00000  Uiso   1.00
C916   C     0.58002   0.49997   0.74991   0.00000  Uiso   1.00
O917   O     0.49999   0.53823   0.68392   0.00000  Uiso   1.00
O918   O     0.50001   0.46177   0.81607   0.00000  Uiso   1.00
O919   O     0.50001   0.53823   0.81607   0.00000  Uiso   1.00
O920   O     0.49999   0.46177   0.68392   0.00000  Uiso   1.00
C921   C     0.50029   0.50010   0.66348   0.00000  Uiso   1.00
C922   C     0.49912   0.50001   0.83664   0.00000  Uiso   1.00
Zn923  Zn    0.50000   0.55104   0.75000   0.00000  Uiso   1.00
Zn924  Zn    0.50000   0.44896   0.75000   0.00000  Uiso   1.00
C925   C     0.53002   0.52317   0.90635   0.00000  Uiso   1.00
C926   C     0.46245   0.49480   0.59407   0.00000  Uiso   1.00
C927   C     0.49752   0.50111   0.88473   0.00000  Uiso   1.00
C928   C     0.50031   0.50127   0.61559   0.00000  Uiso   1.00
C929   C     0.46226   0.48569   0.90801   0.00000  Uiso   1.00
C930   C     0.53626   0.51476   0.59260   0.00000  Uiso   1.00
C931   C     0.45832   0.49750   0.95386   0.00000  Uiso   1.00
C932   C     0.53252   0.52624   0.54665   0.00000  Uiso   1.00
C933   C     0.49434   0.51356   0.97678   0.00000  Uiso   1.00
C934   C     0.49529   0.51368   0.52373   0.00000  Uiso   1.00
C935   C     0.52996   0.52780   0.95274   0.00000  Uiso   1.00
C936   C     0.45957   0.49945   0.54772   0.00000  Uiso   1.00
C937   C     0.42027   0.49402   0.97790   0.00000  Uiso   1.00
C938   C     0.56414   0.54949   0.52255   0.00000  Uiso   1.00
C939   C     0.42148   0.49211   0.52510   0.00000  Uiso   1.00
C940   C     0.56396   0.54777   0.97534   0.00000  Uiso   1.00
H941   H     0.55592   0.53503   0.88629   0.00000  Uiso   1.00
H942   H     0.43570   0.48547   0.61417   0.00000  Uiso   1.00
C943   C     0.35480   0.46108   0.76380   0.00000  Uiso   1.00
C944   C     0.64519   0.53885   0.73582   0.00000  Uiso   1.00
C945   C     0.64543   0.46102   0.76366   0.00000  Uiso   1.00
C946   C     0.35458   0.53891   0.73595   0.00000  Uiso   1.00
H947   H     0.37126   0.43102   0.77507   0.00000  Uiso   1.00
H948   H     0.62872   0.56891   0.72457   0.00000  Uiso   1.00
H949   H     0.62915   0.43091   0.77484   0.00000  Uiso   1.00
H950   H     0.37086   0.56901   0.72477   0.00000  Uiso   1.00
C951   C     0.62416   0.49992   0.74975   0.00000  Uiso   1.00
C952   C     0.37584   0.50004   0.74995   0.00000  Uiso   1.00
C953   C     0.52674   0.35722   0.77713   0.00000  Uiso   1.00
C954   C     0.47324   0.64278   0.72288   0.00000  Uiso   1.00
C955   C     0.47324   0.35740   0.72288   0.00000  Uiso   1.00
C956   C     0.52674   0.64260   0.77714   0.00000  Uiso   1.00
H957   H     0.54813   0.37532   0.79883   0.00000  Uiso   1.00
H958   H     0.45185   0.62468   0.70120   0.00000  Uiso   1.00
H959   H     0.45185   0.37564   0.70120   0.00000  Uiso   1.00
H960   H     0.54812   0.62436   0.79884   0.00000  Uiso   1.00
N961   N     0.50000   0.61907   0.75000   0.00000  Uiso   1.00
N962   N     0.50000   0.38093   0.75000   0.00000  Uiso   1.00
C963   C     0.43261   0.45313   0.88477   0.00000  Uiso   1.00
H964   H     0.45048   0.42542   0.86860   0.00000  Uiso   1.00
H965   H     0.41169   0.43554   0.90858   0.00000  Uiso   1.00
H966   H     0.41402   0.47114   0.85867   0.00000  Uiso   1.00
C967   C     0.57809   0.50976   0.61627   0.00000  Uiso   1.00
H968   H     0.57881   0.47785   0.63611   0.00000  Uiso   1.00
H969   H     0.60427   0.50679   0.59222   0.00000  Uiso   1.00
H970   H     0.58332   0.53844   0.63975   0.00000  Uiso   1.00
C971   C     0.37828   0.49948   0.95501   0.00000  Uiso   1.00
H972   H     0.38106   0.51171   0.91986   0.00000  Uiso   1.00
H973   H     0.36073   0.46713   0.95590   0.00000  Uiso   1.00
H974   H     0.35983   0.52584   0.97266   0.00000  Uiso   1.00
C975   C     0.59447   0.58131   0.54552   0.00000  Uiso   1.00
H976   H     0.58486   0.58980   0.58027   0.00000  Uiso   1.00
H977   H     0.62639   0.56667   0.54547   0.00000  Uiso   1.00
H978   H     0.59506   0.61431   0.52756   0.00000  Uiso   1.00
Br979  Br    0.37044   0.48035   0.55795   0.00000  Uiso   1.00
Br980  Br    0.61050   0.57321   0.94238   0.00000  Uiso   1.00
O981   O     0.77226   0.53821   0.74999   0.00000  Uiso   1.00
O982   O     0.89441   0.46179   0.75000   0.00000  Uiso   1.00
O983   O     0.89441   0.53821   0.75000   0.00000  Uiso   1.00
O984   O     0.77226   0.46179   0.74999   0.00000  Uiso   1.00
C985   C     0.75331   0.50003   0.75000   0.00000  Uiso   1.00
C986   C     0.91335   0.49997   0.74991   0.00000  Uiso   1.00
O987   O     0.83333   0.53823   0.68392   0.00000  Uiso   1.00
O988   O     0.83334   0.46177   0.81607   0.00000  Uiso   1.00
O989   O     0.83334   0.53823   0.81607   0.00000  Uiso   1.00
O990   O     0.83333   0.46177   0.68392   0.00000  Uiso   1.00
C991   C     0.83362   0.50010   0.66348   0.00000  Uiso   1.00
C992   C     0.83245   0.50001   0.83664   0.00000  Uiso   1.00
Zn993  Zn    0.83333   0.55104   0.75000   0.00000  Uiso   1.00
Zn994  Zn    0.83333   0.44896   0.75000   0.00000  Uiso   1.00
C995   C     0.86335   0.52317   0.90635   0.00000  Uiso   1.00
C996   C     0.79578   0.49480   0.59407   0.00000  Uiso   1.00
C997   C     0.83085   0.50111   0.88473   0.00000  Uiso   1.00
C998   C     0.83364   0.50127   0.61559   0.00000  Uiso   1.00
C999   C     0.79559   0.48569   0.90801   0.00000  Uiso   1.00
C1000  C     0.86960   0.51476   0.59260   0.00000  Uiso   1.00
C1001  C     0.79166   0.49750   0.95386   0.00000  Uiso   1.00
C1002  C     0.86585   0.52624   0.54665   0.00000  Uiso   1.00
C1003  C     0.82767   0.51356   0.97678   0.00000  Uiso   1.00
C1004  C     0.82863   0.51368   0.52373   0.00000  Uiso   1.00
C1005  C     0.86329   0.52780   0.95274   0.00000  Uiso   1.00
C1006  C     0.79290   0.49945   0.54772   0.00000  Uiso   1.00
C1007  C     0.75360   0.49402   0.97790   0.00000  Uiso   1.00
C1008  C     0.89747   0.54949   0.52255   0.00000  Uiso   1.00
C1009  C     0.75481   0.49211   0.52510   0.00000  Uiso   1.00
C1010  C     0.89729   0.54777   0.97534   0.00000  Uiso   1.00
H1011  H     0.88925   0.53503   0.88629   0.00000  Uiso   1.00
H1012  H     0.76903   0.48547   0.61417   0.00000  Uiso   1.00
C1013  C     0.68814   0.46108   0.76380   0.00000  Uiso   1.00
C1014  C     0.97852   0.53885   0.73582   0.00000  Uiso   1.00
C1015  C     0.97876   0.46102   0.76366   0.00000  Uiso   1.00
C1016  C     0.68791   0.53891   0.73595   0.00000  Uiso   1.00
H1017  H     0.70460   0.43102   0.77507   0.00000  Uiso   1.00
H1018  H     0.96206   0.56891   0.72457   0.00000  Uiso   1.00
H1019  H     0.96248   0.43091   0.77484   0.00000  Uiso   1.00
H1020  H     0.70419   0.56901   0.72477   0.00000  Uiso   1.00
C1021  C     0.95749   0.49992   0.74975   0.00000  Uiso   1.00
C1022  C     0.70917   0.50004   0.74995   0.00000  Uiso   1.00
C1023  C     0.86008   0.35722   0.77713   0.00000  Uiso   1.00
C1024  C     0.80658   0.64278   0.72288   0.00000  Uiso   1.00
C1025  C     0.80658   0.35740   0.72288   0.00000  Uiso   1.00
C1026  C     0.86008   0.64260   0.77714   0.00000  Uiso   1.00
H1027  H     0.88146   0.37532   0.79883   0.00000  Uiso   1.00
H1028  H     0.78518   0.62468   0.70120   0.00000  Uiso   1.00
H1029  H     0.78518   0.37564   0.70120   0.00000  Uiso   1.00
H1030  H     0.88145   0.62436   0.79884   0.00000  Uiso   1.00
N1031  N     0.83333   0.61907   0.75000   0.00000  Uiso   1.00
N1032  N     0.83333   0.38093   0.75000   0.00000  Uiso   1.00
C1033  C     0.76594   0.45313   0.88477   0.00000  Uiso   1.00
H1034  H     0.78382   0.42542   0.86860   0.00000  Uiso   1.00
H1035  H     0.74502   0.43554   0.90858   0.00000  Uiso   1.00
H1036  H     0.74736   0.47114   0.85867   0.00000  Uiso   1.00
C1037  C     0.91143   0.50976   0.61627   0.00000  Uiso   1.00
H1038  H     0.91214   0.47785   0.63611   0.00000  Uiso   1.00
H1039  H     0.93760   0.50679   0.59222   0.00000  Uiso   1.00
H1040  H     0.91666   0.53844   0.63975   0.00000  Uiso   1.00
C1041  C     0.71162   0.49948   0.95501   0.00000  Uiso   1.00
H1042  H     0.71439   0.51171   0.91986   0.00000  Uiso   1.00
H1043  H     0.69406   0.46713   0.95590   0.00000  Uiso   1.00
H1044  H     0.69317   0.52584   0.97266   0.00000  Uiso   1.00
C1045  C     0.92780   0.58131   0.54552   0.00000  Uiso   1.00
H1046  H     0.91819   0.58980   0.58027   0.00000  Uiso   1.00
H1047  H     0.95972   0.56667   0.54547   0.00000  Uiso   1.00
H1048  H     0.92840   0.61431   0.52756   0.00000  Uiso   1.00
Br1049 Br    0.70378   0.48035   0.55795   0.00000  Uiso   1.00
Br1050 Br    0.94383   0.57321   0.94238   0.00000  Uiso   1.00
O1051  O     0.10559   0.87154   0.74999   0.00000  Uiso   1.00
O1052  O     0.22774   0.79513   0.75000   0.00000  Uiso   1.00
O1053  O     0.22774   0.87154   0.75000   0.00000  Uiso   1.00
O1054  O     0.10559   0.79513   0.74999   0.00000  Uiso   1.00
C1055  C     0.08664   0.83336   0.75000   0.00000  Uiso   1.00
C1056  C     0.24669   0.83330   0.74991   0.00000  Uiso   1.00
O1057  O     0.16666   0.87156   0.68392   0.00000  Uiso   1.00
O1058  O     0.16667   0.79511   0.81607   0.00000  Uiso   1.00
O1059  O     0.16667   0.87156   0.81607   0.00000  Uiso   1.00
O1060  O     0.16666   0.79511   0.68392   0.00000  Uiso   1.00
C1061  C     0.16695   0.83343   0.66348   0.00000  Uiso   1.00
C1062  C     0.16578   0.83335   0.83664   0.00000  Uiso   1.00
Zn1063 Zn    0.16667   0.88437   0.75000   0.00000  Uiso   1.00
Zn1064 Zn    0.16667   0.78229   0.75000   0.00000  Uiso   1.00
C1065  C     0.19669   0.85650   0.90635   0.00000  Uiso   1.00
C1066  C     0.12911   0.82813   0.59407   0.00000  Uiso   1.00
C1067  C     0.16419   0.83444   0.88473   0.00000  Uiso   1.00
C1068  C     0.16698   0.83461   0.61559   0.00000  Uiso   1.00
C1069  C     0.12892   0.81902   0.90801   0.00000  Uiso   1.00
C1070  C     0.20293   0.84809   0.59260   0.00000  Uiso   1.00
C1071  C     0.12499   0.83083   0.95386   0.00000  Uiso   1.00
C1072  C     0.19919   0.85958   0.54665   0.00000  Uiso   1.00
C1073  C     0.16100   0.84690   0.97678   0.00000  Uiso   1.00
C1074  C     0.16196   0.84702   0.52373   0.00000  Uiso   1.00
C1075  C     0.19663   0.86113   0.95274   0.00000  Uiso   1.00
C1076  C     0.12624   0.83278   0.54772   0.00000  Uiso   1.00
C1077  C     0.08694   0.82735   0.97790   0.00000  Uiso   1.00
C1078  C     0.23081   0.88283   0.52255   0.00000  Uiso   1.00
C1079  C     0.08815   0.82545   0.52510   0.00000  Uiso   1.00
C1080  C     0.23062   0.88110   0.97534   0.00000  Uiso   1.00
H1081  H     0.22259   0.86836   0.88629   0.00000  Uiso   1.00
H1082  H     0.10237   0.81880   0.61417   0.00000  Uiso   1.00
C1083  C     0.02147   0.79442   0.76380   0.00000  Uiso   1.00
C1084  C     0.31186   0.87218   0.73582   0.00000  Uiso   1.00
C1085  C     0.31209   0.79435   0.76366   0.00000  Uiso   1.00
C1086  C     0.02124   0.87225   0.73595   0.00000  Uiso   1.00
H1087  H     0.03793   0.76436   0.77507   0.00000  Uiso   1.00
H1088  H     0.29539   0.90224   0.72457   0.00000  Uiso   1.00
H1089  H     0.29582   0.76425   0.77484   0.00000  Uiso   1.00
H1090  H     0.03753   0.90234   0.72477   0.00000  Uiso   1.00
C1091  C     0.29083   0.83326   0.74975   0.00000  Uiso   1.00
C1092  C     0.04251   0.83337   0.74995   0.00000  Uiso   1.00
C1093  C     0.19341   0.69056   0.77713   0.00000  Uiso   1.00
C1094  C     0.13991   0.97611   0.72288   0.00000  Uiso   1.00
C1095  C     0.13991   0.69074   0.72288   0.00000  Uiso   1.00
C1096  C     0.19341   0.97593   0.77714   0.00000  Uiso   1.00
H1097  H     0.21480   0.70865   0.79883   0.00000  Uiso   1.00
H1098  H     0.11852   0.95801   0.70120   0.00000  Uiso   1.00
H1099  H     0.11852   0.70898   0.70120   0.00000  Uiso   1.00
H1100  H     0.21479   0.95769   0.79884   0.00000  Uiso   1.00
N1101  N     0.16667   0.95240   0.75000   0.00000  Uiso   1.00
N1102  N     0.16667   0.71427   0.75000   0.00000  Uiso   1.00
C1103  C     0.09927   0.78646   0.88477   0.00000  Uiso   1.00
H1104  H     0.11715   0.75875   0.86860   0.00000  Uiso   1.00
H1105  H     0.07836   0.76887   0.90858   0.00000  Uiso   1.00
H1106  H     0.08069   0.80447   0.85867   0.00000  Uiso   1.00
C1107  C     0.24476   0.84310   0.61627   0.00000  Uiso   1.00
H1108  H     0.24547   0.81118   0.63611   0.00000  Uiso   1.00
H1109  H     0.27094   0.84012   0.59222   0.00000  Uiso   1.00
H1110  H     0.24999   0.87177   0.63975   0.00000  Uiso   1.00
C1111  C     0.04495   0.83282   0.95501   0.00000  Uiso   1.00
H1112  H     0.04773   0.84504   0.91986   0.00000  Uiso   1.00
H1113  H     0.02739   0.80047   0.95590   0.00000  Uiso   1.00
H1114  H     0.02650   0.85917   0.97266   0.00000  Uiso   1.00
C1115  C     0.26114   0.91464   0.54552   0.00000  Uiso   1.00
H1116  H     0.25153   0.92313   0.58027   0.00000  Uiso   1.00
H1117  H     0.29306   0.90000   0.54547   0.00000  Uiso   1.00
H1118  H     0.26173   0.94764   0.52756   0.00000  Uiso   1.00
Br1119 Br    0.03711   0.81369   0.55795   0.00000  Uiso   1.00
Br1120 Br    0.27717   0.90654   0.94238   0.00000  Uiso   1.00
O1121  O     0.43892   0.87154   0.74999   0.00000  Uiso   1.00
O1122  O     0.56108   0.79513   0.75000   0.00000  Uiso   1.00
O1123  O     0.56108   0.87154   0.75000   0.00000  Uiso   1.00
O1124  O     0.43892   0.79513   0.74999   0.00000  Uiso   1.00
C1125  C     0.41998   0.83336   0.75000   0.00000  Uiso   1.00
C1126  C     0.58002   0.83330   0.74991   0.00000  Uiso   1.00
O1127  O     0.49999   0.87156   0.68392   0.00000  Uiso   1.00
O1128  O     0.50001   0.79511   0.81607   0.00000  Uiso   1.00
O1129  O     0.50001   0.87156   0.81607   0.00000  Uiso   1.00
O1130  O     0.49999   0.79511   0.68392   0.00000  Uiso   1.00
C1131  C     0.50029   0.83343   0.66348   0.00000  Uiso   1.00
C1132  C     0.49912   0.83335   0.83664   0.00000  Uiso   1.00
Zn1133 Zn    0.50000   0.88437   0.75000   0.00000  Uiso   1.00
Zn1134 Zn    0.50000   0.78229   0.75000   0.00000  Uiso   1.00
C1135  C     0.53002   0.85650   0.90635   0.00000  Uiso   1.00
C1136  C     0.46245   0.82813   0.59407   0.00000  Uiso   1.00
C1137  C     0.49752   0.83444   0.88473   0.00000  Uiso   1.00
C1138  C     0.50031   0.83461   0.61559   0.00000  Uiso   1.00
C1139  C     0.46226   0.81902   0.90801   0.00000  Uiso   1.00
C1140  C     0.53626   0.84809   0.59260   0.00000  Uiso   1.00
C1141  C     0.45832   0.83083   0.95386   0.00000  Uiso   1.00
C1142  C     0.53252   0.85958   0.54665   0.00000  Uiso   1.00
C1143  C     0.49434   0.84690   0.97678   0.00000  Uiso   1.00
C1144  C     0.49529   0.84702   0.52373   0.00000  Uiso   1.00
C1145  C     0.52996   0.86113   0.95274   0.00000  Uiso   1.00
C1146  C     0.45957   0.83278   0.54772   0.00000  Uiso   1.00
C1147  C     0.42027   0.82735   0.97790   0.00000  Uiso   1.00
C1148  C     0.56414   0.88283   0.52255   0.00000  Uiso   1.00
C1149  C     0.42148   0.82545   0.52510   0.00000  Uiso   1.00
C1150  C     0.56396   0.88110   0.97534   0.00000  Uiso   1.00
H1151  H     0.55592   0.86836   0.88629   0.00000  Uiso   1.00
H1152  H     0.43570   0.81880   0.61417   0.00000  Uiso   1.00
C1153  C     0.35480   0.79442   0.76380   0.00000  Uiso   1.00
C1154  C     0.64519   0.87218   0.73582   0.00000  Uiso   1.00
C1155  C     0.64543   0.79435   0.76366   0.00000  Uiso   1.00
C1156  C     0.35458   0.87225   0.73595   0.00000  Uiso   1.00
H1157  H     0.37126   0.76436   0.77507   0.00000  Uiso   1.00
H1158  H     0.62872   0.90224   0.72457   0.00000  Uiso   1.00
H1159  H     0.62915   0.76425   0.77484   0.00000  Uiso   1.00
H1160  H     0.37086   0.90234   0.72477   0.00000  Uiso   1.00
C1161  C     0.62416   0.83326   0.74975   0.00000  Uiso   1.00
C1162  C     0.37584   0.83337   0.74995   0.00000  Uiso   1.00
C1163  C     0.52674   0.69056   0.77713   0.00000  Uiso   1.00
C1164  C     0.47324   0.97611   0.72288   0.00000  Uiso   1.00
C1165  C     0.47324   0.69074   0.72288   0.00000  Uiso   1.00
C1166  C     0.52674   0.97593   0.77714   0.00000  Uiso   1.00
H1167  H     0.54813   0.70865   0.79883   0.00000  Uiso   1.00
H1168  H     0.45185   0.95801   0.70120   0.00000  Uiso   1.00
H1169  H     0.45185   0.70898   0.70120   0.00000  Uiso   1.00
H1170  H     0.54812   0.95769   0.79884   0.00000  Uiso   1.00
N1171  N     0.50000   0.95240   0.75000   0.00000  Uiso   1.00
N1172  N     0.50000   0.71427   0.75000   0.00000  Uiso   1.00
C1173  C     0.43261   0.78646   0.88477   0.00000  Uiso   1.00
H1174  H     0.45048   0.75875   0.86860   0.00000  Uiso   1.00
H1175  H     0.41169   0.76887   0.90858   0.00000  Uiso   1.00
H1176  H     0.41402   0.80447   0.85867   0.00000  Uiso   1.00
C1177  C     0.57809   0.84310   0.61627   0.00000  Uiso   1.00
H1178  H     0.57881   0.81118   0.63611   0.00000  Uiso   1.00
H1179  H     0.60427   0.84012   0.59222   0.00000  Uiso   1.00
H1180  H     0.58332   0.87177   0.63975   0.00000  Uiso   1.00
C1181  C     0.37828   0.83282   0.95501   0.00000  Uiso   1.00
H1182  H     0.38106   0.84504   0.91986   0.00000  Uiso   1.00
H1183  H     0.36073   0.80047   0.95590   0.00000  Uiso   1.00
H1184  H     0.35983   0.85917   0.97266   0.00000  Uiso   1.00
C1185  C     0.59447   0.91464   0.54552   0.00000  Uiso   1.00
H1186  H     0.58486   0.92313   0.58027   0.00000  Uiso   1.00
H1187  H     0.62639   0.90000   0.54547   0.00000  Uiso   1.00
H1188  H     0.59506   0.94764   0.52756   0.00000  Uiso   1.00
Br1189 Br    0.37044   0.81369   0.55795   0.00000  Uiso   1.00
Br1190 Br    0.61050   0.90654   0.94238   0.00000  Uiso   1.00
O1191  O     0.77226   0.87154   0.74999   0.00000  Uiso   1.00
O1192  O     0.89441   0.79513   0.75000   0.00000  Uiso   1.00
O1193  O     0.89441   0.87154   0.75000   0.00000  Uiso   1.00
O1194  O     0.77226   0.79513   0.74999   0.00000  Uiso   1.00
C1195  C     0.75331   0.83336   0.75000   0.00000  Uiso   1.00
C1196  C     0.91335   0.83330   0.74991   0.00000  Uiso   1.00
O1197  O     0.83333   0.87156   0.68392   0.00000  Uiso   1.00
O1198  O     0.83334   0.79511   0.81607   0.00000  Uiso   1.00
O1199  O     0.83334   0.87156   0.81607   0.00000  Uiso   1.00
O1200  O     0.83333   0.79511   0.68392   0.00000  Uiso   1.00
C1201  C     0.83362   0.83343   0.66348   0.00000  Uiso   1.00
C1202  C     0.83245   0.83335   0.83664   0.00000  Uiso   1.00
Zn1203 Zn    0.83333   0.88437   0.75000   0.00000  Uiso   1.00
Zn1204 Zn    0.83333   0.78229   0.75000   0.00000  Uiso   1.00
C1205  C     0.86335   0.85650   0.90635   0.00000  Uiso   1.00
C1206  C     0.79578   0.82813   0.59407   0.00000  Uiso   1.00
C1207  C     0.83085   0.83444   0.88473   0.00000  Uiso   1.00
C1208  C     0.83364   0.83461   0.61559   0.00000  Uiso   1.00
C1209  C     0.79559   0.81902   0.90801   0.00000  Uiso   1.00
C1210  C     0.86960   0.84809   0.59260   0.00000  Uiso   1.00
C1211  C     0.79166   0.83083   0.95386   0.00000  Uiso   1.00
C1212  C     0.86585   0.85958   0.54665   0.00000  Uiso   1.00
C1213  C     0.82767   0.84690   0.97678   0.00000  Uiso   1.00
C1214  C     0.82863   0.84702   0.52373   0.00000  Uiso   1.00
C1215  C     0.86329   0.86113   0.95274   0.00000  Uiso   1.00
C1216  C     0.79290   0.83278   0.54772   0.00000  Uiso   1.00
C1217  C     0.75360   0.82735   0.97790   0.00000  Uiso   1.00
C1218  C     0.89747   0.88283   0.52255   0.00000  Uiso   1.00
C1219  C     0.75481   0.82545   0.52510   0.00000  Uiso   1.00
C1220  C     0.89729   0.88110   0.97534   0.00000  Uiso   1.00
H1221  H     0.88925   0.86836   0.88629   0.00000  Uiso   1.00
H1222  H     0.76903   0.81880   0.61417   0.00000  Uiso   1.00
C1223  C     0.68814   0.79442   0.76380   0.00000  Uiso   1.00
C1224  C     0.97852   0.87218   0.73582   0.00000  Uiso   1.00
C1225  C     0.97876   0.79435   0.76366   0.00000  Uiso   1.00
C1226  C     0.68791   0.87225   0.73595   0.00000  Uiso   1.00
H1227  H     0.70460   0.76436   0.77507   0.00000  Uiso   1.00
H1228  H     0.96206   0.90224   0.72457   0.00000  Uiso   1.00
H1229  H     0.96248   0.76425   0.77484   0.00000  Uiso   1.00
H1230  H     0.70419   0.90234   0.72477   0.00000  Uiso   1.00
C1231  C     0.95749   0.83326   0.74975   0.00000  Uiso   1.00
C1232  C     0.70917   0.83337   0.74995   0.00000  Uiso   1.00
C1233  C     0.86008   0.69056   0.77713   0.00000  Uiso   1.00
C1234  C     0.80658   0.97611   0.72288   0.00000  Uiso   1.00
C1235  C     0.80658   0.69074   0.72288   0.00000  Uiso   1.00
C1236  C     0.86008   0.97593   0.77714   0.00000  Uiso   1.00
H1237  H     0.88146   0.70865   0.79883   0.00000  Uiso   1.00
H1238  H     0.78518   0.95801   0.70120   0.00000  Uiso   1.00
H1239  H     0.78518   0.70898   0.70120   0.00000  Uiso   1.00
H1240  H     0.88145   0.95769   0.79884   0.00000  Uiso   1.00
N1241  N     0.83333   0.95240   0.75000   0.00000  Uiso   1.00
N1242  N     0.83333   0.71427   0.75000   0.00000  Uiso   1.00
C1243  C     0.76594   0.78646   0.88477   0.00000  Uiso   1.00
H1244  H     0.78382   0.75875   0.86860   0.00000  Uiso   1.00
H1245  H     0.74502   0.76887   0.90858   0.00000  Uiso   1.00
H1246  H     0.74736   0.80447   0.85867   0.00000  Uiso   1.00
C1247  C     0.91143   0.84310   0.61627   0.00000  Uiso   1.00
H1248  H     0.91214   0.81118   0.63611   0.00000  Uiso   1.00
H1249  H     0.93760   0.84012   0.59222   0.00000  Uiso   1.00
H1250  H     0.91666   0.87177   0.63975   0.00000  Uiso   1.00
C1251  C     0.71162   0.83282   0.95501   0.00000  Uiso   1.00
H1252  H     0.71439   0.84504   0.91986   0.00000  Uiso   1.00
H1253  H     0.69406   0.80047   0.95590   0.00000  Uiso   1.00
H1254  H     0.69317   0.85917   0.97266   0.00000  Uiso   1.00
C1255  C     0.92780   0.91464   0.54552   0.00000  Uiso   1.00
H1256  H     0.91819   0.92313   0.58027   0.00000  Uiso   1.00
H1257  H     0.95972   0.90000   0.54547   0.00000  Uiso   1.00
H1258  H     0.92840   0.94764   0.52756   0.00000  Uiso   1.00
Br1259 Br    0.70378   0.81369   0.55795   0.00000  Uiso   1.00
Br1260 Br    0.94383   0.90654   0.94238   0.00000  Uiso   1.00
loop_
_geom_bond_atom_site_label_1
_geom_bond_atom_site_label_2
_geom_bond_distance
_geom_bond_site_symmetry_2
_ccdc_geom_bond_type
O1     C5      1.282   .     A
O1     Zn13    1.996   .     S
O2     C6      1.282   .     A
O2     Zn14    1.996   .     S
O3     C6      1.281   .     A
O3     Zn13    1.994   .     S
O4     Zn14    1.994   .     S
O4     C5      1.281   .     A
C5     C42     1.416   .     S
C6     C41     1.416   .     S
O7     C11     1.280   .     A
O7     Zn13    1.999   .     S
O8     C12     1.285   .     A
O8     Zn14    1.999   .     S
O9     C12     1.283   .     A
O9     Zn13    1.998   .     S
O10    C11     1.284   .     A
O10    Zn14    1.998   .     S
C11    C18     1.423   .     S
C12    C17     1.430   .     S
Zn13   N51     2.009   .     S
Zn14   N52     2.009   .     S
C15    H31     1.082   .     S
C15    C25     1.385   .     A
C15    C17     1.386   .     A
C16    C26     1.386   .     A
C16    C18     1.384   .     A
C16    H32     1.083   .     S
C17    C19     1.404   .     A
C18    C20     1.400   .     A
C19    C53     1.519   .     S
C19    C21     1.412   .     A
C20    C22     1.411   .     A
C20    C57     1.519   .     S
C21    C27     1.420   .     A
C21    C23     1.421   .     A
C22    C28     1.421   .     A
C22    C24     1.422   .     A
C23    C25     1.413   .     A
C23    C654    1.395   .     S
C24    C26     1.415   .     A
C24    C653    1.395   1_554 S
C25    C30     1.409   .     A
C26    C29     1.409   .     A
C27    C61     1.515   .     S
C27    C659    1.403   .     S
C28    C65     1.515   .     S
C28    C660    1.403   1_554 S
C29    Br69    1.940   .     S
C29    C657    1.403   1_554 S
C30    Br70    1.940   .     S
C30    C658    1.403   .     S
C33    C42     1.397   .     A
C33    H37     1.084   .     S
C33    C175    1.370   1_455 S
C34    C41     1.397   .     A
C34    H38     1.084   .     S
C34    C106    1.370   .     S
C35    H39     1.084   .     S
C35    C41     1.396   .     A
C35    C103    1.370   .     S
C36    C42     1.396   .     A
C36    H40     1.084   .     S
C36    C174    1.370   1_455 S
C43    N52     1.366   .     A
C43    H47     1.082   .     S
C43    C466    1.416   1_545 S
C44    N51     1.366   .     A
C44    H48     1.082   .     S
C44    C255    1.416   .     S
C45    H49     1.082   .     S
C45    N52     1.366   .     A
C45    C464    1.416   1_545 S
C46    H50     1.082   .     S
C46    N51     1.366   .     A
C46    C253    1.416   .     S
C53    H54     1.109   .     S
C53    H55     1.106   .     S
C53    H56     1.111   .     S
C57    H58     1.111   .     S
C57    H59     1.108   .     S
C57    H60     1.110   .     S
C61    H64     1.110   .     S
C61    H62     1.108   .     S
C61    H63     1.110   .     S
C65    H67     1.110   .     S
C65    H68     1.110   .     S
C65    H66     1.107   .     S
O71    C75     1.282   .     A
O71    Zn83    1.996   .     S
O72    C76     1.282   .     A
O72    Zn84    1.996   .     S
O73    C76     1.281   .     A
O73    Zn83    1.994   .     S
O74    Zn84    1.994   .     S
O74    C75     1.281   .     A
C75    C112    1.416   .     S
C76    C111    1.416   .     S
O77    C81     1.280   .     A
O77    Zn83    1.999   .     S
O78    C82     1.285   .     A
O78    Zn84    1.999   .     S
O79    C82     1.283   .     A
O79    Zn83    1.998   .     S
O80    C81     1.284   .     A
O80    Zn84    1.998   .     S
C81    C88     1.423   .     S
C82    C87     1.430   .     S
Zn83   N121    2.009   .     S
Zn84   N122    2.009   .     S
C85    H101    1.082   .     S
C85    C95     1.385   .     A
C85    C87     1.386   .     A
C86    C96     1.386   .     A
C86    C88     1.384   .     A
C86    H102    1.083   .     S
C87    C89     1.404   .     A
C88    C90     1.400   .     A
C89    C123    1.519   .     S
C89    C91     1.412   .     A
C90    C92     1.411   .     A
C90    C127    1.519   .     S
C91    C97     1.420   .     A
C91    C93     1.421   .     A
C92    C98     1.421   .     A
C92    C94     1.422   .     A
C93    C95     1.413   .     A
C93    C724    1.395   .     S
C94    C96     1.415   .     A
C94    C723    1.395   1_554 S
C95    C100    1.409   .     A
C96    C99     1.409   .     A
C97    C131    1.515   .     S
C97    C729    1.403   .     S
C98    C135    1.515   .     S
C98    C730    1.403   1_554 S
C99    Br139   1.940   .     S
C99    C727    1.403   1_554 S
C100   Br140   1.940   .     S
C100   C728    1.403   .     S
C103   C112    1.397   .     A
C103   H107    1.084   .     S
C104   C111    1.397   .     A
C104   H108    1.084   .     S
C104   C176    1.370   .     S
C105   H109    1.084   .     S
C105   C111    1.396   .     A
C105   C173    1.370   .     S
C106   C112    1.396   .     A
C106   H110    1.084   .     S
C113   N122    1.366   .     A
C113   H117    1.082   .     S
C113   C536    1.416   1_545 S
C114   N121    1.366   .     A
C114   H118    1.082   .     S
C114   C325    1.416   .     S
C115   H119    1.082   .     S
C115   N122    1.366   .     A
C115   C534    1.416   1_545 S
C116   H120    1.082   .     S
C116   N121    1.366   .     A
C116   C323    1.416   .     S
C123   H124    1.109   .     S
C123   H125    1.106   .     S
C123   H126    1.111   .     S
C127   H128    1.111   .     S
C127   H129    1.108   .     S
C127   H130    1.110   .     S
C131   H134    1.110   .     S
C131   H132    1.108   .     S
C131   H133    1.110   .     S
C135   H137    1.110   .     S
C135   H138    1.110   .     S
C135   H136    1.107   .     S
O141   C145    1.282   .     A
O141   Zn153   1.996   .     S
O142   C146    1.282   .     A
O142   Zn154   1.996   .     S
O143   C146    1.281   .     A
O143   Zn153   1.994   .     S
O144   Zn154   1.994   .     S
O144   C145    1.281   .     A
C145   C182    1.416   .     S
C146   C181    1.416   .     S
O147   C151    1.280   .     A
O147   Zn153   1.999   .     S
O148   C152    1.285   .     A
O148   Zn154   1.999   .     S
O149   C152    1.283   .     A
O149   Zn153   1.998   .     S
O150   C151    1.284   .     A
O150   Zn154   1.998   .     S
C151   C158    1.423   .     S
C152   C157    1.430   .     S
Zn153  N191    2.009   .     S
Zn154  N192    2.009   .     S
C155   H171    1.082   .     S
C155   C165    1.385   .     A
C155   C157    1.386   .     A
C156   C166    1.386   .     A
C156   C158    1.384   .     A
C156   H172    1.083   .     S
C157   C159    1.404   .     A
C158   C160    1.400   .     A
C159   C193    1.519   .     S
C159   C161    1.412   .     A
C160   C162    1.411   .     A
C160   C197    1.519   .     S
C161   C167    1.420   .     A
C161   C163    1.421   .     A
C162   C168    1.421   .     A
C162   C164    1.422   .     A
C163   C165    1.413   .     A
C163   C794    1.395   .     S
C164   C166    1.415   .     A
C164   C793    1.395   1_554 S
C165   C170    1.409   .     A
C166   C169    1.409   .     A
C167   C201    1.515   .     S
C167   C799    1.403   .     S
C168   C205    1.515   .     S
C168   C800    1.403   1_554 S
C169   Br209   1.940   .     S
C169   C797    1.403   1_554 S
C170   Br210   1.940   .     S
C170   C798    1.403   .     S
C173   C182    1.397   .     A
C173   H177    1.084   .     S
C174   C181    1.397   .     A
C174   H178    1.084   .     S
C174   C36     1.370   1_655 S
C175   H179    1.084   .     S
C175   C181    1.396   .     A
C175   C33     1.370   1_655 S
C176   C182    1.396   .     A
C176   H180    1.084   .     S
C183   N192    1.366   .     A
C183   H187    1.082   .     S
C183   C606    1.416   1_545 S
C184   N191    1.366   .     A
C184   H188    1.082   .     S
C184   C395    1.416   .     S
C185   H189    1.082   .     S
C185   N192    1.366   .     A
C185   C604    1.416   1_545 S
C186   H190    1.082   .     S
C186   N191    1.366   .     A
C186   C393    1.416   .     S
C193   H194    1.109   .     S
C193   H195    1.106   .     S
C193   H196    1.111   .     S
C197   H198    1.111   .     S
C197   H199    1.108   .     S
C197   H200    1.110   .     S
C201   H204    1.110   .     S
C201   H202    1.108   .     S
C201   H203    1.110   .     S
C205   H207    1.110   .     S
C205   H208    1.110   .     S
C205   H206    1.107   .     S
O211   C215    1.282   .     A
O211   Zn223   1.996   .     S
O212   C216    1.282   .     A
O212   Zn224   1.996   .     S
O213   C216    1.281   .     A
O213   Zn223   1.994   .     S
O214   Zn224   1.994   .     S
O214   C215    1.281   .     A
C215   C252    1.416   .     S
C216   C251    1.416   .     S
O217   C221    1.280   .     A
O217   Zn223   1.999   .     S
O218   C222    1.285   .     A
O218   Zn224   1.999   .     S
O219   C222    1.283   .     A
O219   Zn223   1.998   .     S
O220   C221    1.284   .     A
O220   Zn224   1.998   .     S
C221   C228    1.423   .     S
C222   C227    1.430   .     S
Zn223  N261    2.009   .     S
Zn224  N262    2.009   .     S
C225   H241    1.082   .     S
C225   C235    1.385   .     A
C225   C227    1.386   .     A
C226   C236    1.386   .     A
C226   C228    1.384   .     A
C226   H242    1.083   .     S
C227   C229    1.404   .     A
C228   C230    1.400   .     A
C229   C263    1.519   .     S
C229   C231    1.412   .     A
C230   C232    1.411   .     A
C230   C267    1.519   .     S
C231   C237    1.420   .     A
C231   C233    1.421   .     A
C232   C238    1.421   .     A
C232   C234    1.422   .     A
C233   C235    1.413   .     A
C233   C864    1.395   .     S
C234   C236    1.415   .     A
C234   C863    1.395   1_554 S
C235   C240    1.409   .     A
C236   C239    1.409   .     A
C237   C271    1.515   .     S
C237   C869    1.403   .     S
C238   C275    1.515   .     S
C238   C870    1.403   1_554 S
C239   Br279   1.940   .     S
C239   C867    1.403   1_554 S
C240   Br280   1.940   .     S
C240   C868    1.403   .     S
C243   C252    1.397   .     A
C243   H247    1.084   .     S
C243   C385    1.370   1_455 S
C244   C251    1.397   .     A
C244   H248    1.084   .     S
C244   C316    1.370   .     S
C245   H249    1.084   .     S
C245   C251    1.396   .     A
C245   C313    1.370   .     S
C246   C252    1.396   .     A
C246   H250    1.084   .     S
C246   C384    1.370   1_455 S
C253   N262    1.366   .     A
C253   H257    1.082   .     S
C254   N261    1.366   .     A
C254   H258    1.082   .     S
C254   C465    1.416   .     S
C255   H259    1.082   .     S
C255   N262    1.366   .     A
C256   H260    1.082   .     S
C256   N261    1.366   .     A
C256   C463    1.416   .     S
C263   H264    1.109   .     S
C263   H265    1.106   .     S
C263   H266    1.111   .     S
C267   H268    1.111   .     S
C267   H269    1.108   .     S
C267   H270    1.110   .     S
C271   H274    1.110   .     S
C271   H272    1.108   .     S
C271   H273    1.110   .     S
C275   H277    1.110   .     S
C275   H278    1.110   .     S
C275   H276    1.107   .     S
O281   C285    1.282   .     A
O281   Zn293   1.996   .     S
O282   C286    1.282   .     A
O282   Zn294   1.996   .     S
O283   C286    1.281   .     A
O283   Zn293   1.994   .     S
O284   Zn294   1.994   .     S
O284   C285    1.281   .     A
C285   C322    1.416   .     S
C286   C321    1.416   .     S
O287   C291    1.280   .     A
O287   Zn293   1.999   .     S
O288   C292    1.285   .     A
O288   Zn294   1.999   .     S
O289   C292    1.283   .     A
O289   Zn293   1.998   .     S
O290   C291    1.284   .     A
O290   Zn294   1.998   .     S
C291   C298    1.423   .     S
C292   C297    1.430   .     S
Zn293  N331    2.009   .     S
Zn294  N332    2.009   .     S
C295   H311    1.082   .     S
C295   C305    1.385   .     A
C295   C297    1.386   .     A
C296   C306    1.386   .     A
C296   C298    1.384   .     A
C296   H312    1.083   .     S
C297   C299    1.404   .     A
C298   C300    1.400   .     A
C299   C333    1.519   .     S
C299   C301    1.412   .     A
C300   C302    1.411   .     A
C300   C337    1.519   .     S
C301   C307    1.420   .     A
C301   C303    1.421   .     A
C302   C308    1.421   .     A
C302   C304    1.422   .     A
C303   C305    1.413   .     A
C303   C934    1.395   .     S
C304   C306    1.415   .     A
C304   C933    1.395   1_554 S
C305   C310    1.409   .     A
C306   C309    1.409   .     A
C307   C341    1.515   .     S
C307   C939    1.403   .     S
C308   C345    1.515   .     S
C308   C940    1.403   1_554 S
C309   Br349   1.940   .     S
C309   C937    1.403   1_554 S
C310   Br350   1.940   .     S
C310   C938    1.403   .     S
C313   C322    1.397   .     A
C313   H317    1.084   .     S
C314   C321    1.397   .     A
C314   H318    1.084   .     S
C314   C386    1.370   .     S
C315   H319    1.084   .     S
C315   C321    1.396   .     A
C315   C383    1.370   .     S
C316   C322    1.396   .     A
C316   H320    1.084   .     S
C323   N332    1.366   .     A
C323   H327    1.082   .     S
C324   N331    1.366   .     A
C324   H328    1.082   .     S
C324   C535    1.416   .     S
C325   H329    1.082   .     S
C325   N332    1.366   .     A
C326   H330    1.082   .     S
C326   N331    1.366   .     A
C326   C533    1.416   .     S
C333   H334    1.109   .     S
C333   H335    1.106   .     S
C333   H336    1.111   .     S
C337   H338    1.111   .     S
C337   H339    1.108   .     S
C337   H340    1.110   .     S
C341   H344    1.110   .     S
C341   H342    1.108   .     S
C341   H343    1.110   .     S
C345   H347    1.110   .     S
C345   H348    1.110   .     S
C345   H346    1.107   .     S
O351   C355    1.282   .     A
O351   Zn363   1.996   .     S
O352   C356    1.282   .     A
O352   Zn364   1.996   .     S
O353   C356    1.281   .     A
O353   Zn363   1.994   .     S
O354   Zn364   1.994   .     S
O354   C355    1.281   .     A
C355   C392    1.416   .     S
C356   C391    1.416   .     S
O357   C361    1.280   .     A
O357   Zn363   1.999   .     S
O358   C362    1.285   .     A
O358   Zn364   1.999   .     S
O359   C362    1.283   .     A
O359   Zn363   1.998   .     S
O360   C361    1.284   .     A
O360   Zn364   1.998   .     S
C361   C368    1.423   .     S
C362   C367    1.430   .     S
Zn363  N401    2.009   .     S
Zn364  N402    2.009   .     S
C365   H381    1.082   .     S
C365   C375    1.385   .     A
C365   C367    1.386   .     A
C366   C376    1.386   .     A
C366   C368    1.384   .     A
C366   H382    1.083   .     S
C367   C369    1.404   .     A
C368   C370    1.400   .     A
C369   C403    1.519   .     S
C369   C371    1.412   .     A
C370   C372    1.411   .     A
C370   C407    1.519   .     S
C371   C377    1.420   .     A
C371   C373    1.421   .     A
C372   C378    1.421   .     A
C372   C374    1.422   .     A
C373   C375    1.413   .     A
C373   C1004   1.395   .     S
C374   C376    1.415   .     A
C374   C1003   1.395   1_554 S
C375   C380    1.409   .     A
C376   C379    1.409   .     A
C377   C411    1.515   .     S
C377   C1009   1.403   .     S
C378   C415    1.515   .     S
C378   C1010   1.403   1_554 S
C379   Br419   1.940   .     S
C379   C1007   1.403   1_554 S
C380   Br420   1.940   .     S
C380   C1008   1.403   .     S
C383   C392    1.397   .     A
C383   H387    1.084   .     S
C384   C391    1.397   .     A
C384   H388    1.084   .     S
C384   C246    1.370   1_655 S
C385   H389    1.084   .     S
C385   C391    1.396   .     A
C385   C243    1.370   1_655 S
C386   C392    1.396   .     A
C386   H390    1.084   .     S
C393   N402    1.366   .     A
C393   H397    1.082   .     S
C394   N401    1.366   .     A
C394   H398    1.082   .     S
C394   C605    1.416   .     S
C395   H399    1.082   .     S
C395   N402    1.366   .     A
C396   H400    1.082   .     S
C396   N401    1.366   .     A
C396   C603    1.416   .     S
C403   H404    1.109   .     S
C403   H405    1.106   .     S
C403   H406    1.111   .     S
C407   H408    1.111   .     S
C407   H409    1.108   .     S
C407   H410    1.110   .     S
C411   H414    1.110   .     S
C411   H412    1.108   .     S
C411   H413    1.110   .     S
C415   H417    1.110   .     S
C415   H418    1.110   .     S
C415   H416    1.107   .     S
O421   C425    1.282   .     A
O421   Zn433   1.996   .     S
O422   C426    1.282   .     A
O422   Zn434   1.996   .     S
O423   C426    1.281   .     A
O423   Zn433   1.994   .     S
O424   Zn434   1.994   .     S
O424   C425    1.281   .     A
C425   C462    1.416   .     S
C426   C461    1.416   .     S
O427   C431    1.280   .     A
O427   Zn433   1.999   .     S
O428   C432    1.285   .     A
O428   Zn434   1.999   .     S
O429   C432    1.283   .     A
O429   Zn433   1.998   .     S
O430   C431    1.284   .     A
O430   Zn434   1.998   .     S
C431   C438    1.423   .     S
C432   C437    1.430   .     S
Zn433  N471    2.009   .     S
Zn434  N472    2.009   .     S
C435   H451    1.082   .     S
C435   C445    1.385   .     A
C435   C437    1.386   .     A
C436   C446    1.386   .     A
C436   C438    1.384   .     A
C436   H452    1.083   .     S
C437   C439    1.404   .     A
C438   C440    1.400   .     A
C439   C473    1.519   .     S
C439   C441    1.412   .     A
C440   C442    1.411   .     A
C440   C477    1.519   .     S
C441   C447    1.420   .     A
C441   C443    1.421   .     A
C442   C448    1.421   .     A
C442   C444    1.422   .     A
C443   C445    1.413   .     A
C443   C1074   1.395   .     S
C444   C446    1.415   .     A
C444   C1073   1.395   1_554 S
C445   C450    1.409   .     A
C446   C449    1.409   .     A
C447   C481    1.515   .     S
C447   C1079   1.403   .     S
C448   C485    1.515   .     S
C448   C1080   1.403   1_554 S
C449   Br489   1.940   .     S
C449   C1077   1.403   1_554 S
C450   Br490   1.940   .     S
C450   C1078   1.403   .     S
C453   C462    1.397   .     A
C453   H457    1.084   .     S
C453   C595    1.370   1_455 S
C454   C461    1.397   .     A
C454   H458    1.084   .     S
C454   C526    1.370   .     S
C455   H459    1.084   .     S
C455   C461    1.396   .     A
C455   C523    1.370   .     S
C456   C462    1.396   .     A
C456   H460    1.084   .     S
C456   C594    1.370   1_455 S
C463   N472    1.366   .     A
C463   H467    1.082   .     S
C464   N471    1.366   .     A
C464   H468    1.082   .     S
C464   C45     1.416   1_565 S
C465   H469    1.082   .     S
C465   N472    1.366   .     A
C466   H470    1.082   .     S
C466   N471    1.366   .     A
C466   C43     1.416   1_565 S
C473   H474    1.109   .     S
C473   H475    1.106   .     S
C473   H476    1.111   .     S
C477   H478    1.111   .     S
C477   H479    1.108   .     S
C477   H480    1.110   .     S
C481   H484    1.110   .     S
C481   H482    1.108   .     S
C481   H483    1.110   .     S
C485   H487    1.110   .     S
C485   H488    1.110   .     S
C485   H486    1.107   .     S
O491   C495    1.282   .     A
O491   Zn503   1.996   .     S
O492   C496    1.282   .     A
O492   Zn504   1.996   .     S
O493   C496    1.281   .     A
O493   Zn503   1.994   .     S
O494   Zn504   1.994   .     S
O494   C495    1.281   .     A
C495   C532    1.416   .     S
C496   C531    1.416   .     S
O497   C501    1.280   .     A
O497   Zn503   1.999   .     S
O498   C502    1.285   .     A
O498   Zn504   1.999   .     S
O499   C502    1.283   .     A
O499   Zn503   1.998   .     S
O500   C501    1.284   .     A
O500   Zn504   1.998   .     S
C501   C508    1.423   .     S
C502   C507    1.430   .     S
Zn503  N541    2.009   .     S
Zn504  N542    2.009   .     S
C505   H521    1.082   .     S
C505   C515    1.385   .     A
C505   C507    1.386   .     A
C506   C516    1.386   .     A
C506   C508    1.384   .     A
C506   H522    1.083   .     S
C507   C509    1.404   .     A
C508   C510    1.400   .     A
C509   C543    1.519   .     S
C509   C511    1.412   .     A
C510   C512    1.411   .     A
C510   C547    1.519   .     S
C511   C517    1.420   .     A
C511   C513    1.421   .     A
C512   C518    1.421   .     A
C512   C514    1.422   .     A
C513   C515    1.413   .     A
C513   C1144   1.395   .     S
C514   C516    1.415   .     A
C514   C1143   1.395   1_554 S
C515   C520    1.409   .     A
C516   C519    1.409   .     A
C517   C551    1.515   .     S
C517   C1149   1.403   .     S
C518   C555    1.515   .     S
C518   C1150   1.403   1_554 S
C519   Br559   1.940   .     S
C519   C1147   1.403   1_554 S
C520   Br560   1.940   .     S
C520   C1148   1.403   .     S
C523   C532    1.397   .     A
C523   H527    1.084   .     S
C524   C531    1.397   .     A
C524   H528    1.084   .     S
C524   C596    1.370   .     S
C525   H529    1.084   .     S
C525   C531    1.396   .     A
C525   C593    1.370   .     S
C526   C532    1.396   .     A
C526   H530    1.084   .     S
C533   N542    1.366   .     A
C533   H537    1.082   .     S
C534   N541    1.366   .     A
C534   H538    1.082   .     S
C534   C115    1.416   1_565 S
C535   H539    1.082   .     S
C535   N542    1.366   .     A
C536   H540    1.082   .     S
C536   N541    1.366   .     A
C536   C113    1.416   1_565 S
C543   H544    1.109   .     S
C543   H545    1.106   .     S
C543   H546    1.111   .     S
C547   H548    1.111   .     S
C547   H549    1.108   .     S
C547   H550    1.110   .     S
C551   H554    1.110   .     S
C551   H552    1.108   .     S
C551   H553    1.110   .     S
C555   H557    1.110   .     S
C555   H558    1.110   .     S
C555   H556    1.107   .     S
O561   C565    1.282   .     A
O561   Zn573   1.996   .     S
O562   C566    1.282   .     A
O562   Zn574   1.996   .     S
O563   C566    1.281   .     A
O563   Zn573   1.994   .     S
O564   Zn574   1.994   .     S
O564   C565    1.281   .     A
C565   C602    1.416   .     S
C566   C601    1.416   .     S
O567   C571    1.280   .     A
O567   Zn573   1.999   .     S
O568   C572    1.285   .     A
O568   Zn574   1.999   .     S
O569   C572    1.283   .     A
O569   Zn573   1.998   .     S
O570   C571    1.284   .     A
O570   Zn574   1.998   .     S
C571   C578    1.423   .     S
C572   C577    1.430   .     S
Zn573  N611    2.009   .     S
Zn574  N612    2.009   .     S
C575   H591    1.082   .     S
C575   C585    1.385   .     A
C575   C577    1.386   .     A
C576   C586    1.386   .     A
C576   C578    1.384   .     A
C576   H592    1.083   .     S
C577   C579    1.404   .     A
C578   C580    1.400   .     A
C579   C613    1.519   .     S
C579   C581    1.412   .     A
C580   C582    1.411   .     A
C580   C617    1.519   .     S
C581   C587    1.420   .     A
C581   C583    1.421   .     A
C582   C588    1.421   .     A
C582   C584    1.422   .     A
C583   C585    1.413   .     A
C583   C1214   1.395   .     S
C584   C586    1.415   .     A
C584   C1213   1.395   1_554 S
C585   C590    1.409   .     A
C586   C589    1.409   .     A
C587   C621    1.515   .     S
C587   C1219   1.403   .     S
C588   C625    1.515   .     S
C588   C1220   1.403   1_554 S
C589   Br629   1.940   .     S
C589   C1217   1.403   1_554 S
C590   Br630   1.940   .     S
C590   C1218   1.403   .     S
C593   C602    1.397   .     A
C593   H597    1.084   .     S
C594   C601    1.397   .     A
C594   H598    1.084   .     S
C594   C456    1.370   1_655 S
C595   H599    1.084   .     S
C595   C601    1.396   .     A
C595   C453    1.370   1_655 S
C596   C602    1.396   .     A
C596   H600    1.084   .     S
C603   N612    1.366   .     A
C603   H607    1.082   .     S
C604   N611    1.366   .     A
C604   H608    1.082   .     S
C604   C185    1.416   1_565 S
C605   H609    1.082   .     S
C605   N612    1.366   .     A
C606   H610    1.082   .     S
C606   N611    1.366   .     A
C606   C183    1.416   1_565 S
C613   H614    1.109   .     S
C613   H615    1.106   .     S
C613   H616    1.111   .     S
C617   H618    1.111   .     S
C617   H619    1.108   .     S
C617   H620    1.110   .     S
C621   H624    1.110   .     S
C621   H622    1.108   .     S
C621   H623    1.110   .     S
C625   H627    1.110   .     S
C625   H628    1.110   .     S
C625   H626    1.107   .     S
O631   C635    1.282   .     A
O631   Zn643   1.996   .     S
O632   C636    1.282   .     A
O632   Zn644   1.996   .     S
O633   C636    1.281   .     A
O633   Zn643   1.994   .     S
O634   Zn644   1.994   .     S
O634   C635    1.281   .     A
C635   C672    1.416   .     S
C636   C671    1.416   .     S
O637   C641    1.280   .     A
O637   Zn643   1.999   .     S
O638   C642    1.285   .     A
O638   Zn644   1.999   .     S
O639   C642    1.283   .     A
O639   Zn643   1.998   .     S
O640   C641    1.284   .     A
O640   Zn644   1.998   .     S
C641   C648    1.423   .     S
C642   C647    1.430   .     S
Zn643  N681    2.009   .     S
Zn644  N682    2.009   .     S
C645   H661    1.082   .     S
C645   C655    1.385   .     A
C645   C647    1.386   .     A
C646   C656    1.386   .     A
C646   C648    1.384   .     A
C646   H662    1.083   .     S
C647   C649    1.404   .     A
C648   C650    1.400   .     A
C649   C683    1.519   .     S
C649   C651    1.412   .     A
C650   C652    1.411   .     A
C650   C687    1.519   .     S
C651   C657    1.420   .     A
C651   C653    1.421   .     A
C652   C658    1.421   .     A
C652   C654    1.422   .     A
C653   C655    1.413   .     A
C653   C24     1.395   1_556 S
C654   C656    1.415   .     A
C655   C660    1.409   .     A
C656   C659    1.409   .     A
C657   C691    1.515   .     S
C657   C29     1.403   1_556 S
C658   C695    1.515   .     S
C659   Br699   1.940   .     S
C660   Br700   1.940   .     S
C660   C28     1.403   1_556 S
C663   C672    1.397   .     A
C663   H667    1.084   .     S
C663   C805    1.370   1_455 S
C664   C671    1.397   .     A
C664   H668    1.084   .     S
C664   C736    1.370   .     S
C665   H669    1.084   .     S
C665   C671    1.396   .     A
C665   C733    1.370   .     S
C666   C672    1.396   .     A
C666   H670    1.084   .     S
C666   C804    1.370   1_455 S
C673   N682    1.366   .     A
C673   H677    1.082   .     S
C673   C1096   1.416   1_545 S
C674   N681    1.366   .     A
C674   H678    1.082   .     S
C674   C885    1.416   .     S
C675   H679    1.082   .     S
C675   N682    1.366   .     A
C675   C1094   1.416   1_545 S
C676   H680    1.082   .     S
C676   N681    1.366   .     A
C676   C883    1.416   .     S
C683   H684    1.109   .     S
C683   H685    1.106   .     S
C683   H686    1.111   .     S
C687   H688    1.111   .     S
C687   H689    1.108   .     S
C687   H690    1.110   .     S
C691   H694    1.110   .     S
C691   H692    1.108   .     S
C691   H693    1.110   .     S
C695   H697    1.110   .     S
C695   H698    1.110   .     S
C695   H696    1.107   .     S
O701   C705    1.282   .     A
O701   Zn713   1.996   .     S
O702   C706    1.282   .     A
O702   Zn714   1.996   .     S
O703   C706    1.281   .     A
O703   Zn713   1.994   .     S
O704   Zn714   1.994   .     S
O704   C705    1.281   .     A
C705   C742    1.416   .     S
C706   C741    1.416   .     S
O707   C711    1.280   .     A
O707   Zn713   1.999   .     S
O708   C712    1.285   .     A
O708   Zn714   1.999   .     S
O709   C712    1.283   .     A
O709   Zn713   1.998   .     S
O710   C711    1.284   .     A
O710   Zn714   1.998   .     S
C711   C718    1.423   .     S
C712   C717    1.430   .     S
Zn713  N751    2.009   .     S
Zn714  N752    2.009   .     S
C715   H731    1.082   .     S
C715   C725    1.385   .     A
C715   C717    1.386   .     A
C716   C726    1.386   .     A
C716   C718    1.384   .     A
C716   H732    1.083   .     S
C717   C719    1.404   .     A
C718   C720    1.400   .     A
C719   C753    1.519   .     S
C719   C721    1.412   .     A
C720   C722    1.411   .     A
C720   C757    1.519   .     S
C721   C727    1.420   .     A
C721   C723    1.421   .     A
C722   C728    1.421   .     A
C722   C724    1.422   .     A
C723   C725    1.413   .     A
C723   C94     1.395   1_556 S
C724   C726    1.415   .     A
C725   C730    1.409   .     A
C726   C729    1.409   .     A
C727   C761    1.515   .     S
C727   C99     1.403   1_556 S
C728   C765    1.515   .     S
C729   Br769   1.940   .     S
C730   Br770   1.940   .     S
C730   C98     1.403   1_556 S
C733   C742    1.397   .     A
C733   H737    1.084   .     S
C734   C741    1.397   .     A
C734   H738    1.084   .     S
C734   C806    1.370   .     S
C735   H739    1.084   .     S
C735   C741    1.396   .     A
C735   C803    1.370   .     S
C736   C742    1.396   .     A
C736   H740    1.084   .     S
C743   N752    1.366   .     A
C743   H747    1.082   .     S
C743   C1166   1.416   1_545 S
C744   N751    1.366   .     A
C744   H748    1.082   .     S
C744   C955    1.416   .     S
C745   H749    1.082   .     S
C745   N752    1.366   .     A
C745   C1164   1.416   1_545 S
C746   H750    1.082   .     S
C746   N751    1.366   .     A
C746   C953    1.416   .     S
C753   H754    1.109   .     S
C753   H755    1.106   .     S
C753   H756    1.111   .     S
C757   H758    1.111   .     S
C757   H759    1.108   .     S
C757   H760    1.110   .     S
C761   H764    1.110   .     S
C761   H762    1.108   .     S
C761   H763    1.110   .     S
C765   H767    1.110   .     S
C765   H768    1.110   .     S
C765   H766    1.107   .     S
O771   C775    1.282   .     A
O771   Zn783   1.996   .     S
O772   C776    1.282   .     A
O772   Zn784   1.996   .     S
O773   C776    1.281   .     A
O773   Zn783   1.994   .     S
O774   Zn784   1.994   .     S
O774   C775    1.281   .     A
C775   C812    1.416   .     S
C776   C811    1.416   .     S
O777   C781    1.280   .     A
O777   Zn783   1.999   .     S
O778   C782    1.285   .     A
O778   Zn784   1.999   .     S
O779   C782    1.283   .     A
O779   Zn783   1.998   .     S
O780   C781    1.284   .     A
O780   Zn784   1.998   .     S
C781   C788    1.423   .     S
C782   C787    1.430   .     S
Zn783  N821    2.009   .     S
Zn784  N822    2.009   .     S
C785   H801    1.082   .     S
C785   C795    1.385   .     A
C785   C787    1.386   .     A
C786   C796    1.386   .     A
C786   C788    1.384   .     A
C786   H802    1.083   .     S
C787   C789    1.404   .     A
C788   C790    1.400   .     A
C789   C823    1.519   .     S
C789   C791    1.412   .     A
C790   C792    1.411   .     A
C790   C827    1.519   .     S
C791   C797    1.420   .     A
C791   C793    1.421   .     A
C792   C798    1.421   .     A
C792   C794    1.422   .     A
C793   C795    1.413   .     A
C793   C164    1.395   1_556 S
C794   C796    1.415   .     A
C795   C800    1.409   .     A
C796   C799    1.409   .     A
C797   C831    1.515   .     S
C797   C169    1.403   1_556 S
C798   C835    1.515   .     S
C799   Br839   1.940   .     S
C800   Br840   1.940   .     S
C800   C168    1.403   1_556 S
C803   C812    1.397   .     A
C803   H807    1.084   .     S
C804   C811    1.397   .     A
C804   H808    1.084   .     S
C804   C666    1.370   1_655 S
C805   H809    1.084   .     S
C805   C811    1.396   .     A
C805   C663    1.370   1_655 S
C806   C812    1.396   .     A
C806   H810    1.084   .     S
C813   N822    1.366   .     A
C813   H817    1.082   .     S
C813   C1236   1.416   1_545 S
C814   N821    1.366   .     A
C814   H818    1.082   .     S
C814   C1025   1.416   .     S
C815   H819    1.082   .     S
C815   N822    1.366   .     A
C815   C1234   1.416   1_545 S
C816   H820    1.082   .     S
C816   N821    1.366   .     A
C816   C1023   1.416   .     S
C823   H824    1.109   .     S
C823   H825    1.106   .     S
C823   H826    1.111   .     S
C827   H828    1.111   .     S
C827   H829    1.108   .     S
C827   H830    1.110   .     S
C831   H834    1.110   .     S
C831   H832    1.108   .     S
C831   H833    1.110   .     S
C835   H837    1.110   .     S
C835   H838    1.110   .     S
C835   H836    1.107   .     S
O841   C845    1.282   .     A
O841   Zn853   1.996   .     S
O842   C846    1.282   .     A
O842   Zn854   1.996   .     S
O843   C846    1.281   .     A
O843   Zn853   1.994   .     S
O844   Zn854   1.994   .     S
O844   C845    1.281   .     A
C845   C882    1.416   .     S
C846   C881    1.416   .     S
O847   C851    1.280   .     A
O847   Zn853   1.999   .     S
O848   C852    1.285   .     A
O848   Zn854   1.999   .     S
O849   C852    1.283   .     A
O849   Zn853   1.998   .     S
O850   C851    1.284   .     A
O850   Zn854   1.998   .     S
C851   C858    1.423   .     S
C852   C857    1.430   .     S
Zn853  N891    2.009   .     S
Zn854  N892    2.009   .     S
C855   H871    1.082   .     S
C855   C865    1.385   .     A
C855   C857    1.386   .     A
C856   C866    1.386   .     A
C856   C858    1.384   .     A
C856   H872    1.083   .     S
C857   C859    1.404   .     A
C858   C860    1.400   .     A
C859   C893    1.519   .     S
C859   C861    1.412   .     A
C860   C862    1.411   .     A
C860   C897    1.519   .     S
C861   C867    1.420   .     A
C861   C863    1.421   .     A
C862   C868    1.421   .     A
C862   C864    1.422   .     A
C863   C865    1.413   .     A
C863   C234    1.395   1_556 S
C864   C866    1.415   .     A
C865   C870    1.409   .     A
C866   C869    1.409   .     A
C867   C901    1.515   .     S
C867   C239    1.403   1_556 S
C868   C905    1.515   .     S
C869   Br909   1.940   .     S
C870   Br910   1.940   .     S
C870   C238    1.403   1_556 S
C873   C882    1.397   .     A
C873   H877    1.084   .     S
C873   C1015   1.370   1_455 S
C874   C881    1.397   .     A
C874   H878    1.084   .     S
C874   C946    1.370   .     S
C875   H879    1.084   .     S
C875   C881    1.396   .     A
C875   C943    1.370   .     S
C876   C882    1.396   .     A
C876   H880    1.084   .     S
C876   C1014   1.370   1_455 S
C883   N892    1.366   .     A
C883   H887    1.082   .     S
C884   N891    1.366   .     A
C884   H888    1.082   .     S
C884   C1095   1.416   .     S
C885   H889    1.082   .     S
C885   N892    1.366   .     A
C886   H890    1.082   .     S
C886   N891    1.366   .     A
C886   C1093   1.416   .     S
C893   H894    1.109   .     S
C893   H895    1.106   .     S
C893   H896    1.111   .     S
C897   H898    1.111   .     S
C897   H899    1.108   .     S
C897   H900    1.110   .     S
C901   H904    1.110   .     S
C901   H902    1.108   .     S
C901   H903    1.110   .     S
C905   H907    1.110   .     S
C905   H908    1.110   .     S
C905   H906    1.107   .     S
O911   C915    1.282   .     A
O911   Zn923   1.996   .     S
O912   C916    1.282   .     A
O912   Zn924   1.996   .     S
O913   C916    1.281   .     A
O913   Zn923   1.994   .     S
O914   Zn924   1.994   .     S
O914   C915    1.281   .     A
C915   C952    1.416   .     S
C916   C951    1.416   .     S
O917   C921    1.280   .     A
O917   Zn923   1.999   .     S
O918   C922    1.285   .     A
O918   Zn924   1.999   .     S
O919   C922    1.283   .     A
O919   Zn923   1.998   .     S
O920   C921    1.284   .     A
O920   Zn924   1.998   .     S
C921   C928    1.423   .     S
C922   C927    1.430   .     S
Zn923  N961    2.009   .     S
Zn924  N962    2.009   .     S
C925   H941    1.082   .     S
C925   C935    1.385   .     A
C925   C927    1.386   .     A
C926   C936    1.386   .     A
C926   C928    1.384   .     A
C926   H942    1.083   .     S
C927   C929    1.404   .     A
C928   C930    1.400   .     A
C929   C963    1.519   .     S
C929   C931    1.412   .     A
C930   C932    1.411   .     A
C930   C967    1.519   .     S
C931   C937    1.420   .     A
C931   C933    1.421   .     A
C932   C938    1.421   .     A
C932   C934    1.422   .     A
C933   C935    1.413   .     A
C933   C304    1.395   1_556 S
C934   C936    1.415   .     A
C935   C940    1.409   .     A
C936   C939    1.409   .     A
C937   C971    1.515   .     S
C937   C309    1.403   1_556 S
C938   C975    1.515   .     S
C939   Br979   1.940   .     S
C940   Br980   1.940   .     S
C940   C308    1.403   1_556 S
C943   C952    1.397   .     A
C943   H947    1.084   .     S
C944   C951    1.397   .     A
C944   H948    1.084   .     S
C944   C1016   1.370   .     S
C945   H949    1.084   .     S
C945   C951    1.396   .     A
C945   C1013   1.370   .     S
C946   C952    1.396   .     A
C946   H950    1.084   .     S
C953   N962    1.366   .     A
C953   H957    1.082   .     S
C954   N961    1.366   .     A
C954   H958    1.082   .     S
C954   C1165   1.416   .     S
C955   H959    1.082   .     S
C955   N962    1.366   .     A
C956   H960    1.082   .     S
C956   N961    1.366   .     A
C956   C1163   1.416   .     S
C963   H964    1.109   .     S
C963   H965    1.106   .     S
C963   H966    1.111   .     S
C967   H968    1.111   .     S
C967   H969    1.108   .     S
C967   H970    1.110   .     S
C971   H974    1.110   .     S
C971   H972    1.108   .     S
C971   H973    1.110   .     S
C975   H977    1.110   .     S
C975   H978    1.110   .     S
C975   H976    1.107   .     S
O981   C985    1.282   .     A
O981   Zn993   1.996   .     S
O982   C986    1.282   .     A
O982   Zn994   1.996   .     S
O983   C986    1.281   .     A
O983   Zn993   1.994   .     S
O984   Zn994   1.994   .     S
O984   C985    1.281   .     A
C985   C1022   1.416   .     S
C986   C1021   1.416   .     S
O987   C991    1.280   .     A
O987   Zn993   1.999   .     S
O988   C992    1.285   .     A
O988   Zn994   1.999   .     S
O989   C992    1.283   .     A
O989   Zn993   1.998   .     S
O990   C991    1.284   .     A
O990   Zn994   1.998   .     S
C991   C998    1.423   .     S
C992   C997    1.430   .     S
Zn993  N1031   2.009   .     S
Zn994  N1032   2.009   .     S
C995   H1011   1.082   .     S
C995   C1005   1.385   .     A
C995   C997    1.386   .     A
C996   C1006   1.386   .     A
C996   C998    1.384   .     A
C996   H1012   1.083   .     S
C997   C999    1.404   .     A
C998   C1000   1.400   .     A
C999   C1033   1.519   .     S
C999   C1001   1.412   .     A
C1000  C1002   1.411   .     A
C1000  C1037   1.519   .     S
C1001  C1007   1.420   .     A
C1001  C1003   1.421   .     A
C1002  C1008   1.421   .     A
C1002  C1004   1.422   .     A
C1003  C1005   1.413   .     A
C1003  C374    1.395   1_556 S
C1004  C1006   1.415   .     A
C1005  C1010   1.409   .     A
C1006  C1009   1.409   .     A
C1007  C1041   1.515   .     S
C1007  C379    1.403   1_556 S
C1008  C1045   1.515   .     S
C1009  Br1049  1.940   .     S
C1010  Br1050  1.940   .     S
C1010  C378    1.403   1_556 S
C1013  C1022   1.397   .     A
C1013  H1017   1.084   .     S
C1014  C1021   1.397   .     A
C1014  H1018   1.084   .     S
C1014  C876    1.370   1_655 S
C1015  H1019   1.084   .     S
C1015  C1021   1.396   .     A
C1015  C873    1.370   1_655 S
C1016  C1022   1.396   .     A
C1016  H1020   1.084   .     S
C1023  N1032   1.366   .     A
C1023  H1027   1.082   .     S
C1024  N1031   1.366   .     A
C1024  H1028   1.082   .     S
C1024  C1235   1.416   .     S
C1025  H1029   1.082   .     S
C1025  N1032   1.366   .     A
C1026  H1030   1.082   .     S
C1026  N1031   1.366   .     A
C1026  C1233   1.416   .     S
C1033  H1034   1.109   .     S
C1033  H1035   1.106   .     S
C1033  H1036   1.111   .     S
C1037  H1038   1.111   .     S
C1037  H1039   1.108   .     S
C1037  H1040   1.110   .     S
C1041  H1044   1.110   .     S
C1041  H1042   1.108   .     S
C1041  H1043   1.110   .     S
C1045  H1047   1.110   .     S
C1045  H1048   1.110   .     S
C1045  H1046   1.107   .     S
O1051  C1055   1.282   .     A
O1051  Zn1063  1.996   .     S
O1052  C1056   1.282   .     A
O1052  Zn1064  1.996   .     S
O1053  C1056   1.281   .     A
O1053  Zn1063  1.994   .     S
O1054  Zn1064  1.994   .     S
O1054  C1055   1.281   .     A
C1055  C1092   1.416   .     S
C1056  C1091   1.416   .     S
O1057  C1061   1.280   .     A
O1057  Zn1063  1.999   .     S
O1058  C1062   1.285   .     A
O1058  Zn1064  1.999   .     S
O1059  C1062   1.283   .     A
O1059  Zn1063  1.998   .     S
O1060  C1061   1.284   .     A
O1060  Zn1064  1.998   .     S
C1061  C1068   1.423   .     S
C1062  C1067   1.430   .     S
Zn1063 N1101   2.009   .     S
Zn1064 N1102   2.009   .     S
C1065  H1081   1.082   .     S
C1065  C1075   1.385   .     A
C1065  C1067   1.386   .     A
C1066  C1076   1.386   .     A
C1066  C1068   1.384   .     A
C1066  H1082   1.083   .     S
C1067  C1069   1.404   .     A
C1068  C1070   1.400   .     A
C1069  C1103   1.519   .     S
C1069  C1071   1.412   .     A
C1070  C1072   1.411   .     A
C1070  C1107   1.519   .     S
C1071  C1077   1.420   .     A
C1071  C1073   1.421   .     A
C1072  C1078   1.421   .     A
C1072  C1074   1.422   .     A
C1073  C1075   1.413   .     A
C1073  C444    1.395   1_556 S
C1074  C1076   1.415   .     A
C1075  C1080   1.409   .     A
C1076  C1079   1.409   .     A
C1077  C1111   1.515   .     S
C1077  C449    1.403   1_556 S
C1078  C1115   1.515   .     S
C1079  Br1119  1.940   .     S
C1080  Br1120  1.940   .     S
C1080  C448    1.403   1_556 S
C1083  C1092   1.397   .     A
C1083  H1087   1.084   .     S
C1083  C1225   1.370   1_455 S
C1084  C1091   1.397   .     A
C1084  H1088   1.084   .     S
C1084  C1156   1.370   .     S
C1085  H1089   1.084   .     S
C1085  C1091   1.396   .     A
C1085  C1153   1.370   .     S
C1086  C1092   1.396   .     A
C1086  H1090   1.084   .     S
C1086  C1224   1.370   1_455 S
C1093  N1102   1.366   .     A
C1093  H1097   1.082   .     S
C1094  N1101   1.366   .     A
C1094  H1098   1.082   .     S
C1094  C675    1.416   1_565 S
C1095  H1099   1.082   .     S
C1095  N1102   1.366   .     A
C1096  H1100   1.082   .     S
C1096  N1101   1.366   .     A
C1096  C673    1.416   1_565 S
C1103  H1104   1.109   .     S
C1103  H1105   1.106   .     S
C1103  H1106   1.111   .     S
C1107  H1108   1.111   .     S
C1107  H1109   1.108   .     S
C1107  H1110   1.110   .     S
C1111  H1114   1.110   .     S
C1111  H1112   1.108   .     S
C1111  H1113   1.110   .     S
C1115  H1117   1.110   .     S
C1115  H1118   1.110   .     S
C1115  H1116   1.107   .     S
O1121  C1125   1.282   .     A
O1121  Zn1133  1.996   .     S
O1122  C1126   1.282   .     A
O1122  Zn1134  1.996   .     S
O1123  C1126   1.281   .     A
O1123  Zn1133  1.994   .     S
O1124  Zn1134  1.994   .     S
O1124  C1125   1.281   .     A
C1125  C1162   1.416   .     S
C1126  C1161   1.416   .     S
O1127  C1131   1.280   .     A
O1127  Zn1133  1.999   .     S
O1128  C1132   1.285   .     A
O1128  Zn1134  1.999   .     S
O1129  C1132   1.283   .     A
O1129  Zn1133  1.998   .     S
O1130  C1131   1.284   .     A
O1130  Zn1134  1.998   .     S
C1131  C1138   1.423   .     S
C1132  C1137   1.430   .     S
Zn1133 N1171   2.009   .     S
Zn1134 N1172   2.009   .     S
C1135  H1151   1.082   .     S
C1135  C1145   1.385   .     A
C1135  C1137   1.386   .     A
C1136  C1146   1.386   .     A
C1136  C1138   1.384   .     A
C1136  H1152   1.083   .     S
C1137  C1139   1.404   .     A
C1138  C1140   1.400   .     A
C1139  C1173   1.519   .     S
C1139  C1141   1.412   .     A
C1140  C1142   1.411   .     A
C1140  C1177   1.519   .     S
C1141  C1147   1.420   .     A
C1141  C1143   1.421   .     A
C1142  C1148   1.421   .     A
C1142  C1144   1.422   .     A
C1143  C1145   1.413   .     A
C1143  C514    1.395   1_556 S
C1144  C1146   1.415   .     A
C1145  C1150   1.409   .     A
C1146  C1149   1.409   .     A
C1147  C1181   1.515   .     S
C1147  C519    1.403   1_556 S
C1148  C1185   1.515   .     S
C1149  Br1189  1.940   .     S
C1150  Br1190  1.940   .     S
C1150  C518    1.403   1_556 S
C1153  C1162   1.397   .     A
C1153  H1157   1.084   .     S
C1154  C1161   1.397   .     A
C1154  H1158   1.084   .     S
C1154  C1226   1.370   .     S
C1155  H1159   1.084   .     S
C1155  C1161   1.396   .     A
C1155  C1223   1.370   .     S
C1156  C1162   1.396   .     A
C1156  H1160   1.084   .     S
C1163  N1172   1.366   .     A
C1163  H1167   1.082   .     S
C1164  N1171   1.366   .     A
C1164  H1168   1.082   .     S
C1164  C745    1.416   1_565 S
C1165  H1169   1.082   .     S
C1165  N1172   1.366   .     A
C1166  H1170   1.082   .     S
C1166  N1171   1.366   .     A
C1166  C743    1.416   1_565 S
C1173  H1174   1.109   .     S
C1173  H1175   1.106   .     S
C1173  H1176   1.111   .     S
C1177  H1178   1.111   .     S
C1177  H1179   1.108   .     S
C1177  H1180   1.110   .     S
C1181  H1184   1.110   .     S
C1181  H1182   1.108   .     S
C1181  H1183   1.110   .     S
C1185  H1187   1.110   .     S
C1185  H1188   1.110   .     S
C1185  H1186   1.107   .     S
O1191  C1195   1.282   .     A
O1191  Zn1203  1.996   .     S
O1192  C1196   1.282   .     A
O1192  Zn1204  1.996   .     S
O1193  C1196   1.281   .     A
O1193  Zn1203  1.994   .     S
O1194  Zn1204  1.994   .     S
O1194  C1195   1.281   .     A
C1195  C1232   1.416   .     S
C1196  C1231   1.416   .     S
O1197  C1201   1.280   .     A
O1197  Zn1203  1.999   .     S
O1198  C1202   1.285   .     A
O1198  Zn1204  1.999   .     S
O1199  C1202   1.283   .     A
O1199  Zn1203  1.998   .     S
O1200  C1201   1.284   .     A
O1200  Zn1204  1.998   .     S
C1201  C1208   1.423   .     S
C1202  C1207   1.430   .     S
Zn1203 N1241   2.009   .     S
Zn1204 N1242   2.009   .     S
C1205  H1221   1.082   .     S
C1205  C1215   1.385   .     A
C1205  C1207   1.386   .     A
C1206  C1216   1.386   .     A
C1206  C1208   1.384   .     A
C1206  H1222   1.083   .     S
C1207  C1209   1.404   .     A
C1208  C1210   1.400   .     A
C1209  C1243   1.519   .     S
C1209  C1211   1.412   .     A
C1210  C1212   1.411   .     A
C1210  C1247   1.519   .     S
C1211  C1217   1.420   .     A
C1211  C1213   1.421   .     A
C1212  C1218   1.421   .     A
C1212  C1214   1.422   .     A
C1213  C1215   1.413   .     A
C1213  C584    1.395   1_556 S
C1214  C1216   1.415   .     A
C1215  C1220   1.409   .     A
C1216  C1219   1.409   .     A
C1217  C1251   1.515   .     S
C1217  C589    1.403   1_556 S
C1218  C1255   1.515   .     S
C1219  Br1259  1.940   .     S
C1220  Br1260  1.940   .     S
C1220  C588    1.403   1_556 S
C1223  C1232   1.397   .     A
C1223  H1227   1.084   .     S
C1224  C1231   1.397   .     A
C1224  H1228   1.084   .     S
C1224  C1086   1.370   1_655 S
C1225  H1229   1.084   .     S
C1225  C1231   1.396   .     A
C1225  C1083   1.370   1_655 S
C1226  C1232   1.396   .     A
C1226  H1230   1.084   .     S
C1233  N1242   1.366   .     A
C1233  H1237   1.082   .     S
C1234  N1241   1.366   .     A
C1234  H1238   1.082   .     S
C1234  C815    1.416   1_565 S
C1235  H1239   1.082   .     S
C1235  N1242   1.366   .     A
C1236  H1240   1.082   .     S
C1236  N1241   1.366   .     A
C1236  C813    1.416   1_565 S
C1243  H1244   1.109   .     S
C1243  H1245   1.106   .     S
C1243  H1246   1.111   .     S
C1247  H1248   1.111   .     S
C1247  H1249   1.108   .     S
C1247  H1250   1.110   .     S
C1251  H1254   1.110   .     S
C1251  H1252   1.108   .     S
C1251  H1253   1.110   .     S
C1255  H1257   1.110   .     S
C1255  H1258   1.110   .     S
C1255  H1256   1.107   .     S
