data_str_m1_o1_o2_pcu_sym.110
_audit_creation_date              2020-01-03
_audit_creation_method            'Materials Studio'
_symmetry_space_group_name_H-M    'P1'
_symmetry_Int_Tables_number       1
_symmetry_cell_setting            triclinic
loop_
_symmetry_equiv_pos_as_xyz
  x,y,z
_cell_length_a                    36.6542
_cell_length_b                    36.6542
_cell_length_c                    34.6262
_cell_angle_alpha                 90.0000
_cell_angle_beta                  90.0000
_cell_angle_gamma                 90.0000
loop_
_atom_site_label
_atom_site_type_symbol
_atom_site_fract_x
_atom_site_fract_y
_atom_site_fract_z
_atom_site_U_iso_or_equiv
_atom_site_adp_type
_atom_site_occupancy
C1     C     0.22143   0.01734   0.04139   0.00000  Uiso   1.00
C2     C     0.02857   0.26734   0.45861   0.00000  Uiso   1.00
C3     C     0.34814   0.40186   0.75000   0.00000  Uiso   1.00
C4     C     0.40187   0.15187   0.25000   0.00000  Uiso   1.00
C5     C     0.09814   0.34814   0.75000   0.00000  Uiso   1.00
C6     C     0.34813   0.40187   0.25000   0.00000  Uiso   1.00
C7     C     0.15186   0.09814   0.75000   0.00000  Uiso   1.00
C8     C     0.09812   0.15187   0.75000   0.00000  Uiso   1.00
C9     C     0.40186   0.34814   0.25000   0.00000  Uiso   1.00
C10    C     0.15187   0.40187   0.75000   0.00000  Uiso   1.00
C11    C     0.34814   0.09814   0.25000   0.00000  Uiso   1.00
C12    C     0.40187   0.34813   0.75000   0.00000  Uiso   1.00
C13    C     0.23266   0.47143   0.54139   0.00000  Uiso   1.00
C14    C     0.09814   0.15186   0.25000   0.00000  Uiso   1.00
C15    C     0.34813   0.09813   0.75000   0.00000  Uiso   1.00
C16    C     0.15186   0.40186   0.25000   0.00000  Uiso   1.00
C17    C     0.25000   0.00000   0.10226   0.00000  Uiso   1.00
C18    C     0.25000   0.00000   0.89774   0.00000  Uiso   1.00
C19    C    -0.00000   0.25000   0.10226   0.00000  Uiso   1.00
C20    C     0.00000   0.25000   0.89774   0.00000  Uiso   1.00
C21    C     0.00000   0.25000   0.60226   0.00000  Uiso   1.00
C22    C     0.00000   0.25000   0.39774   0.00000  Uiso   1.00
C23    C     0.25000  -0.00000   0.60226   0.00000  Uiso   1.00
C24    C     0.23266   0.02857   0.45861   0.00000  Uiso   1.00
C25    C     0.25000   0.00000   0.39774   0.00000  Uiso   1.00
C26    C     0.20197   0.06756   0.00782   0.00000  Uiso   1.00
C27    C     0.29803   0.06756   0.99218   0.00000  Uiso   1.00
C28    C     0.43244   0.20197   0.00782   0.00000  Uiso   1.00
C29    C     0.43244   0.29803   0.99218   0.00000  Uiso   1.00
C30    C     0.29803   0.43244   0.00782   0.00000  Uiso   1.00
C31    C     0.20197   0.43244   0.99218   0.00000  Uiso   1.00
C32    C     0.06756   0.29803   0.00782   0.00000  Uiso   1.00
C33    C     0.06756   0.20197   0.99218   0.00000  Uiso   1.00
C34    C     0.45197   0.31756   0.50783   0.00000  Uiso   1.00
C35    C     0.02857   0.23266   0.54139   0.00000  Uiso   1.00
C36    C     0.04803   0.31756   0.49218   0.00000  Uiso   1.00
C37    C     0.18244   0.45197   0.50783   0.00000  Uiso   1.00
C38    C     0.18244   0.04803   0.49218   0.00000  Uiso   1.00
C39    C     0.04803   0.18244   0.50783   0.00000  Uiso   1.00
C40    C     0.45197   0.18244   0.49218   0.00000  Uiso   1.00
C41    C     0.31756   0.04803   0.50783   0.00000  Uiso   1.00
C42    C     0.31756   0.45197   0.49218   0.00000  Uiso   1.00
C43    C     0.19951   0.07043   0.11655   0.00000  Uiso   1.00
C44    C     0.30049   0.07043   0.88345   0.00000  Uiso   1.00
C45    C     0.42957   0.19951   0.11655   0.00000  Uiso   1.00
C46    C     0.47143   0.23266   0.45861   0.00000  Uiso   1.00
C47    C     0.42957   0.30049   0.88345   0.00000  Uiso   1.00
C48    C     0.30049   0.42957   0.11655   0.00000  Uiso   1.00
C49    C     0.19951   0.42957   0.88345   0.00000  Uiso   1.00
C50    C     0.07043   0.30049   0.11655   0.00000  Uiso   1.00
C51    C     0.07043   0.19951   0.88345   0.00000  Uiso   1.00
C52    C     0.44951   0.32043   0.61655   0.00000  Uiso   1.00
C53    C     0.05049   0.32043   0.38345   0.00000  Uiso   1.00
C54    C     0.17957   0.44951   0.61655   0.00000  Uiso   1.00
C55    C     0.17957   0.05049   0.38345   0.00000  Uiso   1.00
C56    C     0.05049   0.17957   0.61655   0.00000  Uiso   1.00
C57    C     0.26734   0.02857   0.54139   0.00000  Uiso   1.00
C58    C     0.44951   0.17957   0.38345   0.00000  Uiso   1.00
C59    C     0.32043   0.05049   0.61655   0.00000  Uiso   1.00
C60    C     0.32043   0.44951   0.38345   0.00000  Uiso   1.00
C61    C     0.26734   0.47143   0.45861   0.00000  Uiso   1.00
C62    C     0.22121   0.01711   0.08187   0.00000  Uiso   1.00
C63    C     0.27879   0.01711   0.91813   0.00000  Uiso   1.00
C64    C     0.48289   0.22121   0.08187   0.00000  Uiso   1.00
C65    C     0.27857   0.01734   0.95861   0.00000  Uiso   1.00
C66    C     0.48289   0.27879   0.91813   0.00000  Uiso   1.00
C67    C     0.27879   0.48289   0.08187   0.00000  Uiso   1.00
C68    C     0.22121   0.48289   0.91813   0.00000  Uiso   1.00
C69    C     0.01711   0.27879   0.08187   0.00000  Uiso   1.00
C70    C     0.01711   0.22121   0.91813   0.00000  Uiso   1.00
C71    C     0.47121   0.26711   0.58187   0.00000  Uiso   1.00
C72    C     0.02879   0.26711   0.41813   0.00000  Uiso   1.00
C73    C     0.23289   0.47121   0.58187   0.00000  Uiso   1.00
C74    C     0.23289   0.02879   0.41813   0.00000  Uiso   1.00
C75    C     0.02879   0.23289   0.58187   0.00000  Uiso   1.00
C76    C     0.48266   0.22143   0.04139   0.00000  Uiso   1.00
C77    C     0.47121   0.23289   0.41813   0.00000  Uiso   1.00
C78    C     0.26711   0.02879   0.58187   0.00000  Uiso   1.00
C79    C     0.26711   0.47121   0.41813   0.00000  Uiso   1.00
C80    C     0.25000   0.00000   0.02121   0.00000  Uiso   1.00
C81    C     0.25000   0.00000   0.97879   0.00000  Uiso   1.00
C82    C     0.00000   0.25000   0.02121   0.00000  Uiso   1.00
C83    C     0.00000   0.25000   0.97879   0.00000  Uiso   1.00
C84    C     0.00000   0.25000   0.52121   0.00000  Uiso   1.00
C85    C    -0.00000   0.25000   0.47879   0.00000  Uiso   1.00
C86    C     0.25000   0.00000   0.52121   0.00000  Uiso   1.00
C87    C     0.48266   0.27857   0.95861   0.00000  Uiso   1.00
C88    C     0.25000  -0.00000   0.47879   0.00000  Uiso   1.00
C89    C     0.25000   0.00000   0.35522   0.00000  Uiso   1.00
C90    C     0.25000  -0.00000   0.64478   0.00000  Uiso   1.00
C91    C     0.00000   0.25000   0.35522   0.00000  Uiso   1.00
C92    C    -0.00000   0.25000   0.64478   0.00000  Uiso   1.00
C93    C     0.00000   0.25000   0.85522   0.00000  Uiso   1.00
C94    C     0.00000   0.25000   0.14478   0.00000  Uiso   1.00
C95    C     0.25000   0.00000   0.85522   0.00000  Uiso   1.00
C96    C     0.25000   0.00000   0.14478   0.00000  Uiso   1.00
C97    C     0.17994   0.07006   0.25000   0.00000  Uiso   1.00
C98    C     0.27857   0.48266   0.04139   0.00000  Uiso   1.00
C99    C     0.32007   0.42993   0.75000   0.00000  Uiso   1.00
C100   C     0.42994   0.17994   0.25000   0.00000  Uiso   1.00
C101   C     0.07007   0.32007   0.75000   0.00000  Uiso   1.00
C102   C     0.32006   0.42994   0.25000   0.00000  Uiso   1.00
C103   C     0.17993   0.07007   0.75000   0.00000  Uiso   1.00
C104   C     0.07006   0.32006   0.25000   0.00000  Uiso   1.00
C105   C     0.42993   0.17993   0.75000   0.00000  Uiso   1.00
C106   C     0.17994   0.42994   0.75000   0.00000  Uiso   1.00
C107   C     0.32007   0.07007   0.25000   0.00000  Uiso   1.00
C108   C     0.42994   0.32006   0.75000   0.00000  Uiso   1.00
C109   C     0.22143   0.48266   0.95861   0.00000  Uiso   1.00
C110   C     0.07007   0.17993   0.25000   0.00000  Uiso   1.00
C111   C     0.32006   0.07006   0.75000   0.00000  Uiso   1.00
C112   C     0.17993   0.42993   0.25000   0.00000  Uiso   1.00
C113   C     0.07006   0.17994   0.75000   0.00000  Uiso   1.00
C114   C     0.42993   0.32007   0.25000   0.00000  Uiso   1.00
C115   C     0.12291   0.40380   0.22363   0.00000  Uiso   1.00
C116   C     0.37705   0.09619   0.77639   0.00000  Uiso   1.00
C117   C     0.09620   0.12292   0.22363   0.00000  Uiso   1.00
C118   C     0.40381   0.37705   0.77639   0.00000  Uiso   1.00
C119   C     0.37708   0.09620   0.22363   0.00000  Uiso   1.00
C120   C     0.01734   0.27857   0.04139   0.00000  Uiso   1.00
C121   C     0.12295   0.40381   0.77639   0.00000  Uiso   1.00
C122   C     0.40380   0.37709   0.22363   0.00000  Uiso   1.00
C123   C     0.09619   0.12295   0.77639   0.00000  Uiso   1.00
C124   C     0.12291   0.09620   0.77637   0.00000  Uiso   1.00
C125   C     0.37705   0.40381   0.22361   0.00000  Uiso   1.00
C126   C     0.09620   0.37708   0.77637   0.00000  Uiso   1.00
C127   C     0.40381   0.12295   0.22361   0.00000  Uiso   1.00
C128   C     0.37708   0.40380   0.77637   0.00000  Uiso   1.00
C129   C     0.12295   0.09619   0.22361   0.00000  Uiso   1.00
C130   C     0.40380   0.12292   0.77637   0.00000  Uiso   1.00
C131   C     0.01734   0.22143   0.95861   0.00000  Uiso   1.00
C132   C     0.09619   0.37705   0.22361   0.00000  Uiso   1.00
C133   C     0.37291   0.15380   0.72363   0.00000  Uiso   1.00
C134   C     0.12705   0.34619   0.27639   0.00000  Uiso   1.00
C135   C     0.34620   0.37292   0.72363   0.00000  Uiso   1.00
C136   C     0.15381   0.12705   0.27639   0.00000  Uiso   1.00
C137   C     0.12708   0.34620   0.72363   0.00000  Uiso   1.00
C138   C     0.37295   0.15381   0.27639   0.00000  Uiso   1.00
C139   C     0.15380   0.12709   0.72363   0.00000  Uiso   1.00
C140   C     0.34619   0.37295   0.27639   0.00000  Uiso   1.00
C141   C     0.37291   0.34620   0.27637   0.00000  Uiso   1.00
C142   C     0.47143   0.26734   0.54139   0.00000  Uiso   1.00
C143   C     0.12705   0.15381   0.72361   0.00000  Uiso   1.00
C144   C     0.34620   0.12709   0.27637   0.00000  Uiso   1.00
C145   C     0.15381   0.37295   0.72361   0.00000  Uiso   1.00
C146   C     0.12708   0.15380   0.27637   0.00000  Uiso   1.00
C147   C     0.37295   0.34619   0.72361   0.00000  Uiso   1.00
C148   C     0.15380   0.37291   0.27637   0.00000  Uiso   1.00
C149   C     0.34619   0.12705   0.72361   0.00000  Uiso   1.00
C150   C     0.09812   0.34813   0.25000   0.00000  Uiso   1.00
C151   C     0.40186   0.15186   0.75000   0.00000  Uiso   1.00
C152   C     0.15187   0.09813   0.25000   0.00000  Uiso   1.00
H153   H     0.12093   0.42590   0.20296   0.00000  Uiso   1.00
H154   H     0.37901   0.42588   0.20291   0.00000  Uiso   1.00
H155   H     0.32320   0.42060   0.13553   0.00000  Uiso   1.00
H156   H     0.16688   0.46740   0.91159   0.00000  Uiso   1.00
H157   H     0.20202   0.40997   0.90771   0.00000  Uiso   1.00
H158   H     0.22507   0.42925   0.86624   0.00000  Uiso   1.00
H159   H     0.17680   0.42059   0.86447   0.00000  Uiso   1.00
H160   H     0.03260   0.33312   0.08841   0.00000  Uiso   1.00
H161   H     0.09003   0.29798   0.09230   0.00000  Uiso   1.00
H162   H     0.07075   0.27493   0.13376   0.00000  Uiso   1.00
H163   H     0.07940   0.32320   0.13553   0.00000  Uiso   1.00
H164   H     0.03260   0.16688   0.91159   0.00000  Uiso   1.00
H165   H     0.07410   0.37907   0.79704   0.00000  Uiso   1.00
H166   H     0.09003   0.20202   0.90771   0.00000  Uiso   1.00
H167   H     0.07075   0.22507   0.86624   0.00000  Uiso   1.00
H168   H     0.07940   0.17680   0.86447   0.00000  Uiso   1.00
H169   H     0.41688   0.28260   0.58841   0.00000  Uiso   1.00
H170   H     0.45202   0.34003   0.59230   0.00000  Uiso   1.00
H171   H     0.47507   0.32075   0.63376   0.00000  Uiso   1.00
H172   H     0.42680   0.32941   0.63553   0.00000  Uiso   1.00
H173   H     0.08312   0.28260   0.41159   0.00000  Uiso   1.00
H174   H     0.04798   0.34003   0.40771   0.00000  Uiso   1.00
H175   H     0.02493   0.32075   0.36624   0.00000  Uiso   1.00
H176   H     0.42588   0.12099   0.20291   0.00000  Uiso   1.00
H177   H     0.07320   0.32940   0.36447   0.00000  Uiso   1.00
H178   H     0.21740   0.41688   0.58841   0.00000  Uiso   1.00
H179   H     0.15997   0.45202   0.59230   0.00000  Uiso   1.00
H180   H     0.17925   0.47507   0.63376   0.00000  Uiso   1.00
H181   H     0.17059   0.42680   0.63553   0.00000  Uiso   1.00
H182   H     0.21740   0.08312   0.41159   0.00000  Uiso   1.00
H183   H     0.15997   0.04798   0.40771   0.00000  Uiso   1.00
H184   H     0.17925   0.02493   0.36624   0.00000  Uiso   1.00
H185   H     0.17059   0.07320   0.36447   0.00000  Uiso   1.00
H186   H     0.08312   0.21740   0.58841   0.00000  Uiso   1.00
H187   H     0.37907   0.42590   0.79704   0.00000  Uiso   1.00
H188   H     0.04798   0.15997   0.59230   0.00000  Uiso   1.00
H189   H     0.02493   0.17925   0.63376   0.00000  Uiso   1.00
H190   H     0.07320   0.17059   0.63553   0.00000  Uiso   1.00
H191   H     0.41688   0.21740   0.41159   0.00000  Uiso   1.00
H192   H     0.45202   0.15997   0.40771   0.00000  Uiso   1.00
H193   H     0.47507   0.17925   0.36624   0.00000  Uiso   1.00
H194   H     0.42680   0.17060   0.36447   0.00000  Uiso   1.00
H195   H     0.28260   0.08312   0.58841   0.00000  Uiso   1.00
H196   H     0.34003   0.04798   0.59230   0.00000  Uiso   1.00
H197   H     0.32075   0.02493   0.63376   0.00000  Uiso   1.00
H198   H     0.12098   0.07412   0.20291   0.00000  Uiso   1.00
H199   H     0.32940   0.07320   0.63553   0.00000  Uiso   1.00
H200   H     0.28260   0.41688   0.41159   0.00000  Uiso   1.00
H201   H     0.34003   0.45202   0.40771   0.00000  Uiso   1.00
H202   H     0.32075   0.47507   0.36624   0.00000  Uiso   1.00
H203   H     0.32940   0.42680   0.36447   0.00000  Uiso   1.00
H204   H     0.42590   0.12093   0.79704   0.00000  Uiso   1.00
H205   H     0.07412   0.37901   0.20291   0.00000  Uiso   1.00
H206   H     0.37093   0.17590   0.70296   0.00000  Uiso   1.00
H207   H     0.12901   0.32412   0.29709   0.00000  Uiso   1.00
H208   H     0.32410   0.37093   0.70296   0.00000  Uiso   1.00
H209   H     0.37901   0.07412   0.79709   0.00000  Uiso   1.00
H210   H     0.17588   0.12901   0.29709   0.00000  Uiso   1.00
H211   H     0.12907   0.32410   0.70296   0.00000  Uiso   1.00
H212   H     0.37098   0.17588   0.29709   0.00000  Uiso   1.00
H213   H     0.17590   0.12907   0.70296   0.00000  Uiso   1.00
H214   H     0.32412   0.37099   0.29709   0.00000  Uiso   1.00
H215   H     0.37093   0.32410   0.29704   0.00000  Uiso   1.00
H216   H     0.12901   0.17588   0.70291   0.00000  Uiso   1.00
H217   H     0.32410   0.12907   0.29704   0.00000  Uiso   1.00
H218   H     0.17588   0.37098   0.70291   0.00000  Uiso   1.00
H219   H     0.12907   0.17590   0.29704   0.00000  Uiso   1.00
H220   H     0.07410   0.12093   0.20296   0.00000  Uiso   1.00
H221   H     0.37098   0.32412   0.70291   0.00000  Uiso   1.00
H222   H     0.17590   0.37093   0.29704   0.00000  Uiso   1.00
H223   H     0.32412   0.12901   0.70291   0.00000  Uiso   1.00
H224   H     0.21451   0.06516   0.97879   0.00000  Uiso   1.00
H225   H     0.22046   0.08290   0.02752   0.00000  Uiso   1.00
H226   H     0.17676   0.08401   0.00456   0.00000  Uiso   1.00
H227   H     0.28549   0.06516   0.02121   0.00000  Uiso   1.00
H228   H     0.27954   0.08290   0.97248   0.00000  Uiso   1.00
H229   H     0.32324   0.08401   0.99544   0.00000  Uiso   1.00
H230   H     0.43484   0.21451   0.97879   0.00000  Uiso   1.00
H231   H     0.42588   0.37901   0.79709   0.00000  Uiso   1.00
H232   H     0.41710   0.22046   0.02752   0.00000  Uiso   1.00
H233   H     0.41599   0.17676   0.00456   0.00000  Uiso   1.00
H234   H     0.43484   0.28549   0.02121   0.00000  Uiso   1.00
H235   H     0.41710   0.27954   0.97248   0.00000  Uiso   1.00
H236   H     0.41599   0.32324   0.99544   0.00000  Uiso   1.00
H237   H     0.28549   0.43484   0.97879   0.00000  Uiso   1.00
H238   H     0.27954   0.41710   0.02752   0.00000  Uiso   1.00
H239   H     0.32324   0.41599   0.00456   0.00000  Uiso   1.00
H240   H     0.21451   0.43484   0.02121   0.00000  Uiso   1.00
H241   H     0.22046   0.41710   0.97248   0.00000  Uiso   1.00
H242   H     0.37907   0.07410   0.20296   0.00000  Uiso   1.00
H243   H     0.17676   0.41599   0.99544   0.00000  Uiso   1.00
H244   H     0.06516   0.28549   0.97879   0.00000  Uiso   1.00
H245   H     0.08290   0.27954   0.02752   0.00000  Uiso   1.00
H246   H     0.08401   0.32324   0.00456   0.00000  Uiso   1.00
H247   H     0.06516   0.21451   0.02121   0.00000  Uiso   1.00
H248   H     0.08290   0.22046   0.97248   0.00000  Uiso   1.00
H249   H     0.08401   0.17676   0.99544   0.00000  Uiso   1.00
H250   H     0.46451   0.31516   0.47879   0.00000  Uiso   1.00
H251   H     0.47046   0.33290   0.52752   0.00000  Uiso   1.00
H252   H     0.42676   0.33401   0.50456   0.00000  Uiso   1.00
H253   H     0.12099   0.42588   0.79709   0.00000  Uiso   1.00
H254   H     0.03549   0.31516   0.52121   0.00000  Uiso   1.00
H255   H     0.02954   0.33290   0.47248   0.00000  Uiso   1.00
H256   H     0.07324   0.33401   0.49544   0.00000  Uiso   1.00
H257   H     0.18484   0.46451   0.47879   0.00000  Uiso   1.00
H258   H     0.16710   0.47046   0.52752   0.00000  Uiso   1.00
H259   H     0.16599   0.42676   0.50456   0.00000  Uiso   1.00
H260   H     0.18484   0.03549   0.52121   0.00000  Uiso   1.00
H261   H     0.16710   0.02954   0.47248   0.00000  Uiso   1.00
H262   H     0.16599   0.07324   0.49544   0.00000  Uiso   1.00
H263   H     0.03549   0.18484   0.47879   0.00000  Uiso   1.00
H264   H     0.42590   0.37907   0.20296   0.00000  Uiso   1.00
H265   H     0.02954   0.16710   0.52752   0.00000  Uiso   1.00
H266   H     0.07324   0.16599   0.50456   0.00000  Uiso   1.00
H267   H     0.46451   0.18484   0.52121   0.00000  Uiso   1.00
H268   H     0.47046   0.16710   0.47248   0.00000  Uiso   1.00
H269   H     0.42676   0.16599   0.49544   0.00000  Uiso   1.00
H270   H     0.31516   0.03549   0.47879   0.00000  Uiso   1.00
H271   H     0.33290   0.02954   0.52752   0.00000  Uiso   1.00
H272   H     0.33401   0.07324   0.50456   0.00000  Uiso   1.00
H273   H     0.31516   0.46451   0.52121   0.00000  Uiso   1.00
H274   H     0.33290   0.47046   0.47248   0.00000  Uiso   1.00
H275   H     0.07412   0.12099   0.79709   0.00000  Uiso   1.00
H276   H     0.33401   0.42676   0.49544   0.00000  Uiso   1.00
H277   H     0.16688   0.03260   0.08841   0.00000  Uiso   1.00
H278   H     0.20202   0.09003   0.09230   0.00000  Uiso   1.00
H279   H     0.22507   0.07075   0.13376   0.00000  Uiso   1.00
H280   H     0.17680   0.07941   0.13553   0.00000  Uiso   1.00
H281   H     0.33312   0.03260   0.91159   0.00000  Uiso   1.00
H282   H     0.29798   0.09003   0.90771   0.00000  Uiso   1.00
H283   H     0.27493   0.07075   0.86624   0.00000  Uiso   1.00
H284   H     0.32320   0.07941   0.86447   0.00000  Uiso   1.00
H285   H     0.46740   0.16688   0.08841   0.00000  Uiso   1.00
H286   H     0.12093   0.07410   0.79704   0.00000  Uiso   1.00
H287   H     0.40997   0.20202   0.09230   0.00000  Uiso   1.00
H288   H     0.42925   0.22507   0.13376   0.00000  Uiso   1.00
H289   H     0.42059   0.17680   0.13553   0.00000  Uiso   1.00
H290   H     0.46740   0.33312   0.91159   0.00000  Uiso   1.00
H291   H     0.40997   0.29798   0.90771   0.00000  Uiso   1.00
H292   H     0.42925   0.27493   0.86624   0.00000  Uiso   1.00
H293   H     0.42059   0.32320   0.86447   0.00000  Uiso   1.00
H294   H     0.33312   0.46740   0.08841   0.00000  Uiso   1.00
H295   H     0.29798   0.40997   0.09230   0.00000  Uiso   1.00
H296   H     0.27493   0.42925   0.13376   0.00000  Uiso   1.00
N297   N     0.19184   0.03417   0.10207   0.00000  Uiso   1.00
N298   N     0.05816   0.28417   0.39793   0.00000  Uiso   1.00
N299   N     0.21583   0.44184   0.60207   0.00000  Uiso   1.00
N300   N     0.21583   0.05816   0.39793   0.00000  Uiso   1.00
N301   N     0.05816   0.21583   0.60207   0.00000  Uiso   1.00
N302   N     0.44184   0.21583   0.39793   0.00000  Uiso   1.00
N303   N     0.28417   0.05816   0.60207   0.00000  Uiso   1.00
N304   N     0.28417   0.44184   0.39793   0.00000  Uiso   1.00
N305   N     0.30816   0.03417   0.89793   0.00000  Uiso   1.00
N306   N     0.46583   0.19184   0.10207   0.00000  Uiso   1.00
N307   N     0.46583   0.30816   0.89793   0.00000  Uiso   1.00
N308   N     0.30816   0.46583   0.10207   0.00000  Uiso   1.00
N309   N     0.19184   0.46583   0.89793   0.00000  Uiso   1.00
N310   N     0.03417   0.30816   0.10207   0.00000  Uiso   1.00
N311   N     0.03417   0.19184   0.89793   0.00000  Uiso   1.00
N312   N     0.44184   0.28417   0.60207   0.00000  Uiso   1.00
O313   O     0.25000   0.00000   0.25000   0.00000  Uiso   1.00
O314   O     0.25000   0.46964   0.66317   0.00000  Uiso   1.00
O315   O     0.46964   0.25000   0.33683   0.00000  Uiso   1.00
O316   O     0.03036   0.25000   0.66317   0.00000  Uiso   1.00
O317   O     0.00000   0.21964   0.83683   0.00000  Uiso   1.00
O318   O     0.00000   0.28036   0.16317   0.00000  Uiso   1.00
O319   O     0.28036   0.00000   0.83683   0.00000  Uiso   1.00
O320   O     0.21964   0.00000   0.16317   0.00000  Uiso   1.00
O321   O     0.00000   0.28036   0.83683   0.00000  Uiso   1.00
O322   O    -0.00000   0.21964   0.16317   0.00000  Uiso   1.00
O323   O     0.21964   0.00000   0.83683   0.00000  Uiso   1.00
O324   O     0.25000   0.00000   0.75000   0.00000  Uiso   1.00
O325   O     0.28036   0.00000   0.16317   0.00000  Uiso   1.00
O326   O     0.20725   0.07307   0.27282   0.00000  Uiso   1.00
O327   O     0.29274   0.42693   0.72718   0.00000  Uiso   1.00
O328   O     0.42693   0.20726   0.27282   0.00000  Uiso   1.00
O329   O     0.07307   0.29274   0.72718   0.00000  Uiso   1.00
O330   O     0.29274   0.42693   0.27282   0.00000  Uiso   1.00
O331   O     0.20725   0.07307   0.72718   0.00000  Uiso   1.00
O332   O     0.07307   0.29274   0.27282   0.00000  Uiso   1.00
O333   O     0.42693   0.20726   0.72718   0.00000  Uiso   1.00
O334   O     0.20725   0.42693   0.72718   0.00000  Uiso   1.00
O335   O    -0.00000   0.25000   0.25000   0.00000  Uiso   1.00
O336   O     0.29274   0.07307   0.27282   0.00000  Uiso   1.00
O337   O     0.42693   0.29275   0.72718   0.00000  Uiso   1.00
O338   O     0.07307   0.20725   0.27282   0.00000  Uiso   1.00
O339   O     0.29274   0.07307   0.72718   0.00000  Uiso   1.00
O340   O     0.20725   0.42693   0.27282   0.00000  Uiso   1.00
O341   O     0.07307   0.20725   0.72718   0.00000  Uiso   1.00
O342   O     0.42693   0.29275   0.27282   0.00000  Uiso   1.00
O343   O     0.45725   0.32307   0.77282   0.00000  Uiso   1.00
O344   O     0.04274   0.17693   0.22718   0.00000  Uiso   1.00
O345   O     0.17693   0.45725   0.77282   0.00000  Uiso   1.00
O346   O     0.00000   0.25000   0.75000   0.00000  Uiso   1.00
O347   O     0.32307   0.04275   0.22718   0.00000  Uiso   1.00
O348   O     0.04274   0.17693   0.77282   0.00000  Uiso   1.00
O349   O     0.45725   0.32307   0.22718   0.00000  Uiso   1.00
O350   O     0.32307   0.04275   0.77282   0.00000  Uiso   1.00
O351   O     0.17693   0.45725   0.22718   0.00000  Uiso   1.00
O352   O     0.45725   0.17693   0.22718   0.00000  Uiso   1.00
O353   O     0.04274   0.32307   0.77282   0.00000  Uiso   1.00
O354   O     0.17693   0.04275   0.22718   0.00000  Uiso   1.00
O355   O     0.32307   0.45726   0.77282   0.00000  Uiso   1.00
O356   O     0.04274   0.32307   0.22718   0.00000  Uiso   1.00
O357   O     0.25000   0.46964   0.33683   0.00000  Uiso   1.00
O358   O     0.45725   0.17693   0.77282   0.00000  Uiso   1.00
O359   O     0.32307   0.45726   0.22718   0.00000  Uiso   1.00
O360   O     0.17693   0.04275   0.77282   0.00000  Uiso   1.00
O361   O     0.19220   0.03276   0.02190   0.00000  Uiso   1.00
O362   O     0.30780   0.03276   0.97810   0.00000  Uiso   1.00
O363   O     0.46724   0.19220   0.02190   0.00000  Uiso   1.00
O364   O     0.46724   0.30780   0.97810   0.00000  Uiso   1.00
O365   O     0.30780   0.46724   0.02190   0.00000  Uiso   1.00
O366   O     0.19220   0.46724   0.97810   0.00000  Uiso   1.00
O367   O     0.03276   0.30780   0.02190   0.00000  Uiso   1.00
O368   O     0.25000   0.03036   0.66317   0.00000  Uiso   1.00
O369   O     0.03276   0.19220   0.97810   0.00000  Uiso   1.00
O370   O     0.44220   0.28276   0.52190   0.00000  Uiso   1.00
O371   O     0.05780   0.28276   0.47810   0.00000  Uiso   1.00
O372   O     0.21724   0.44220   0.52190   0.00000  Uiso   1.00
O373   O     0.21724   0.05780   0.47810   0.00000  Uiso   1.00
O374   O     0.05780   0.21724   0.52190   0.00000  Uiso   1.00
O375   O     0.44220   0.21724   0.47810   0.00000  Uiso   1.00
O376   O     0.28276   0.05780   0.52190   0.00000  Uiso   1.00
O377   O     0.28276   0.44220   0.47810   0.00000  Uiso   1.00
O378   O     0.03036   0.25000   0.33683   0.00000  Uiso   1.00
O379   O     0.46964   0.25000   0.66317   0.00000  Uiso   1.00
O380   O     0.25000   0.03036   0.33683   0.00000  Uiso   1.00
Zn381  Zn    0.20660   0.00000   0.21760   0.00000  Uiso   1.00
Zn382  Zn    0.04340   0.25000   0.28240   0.00000  Uiso   1.00
Zn383  Zn    0.25000   0.45660   0.71760   0.00000  Uiso   1.00
Zn384  Zn    0.25000   0.04340   0.28240   0.00000  Uiso   1.00
Zn385  Zn    0.04340   0.25000   0.71760   0.00000  Uiso   1.00
Zn386  Zn    0.45660   0.25000   0.28240   0.00000  Uiso   1.00
Zn387  Zn    0.25000   0.04340   0.71760   0.00000  Uiso   1.00
Zn388  Zn    0.25000   0.45660   0.28240   0.00000  Uiso   1.00
Zn389  Zn    0.29340   0.00000   0.78240   0.00000  Uiso   1.00
Zn390  Zn    0.00000   0.20660   0.21760   0.00000  Uiso   1.00
Zn391  Zn   -0.00000   0.29340   0.78240   0.00000  Uiso   1.00
Zn392  Zn    0.29340   0.00000   0.21760   0.00000  Uiso   1.00
Zn393  Zn    0.20660   0.00000   0.78240   0.00000  Uiso   1.00
Zn394  Zn    0.00000   0.29340   0.21760   0.00000  Uiso   1.00
Zn395  Zn    0.00000   0.20660   0.78240   0.00000  Uiso   1.00
Zn396  Zn    0.45660   0.25000   0.71760   0.00000  Uiso   1.00
C397   C     0.72143   0.01734   0.04139   0.00000  Uiso   1.00
C398   C     0.52857   0.26734   0.45861   0.00000  Uiso   1.00
C399   C     0.84814   0.40186   0.75000   0.00000  Uiso   1.00
C400   C     0.90187   0.15187   0.25000   0.00000  Uiso   1.00
C401   C     0.59814   0.34814   0.75000   0.00000  Uiso   1.00
C402   C     0.84813   0.40187   0.25000   0.00000  Uiso   1.00
C403   C     0.65186   0.09814   0.75000   0.00000  Uiso   1.00
C404   C     0.59812   0.15187   0.75000   0.00000  Uiso   1.00
C405   C     0.90186   0.34814   0.25000   0.00000  Uiso   1.00
C406   C     0.65187   0.40187   0.75000   0.00000  Uiso   1.00
C407   C     0.84814   0.09814   0.25000   0.00000  Uiso   1.00
C408   C     0.90187   0.34813   0.75000   0.00000  Uiso   1.00
C409   C     0.73266   0.47143   0.54139   0.00000  Uiso   1.00
C410   C     0.59814   0.15186   0.25000   0.00000  Uiso   1.00
C411   C     0.84813   0.09813   0.75000   0.00000  Uiso   1.00
C412   C     0.65186   0.40186   0.25000   0.00000  Uiso   1.00
C413   C     0.75000   0.00000   0.10226   0.00000  Uiso   1.00
C414   C     0.75000   0.00000   0.89774   0.00000  Uiso   1.00
C415   C     0.50000   0.25000   0.10226   0.00000  Uiso   1.00
C416   C     0.50000   0.25000   0.89774   0.00000  Uiso   1.00
C417   C     0.50000   0.25000   0.60226   0.00000  Uiso   1.00
C418   C     0.50000   0.25000   0.39774   0.00000  Uiso   1.00
C419   C     0.75000  -0.00000   0.60226   0.00000  Uiso   1.00
C420   C     0.73266   0.02857   0.45861   0.00000  Uiso   1.00
C421   C     0.75000   0.00000   0.39774   0.00000  Uiso   1.00
C422   C     0.70197   0.06756   0.00782   0.00000  Uiso   1.00
C423   C     0.79803   0.06756   0.99218   0.00000  Uiso   1.00
C424   C     0.93244   0.20197   0.00782   0.00000  Uiso   1.00
C425   C     0.93244   0.29803   0.99218   0.00000  Uiso   1.00
C426   C     0.79803   0.43244   0.00782   0.00000  Uiso   1.00
C427   C     0.70197   0.43244   0.99218   0.00000  Uiso   1.00
C428   C     0.56756   0.29803   0.00782   0.00000  Uiso   1.00
C429   C     0.56756   0.20197   0.99218   0.00000  Uiso   1.00
C430   C     0.95197   0.31756   0.50783   0.00000  Uiso   1.00
C431   C     0.52857   0.23266   0.54139   0.00000  Uiso   1.00
C432   C     0.54803   0.31756   0.49218   0.00000  Uiso   1.00
C433   C     0.68244   0.45197   0.50783   0.00000  Uiso   1.00
C434   C     0.68244   0.04803   0.49218   0.00000  Uiso   1.00
C435   C     0.54803   0.18244   0.50783   0.00000  Uiso   1.00
C436   C     0.95197   0.18244   0.49218   0.00000  Uiso   1.00
C437   C     0.81756   0.04803   0.50783   0.00000  Uiso   1.00
C438   C     0.81756   0.45197   0.49218   0.00000  Uiso   1.00
C439   C     0.69951   0.07043   0.11655   0.00000  Uiso   1.00
C440   C     0.80049   0.07043   0.88345   0.00000  Uiso   1.00
C441   C     0.92957   0.19951   0.11655   0.00000  Uiso   1.00
C442   C     0.97143   0.23266   0.45861   0.00000  Uiso   1.00
C443   C     0.92957   0.30049   0.88345   0.00000  Uiso   1.00
C444   C     0.80049   0.42957   0.11655   0.00000  Uiso   1.00
C445   C     0.69951   0.42957   0.88345   0.00000  Uiso   1.00
C446   C     0.57043   0.30049   0.11655   0.00000  Uiso   1.00
C447   C     0.57043   0.19951   0.88345   0.00000  Uiso   1.00
C448   C     0.94951   0.32043   0.61655   0.00000  Uiso   1.00
C449   C     0.55049   0.32043   0.38345   0.00000  Uiso   1.00
C450   C     0.67957   0.44951   0.61655   0.00000  Uiso   1.00
C451   C     0.67957   0.05049   0.38345   0.00000  Uiso   1.00
C452   C     0.55049   0.17957   0.61655   0.00000  Uiso   1.00
C453   C     0.76734   0.02857   0.54139   0.00000  Uiso   1.00
C454   C     0.94951   0.17957   0.38345   0.00000  Uiso   1.00
C455   C     0.82043   0.05049   0.61655   0.00000  Uiso   1.00
C456   C     0.82043   0.44951   0.38345   0.00000  Uiso   1.00
C457   C     0.76734   0.47143   0.45861   0.00000  Uiso   1.00
C458   C     0.72121   0.01711   0.08187   0.00000  Uiso   1.00
C459   C     0.77879   0.01711   0.91813   0.00000  Uiso   1.00
C460   C     0.98289   0.22121   0.08187   0.00000  Uiso   1.00
C461   C     0.77857   0.01734   0.95861   0.00000  Uiso   1.00
C462   C     0.98289   0.27879   0.91813   0.00000  Uiso   1.00
C463   C     0.77879   0.48289   0.08187   0.00000  Uiso   1.00
C464   C     0.72121   0.48289   0.91813   0.00000  Uiso   1.00
C465   C     0.51711   0.27879   0.08187   0.00000  Uiso   1.00
C466   C     0.51711   0.22121   0.91813   0.00000  Uiso   1.00
C467   C     0.97121   0.26711   0.58187   0.00000  Uiso   1.00
C468   C     0.52879   0.26711   0.41813   0.00000  Uiso   1.00
C469   C     0.73289   0.47121   0.58187   0.00000  Uiso   1.00
C470   C     0.73289   0.02879   0.41813   0.00000  Uiso   1.00
C471   C     0.52879   0.23289   0.58187   0.00000  Uiso   1.00
C472   C     0.98266   0.22143   0.04139   0.00000  Uiso   1.00
C473   C     0.97121   0.23289   0.41813   0.00000  Uiso   1.00
C474   C     0.76711   0.02879   0.58187   0.00000  Uiso   1.00
C475   C     0.76711   0.47121   0.41813   0.00000  Uiso   1.00
C476   C     0.75000   0.00000   0.02121   0.00000  Uiso   1.00
C477   C     0.75000   0.00000   0.97879   0.00000  Uiso   1.00
C478   C     0.50000   0.25000   0.02121   0.00000  Uiso   1.00
C479   C     0.50000   0.25000   0.97879   0.00000  Uiso   1.00
C480   C     0.50000   0.25000   0.52121   0.00000  Uiso   1.00
C481   C     0.50000   0.25000   0.47879   0.00000  Uiso   1.00
C482   C     0.75000   0.00000   0.52121   0.00000  Uiso   1.00
C483   C     0.98266   0.27857   0.95861   0.00000  Uiso   1.00
C484   C     0.75000  -0.00000   0.47879   0.00000  Uiso   1.00
C485   C     0.75000   0.00000   0.35522   0.00000  Uiso   1.00
C486   C     0.75000  -0.00000   0.64478   0.00000  Uiso   1.00
C487   C     0.50000   0.25000   0.35522   0.00000  Uiso   1.00
C488   C     0.50000   0.25000   0.64478   0.00000  Uiso   1.00
C489   C     0.50000   0.25000   0.85522   0.00000  Uiso   1.00
C490   C     0.50000   0.25000   0.14478   0.00000  Uiso   1.00
C491   C     0.75000   0.00000   0.85522   0.00000  Uiso   1.00
C492   C     0.75000   0.00000   0.14478   0.00000  Uiso   1.00
C493   C     0.67994   0.07006   0.25000   0.00000  Uiso   1.00
C494   C     0.77857   0.48266   0.04139   0.00000  Uiso   1.00
C495   C     0.82007   0.42993   0.75000   0.00000  Uiso   1.00
C496   C     0.92994   0.17994   0.25000   0.00000  Uiso   1.00
C497   C     0.57007   0.32007   0.75000   0.00000  Uiso   1.00
C498   C     0.82006   0.42994   0.25000   0.00000  Uiso   1.00
C499   C     0.67993   0.07007   0.75000   0.00000  Uiso   1.00
C500   C     0.57006   0.32006   0.25000   0.00000  Uiso   1.00
C501   C     0.92993   0.17993   0.75000   0.00000  Uiso   1.00
C502   C     0.67994   0.42994   0.75000   0.00000  Uiso   1.00
C503   C     0.82007   0.07007   0.25000   0.00000  Uiso   1.00
C504   C     0.92994   0.32006   0.75000   0.00000  Uiso   1.00
C505   C     0.72143   0.48266   0.95861   0.00000  Uiso   1.00
C506   C     0.57007   0.17993   0.25000   0.00000  Uiso   1.00
C507   C     0.82006   0.07006   0.75000   0.00000  Uiso   1.00
C508   C     0.67993   0.42993   0.25000   0.00000  Uiso   1.00
C509   C     0.57006   0.17994   0.75000   0.00000  Uiso   1.00
C510   C     0.92993   0.32007   0.25000   0.00000  Uiso   1.00
C511   C     0.62291   0.40380   0.22363   0.00000  Uiso   1.00
C512   C     0.87705   0.09619   0.77639   0.00000  Uiso   1.00
C513   C     0.59620   0.12292   0.22363   0.00000  Uiso   1.00
C514   C     0.90381   0.37705   0.77639   0.00000  Uiso   1.00
C515   C     0.87708   0.09620   0.22363   0.00000  Uiso   1.00
C516   C     0.51734   0.27857   0.04139   0.00000  Uiso   1.00
C517   C     0.62295   0.40381   0.77639   0.00000  Uiso   1.00
C518   C     0.90380   0.37709   0.22363   0.00000  Uiso   1.00
C519   C     0.59619   0.12295   0.77639   0.00000  Uiso   1.00
C520   C     0.62291   0.09620   0.77637   0.00000  Uiso   1.00
C521   C     0.87705   0.40381   0.22361   0.00000  Uiso   1.00
C522   C     0.59620   0.37708   0.77637   0.00000  Uiso   1.00
C523   C     0.90381   0.12295   0.22361   0.00000  Uiso   1.00
C524   C     0.87708   0.40380   0.77637   0.00000  Uiso   1.00
C525   C     0.62295   0.09619   0.22361   0.00000  Uiso   1.00
C526   C     0.90380   0.12292   0.77637   0.00000  Uiso   1.00
C527   C     0.51734   0.22143   0.95861   0.00000  Uiso   1.00
C528   C     0.59619   0.37705   0.22361   0.00000  Uiso   1.00
C529   C     0.87291   0.15380   0.72363   0.00000  Uiso   1.00
C530   C     0.62705   0.34619   0.27639   0.00000  Uiso   1.00
C531   C     0.84620   0.37292   0.72363   0.00000  Uiso   1.00
C532   C     0.65381   0.12705   0.27639   0.00000  Uiso   1.00
C533   C     0.62708   0.34620   0.72363   0.00000  Uiso   1.00
C534   C     0.87295   0.15381   0.27639   0.00000  Uiso   1.00
C535   C     0.65380   0.12709   0.72363   0.00000  Uiso   1.00
C536   C     0.84619   0.37295   0.27639   0.00000  Uiso   1.00
C537   C     0.87291   0.34620   0.27637   0.00000  Uiso   1.00
C538   C     0.97143   0.26734   0.54139   0.00000  Uiso   1.00
C539   C     0.62705   0.15381   0.72361   0.00000  Uiso   1.00
C540   C     0.84620   0.12709   0.27637   0.00000  Uiso   1.00
C541   C     0.65381   0.37295   0.72361   0.00000  Uiso   1.00
C542   C     0.62708   0.15380   0.27637   0.00000  Uiso   1.00
C543   C     0.87295   0.34619   0.72361   0.00000  Uiso   1.00
C544   C     0.65380   0.37291   0.27637   0.00000  Uiso   1.00
C545   C     0.84619   0.12705   0.72361   0.00000  Uiso   1.00
C546   C     0.59812   0.34813   0.25000   0.00000  Uiso   1.00
C547   C     0.90186   0.15186   0.75000   0.00000  Uiso   1.00
C548   C     0.65187   0.09813   0.25000   0.00000  Uiso   1.00
H549   H     0.62093   0.42590   0.20296   0.00000  Uiso   1.00
H550   H     0.87901   0.42588   0.20291   0.00000  Uiso   1.00
H551   H     0.82320   0.42060   0.13553   0.00000  Uiso   1.00
H552   H     0.66688   0.46740   0.91159   0.00000  Uiso   1.00
H553   H     0.70202   0.40997   0.90771   0.00000  Uiso   1.00
H554   H     0.72507   0.42925   0.86624   0.00000  Uiso   1.00
H555   H     0.67680   0.42059   0.86447   0.00000  Uiso   1.00
H556   H     0.53260   0.33312   0.08841   0.00000  Uiso   1.00
H557   H     0.59003   0.29798   0.09230   0.00000  Uiso   1.00
H558   H     0.57075   0.27493   0.13376   0.00000  Uiso   1.00
H559   H     0.57940   0.32320   0.13553   0.00000  Uiso   1.00
H560   H     0.53260   0.16688   0.91159   0.00000  Uiso   1.00
H561   H     0.57410   0.37907   0.79704   0.00000  Uiso   1.00
H562   H     0.59003   0.20202   0.90771   0.00000  Uiso   1.00
H563   H     0.57075   0.22507   0.86624   0.00000  Uiso   1.00
H564   H     0.57940   0.17680   0.86447   0.00000  Uiso   1.00
H565   H     0.91688   0.28260   0.58841   0.00000  Uiso   1.00
H566   H     0.95202   0.34003   0.59230   0.00000  Uiso   1.00
H567   H     0.97507   0.32075   0.63376   0.00000  Uiso   1.00
H568   H     0.92680   0.32941   0.63553   0.00000  Uiso   1.00
H569   H     0.58312   0.28260   0.41159   0.00000  Uiso   1.00
H570   H     0.54798   0.34003   0.40771   0.00000  Uiso   1.00
H571   H     0.52493   0.32075   0.36624   0.00000  Uiso   1.00
H572   H     0.92588   0.12099   0.20291   0.00000  Uiso   1.00
H573   H     0.57320   0.32940   0.36447   0.00000  Uiso   1.00
H574   H     0.71740   0.41688   0.58841   0.00000  Uiso   1.00
H575   H     0.65997   0.45202   0.59230   0.00000  Uiso   1.00
H576   H     0.67925   0.47507   0.63376   0.00000  Uiso   1.00
H577   H     0.67059   0.42680   0.63553   0.00000  Uiso   1.00
H578   H     0.71740   0.08312   0.41159   0.00000  Uiso   1.00
H579   H     0.65997   0.04798   0.40771   0.00000  Uiso   1.00
H580   H     0.67925   0.02493   0.36624   0.00000  Uiso   1.00
H581   H     0.67059   0.07320   0.36447   0.00000  Uiso   1.00
H582   H     0.58312   0.21740   0.58841   0.00000  Uiso   1.00
H583   H     0.87907   0.42590   0.79704   0.00000  Uiso   1.00
H584   H     0.54798   0.15997   0.59230   0.00000  Uiso   1.00
H585   H     0.52493   0.17925   0.63376   0.00000  Uiso   1.00
H586   H     0.57320   0.17059   0.63553   0.00000  Uiso   1.00
H587   H     0.91688   0.21740   0.41159   0.00000  Uiso   1.00
H588   H     0.95202   0.15997   0.40771   0.00000  Uiso   1.00
H589   H     0.97507   0.17925   0.36624   0.00000  Uiso   1.00
H590   H     0.92680   0.17060   0.36447   0.00000  Uiso   1.00
H591   H     0.78260   0.08312   0.58841   0.00000  Uiso   1.00
H592   H     0.84003   0.04798   0.59230   0.00000  Uiso   1.00
H593   H     0.82075   0.02493   0.63376   0.00000  Uiso   1.00
H594   H     0.62098   0.07412   0.20291   0.00000  Uiso   1.00
H595   H     0.82940   0.07320   0.63553   0.00000  Uiso   1.00
H596   H     0.78260   0.41688   0.41159   0.00000  Uiso   1.00
H597   H     0.84003   0.45202   0.40771   0.00000  Uiso   1.00
H598   H     0.82075   0.47507   0.36624   0.00000  Uiso   1.00
H599   H     0.82940   0.42680   0.36447   0.00000  Uiso   1.00
H600   H     0.92590   0.12093   0.79704   0.00000  Uiso   1.00
H601   H     0.57412   0.37901   0.20291   0.00000  Uiso   1.00
H602   H     0.87093   0.17590   0.70296   0.00000  Uiso   1.00
H603   H     0.62901   0.32412   0.29709   0.00000  Uiso   1.00
H604   H     0.82410   0.37093   0.70296   0.00000  Uiso   1.00
H605   H     0.87901   0.07412   0.79709   0.00000  Uiso   1.00
H606   H     0.67588   0.12901   0.29709   0.00000  Uiso   1.00
H607   H     0.62907   0.32410   0.70296   0.00000  Uiso   1.00
H608   H     0.87098   0.17588   0.29709   0.00000  Uiso   1.00
H609   H     0.67590   0.12907   0.70296   0.00000  Uiso   1.00
H610   H     0.82412   0.37099   0.29709   0.00000  Uiso   1.00
H611   H     0.87093   0.32410   0.29704   0.00000  Uiso   1.00
H612   H     0.62901   0.17588   0.70291   0.00000  Uiso   1.00
H613   H     0.82410   0.12907   0.29704   0.00000  Uiso   1.00
H614   H     0.67588   0.37098   0.70291   0.00000  Uiso   1.00
H615   H     0.62907   0.17590   0.29704   0.00000  Uiso   1.00
H616   H     0.57410   0.12093   0.20296   0.00000  Uiso   1.00
H617   H     0.87098   0.32412   0.70291   0.00000  Uiso   1.00
H618   H     0.67590   0.37093   0.29704   0.00000  Uiso   1.00
H619   H     0.82412   0.12901   0.70291   0.00000  Uiso   1.00
H620   H     0.71451   0.06516   0.97879   0.00000  Uiso   1.00
H621   H     0.72046   0.08290   0.02752   0.00000  Uiso   1.00
H622   H     0.67676   0.08401   0.00456   0.00000  Uiso   1.00
H623   H     0.78549   0.06516   0.02121   0.00000  Uiso   1.00
H624   H     0.77954   0.08290   0.97248   0.00000  Uiso   1.00
H625   H     0.82324   0.08401   0.99544   0.00000  Uiso   1.00
H626   H     0.93484   0.21451   0.97879   0.00000  Uiso   1.00
H627   H     0.92588   0.37901   0.79709   0.00000  Uiso   1.00
H628   H     0.91710   0.22046   0.02752   0.00000  Uiso   1.00
H629   H     0.91599   0.17676   0.00456   0.00000  Uiso   1.00
H630   H     0.93484   0.28549   0.02121   0.00000  Uiso   1.00
H631   H     0.91710   0.27954   0.97248   0.00000  Uiso   1.00
H632   H     0.91599   0.32324   0.99544   0.00000  Uiso   1.00
H633   H     0.78549   0.43484   0.97879   0.00000  Uiso   1.00
H634   H     0.77954   0.41710   0.02752   0.00000  Uiso   1.00
H635   H     0.82324   0.41599   0.00456   0.00000  Uiso   1.00
H636   H     0.71451   0.43484   0.02121   0.00000  Uiso   1.00
H637   H     0.72046   0.41710   0.97248   0.00000  Uiso   1.00
H638   H     0.87907   0.07410   0.20296   0.00000  Uiso   1.00
H639   H     0.67676   0.41599   0.99544   0.00000  Uiso   1.00
H640   H     0.56516   0.28549   0.97879   0.00000  Uiso   1.00
H641   H     0.58290   0.27954   0.02752   0.00000  Uiso   1.00
H642   H     0.58401   0.32324   0.00456   0.00000  Uiso   1.00
H643   H     0.56516   0.21451   0.02121   0.00000  Uiso   1.00
H644   H     0.58290   0.22046   0.97248   0.00000  Uiso   1.00
H645   H     0.58401   0.17676   0.99544   0.00000  Uiso   1.00
H646   H     0.96451   0.31516   0.47879   0.00000  Uiso   1.00
H647   H     0.97046   0.33290   0.52752   0.00000  Uiso   1.00
H648   H     0.92676   0.33401   0.50456   0.00000  Uiso   1.00
H649   H     0.62099   0.42588   0.79709   0.00000  Uiso   1.00
H650   H     0.53549   0.31516   0.52121   0.00000  Uiso   1.00
H651   H     0.52954   0.33290   0.47248   0.00000  Uiso   1.00
H652   H     0.57324   0.33401   0.49544   0.00000  Uiso   1.00
H653   H     0.68484   0.46451   0.47879   0.00000  Uiso   1.00
H654   H     0.66710   0.47046   0.52752   0.00000  Uiso   1.00
H655   H     0.66599   0.42676   0.50456   0.00000  Uiso   1.00
H656   H     0.68484   0.03549   0.52121   0.00000  Uiso   1.00
H657   H     0.66710   0.02954   0.47248   0.00000  Uiso   1.00
H658   H     0.66599   0.07324   0.49544   0.00000  Uiso   1.00
H659   H     0.53549   0.18484   0.47879   0.00000  Uiso   1.00
H660   H     0.92590   0.37907   0.20296   0.00000  Uiso   1.00
H661   H     0.52954   0.16710   0.52752   0.00000  Uiso   1.00
H662   H     0.57324   0.16599   0.50456   0.00000  Uiso   1.00
H663   H     0.96451   0.18484   0.52121   0.00000  Uiso   1.00
H664   H     0.97046   0.16710   0.47248   0.00000  Uiso   1.00
H665   H     0.92676   0.16599   0.49544   0.00000  Uiso   1.00
H666   H     0.81516   0.03549   0.47879   0.00000  Uiso   1.00
H667   H     0.83290   0.02954   0.52752   0.00000  Uiso   1.00
H668   H     0.83401   0.07324   0.50456   0.00000  Uiso   1.00
H669   H     0.81516   0.46451   0.52121   0.00000  Uiso   1.00
H670   H     0.83290   0.47046   0.47248   0.00000  Uiso   1.00
H671   H     0.57412   0.12099   0.79709   0.00000  Uiso   1.00
H672   H     0.83401   0.42676   0.49544   0.00000  Uiso   1.00
H673   H     0.66688   0.03260   0.08841   0.00000  Uiso   1.00
H674   H     0.70202   0.09003   0.09230   0.00000  Uiso   1.00
H675   H     0.72507   0.07075   0.13376   0.00000  Uiso   1.00
H676   H     0.67680   0.07941   0.13553   0.00000  Uiso   1.00
H677   H     0.83312   0.03260   0.91159   0.00000  Uiso   1.00
H678   H     0.79798   0.09003   0.90771   0.00000  Uiso   1.00
H679   H     0.77493   0.07075   0.86624   0.00000  Uiso   1.00
H680   H     0.82320   0.07941   0.86447   0.00000  Uiso   1.00
H681   H     0.96740   0.16688   0.08841   0.00000  Uiso   1.00
H682   H     0.62093   0.07410   0.79704   0.00000  Uiso   1.00
H683   H     0.90997   0.20202   0.09230   0.00000  Uiso   1.00
H684   H     0.92925   0.22507   0.13376   0.00000  Uiso   1.00
H685   H     0.92059   0.17680   0.13553   0.00000  Uiso   1.00
H686   H     0.96740   0.33312   0.91159   0.00000  Uiso   1.00
H687   H     0.90997   0.29798   0.90771   0.00000  Uiso   1.00
H688   H     0.92925   0.27493   0.86624   0.00000  Uiso   1.00
H689   H     0.92059   0.32320   0.86447   0.00000  Uiso   1.00
H690   H     0.83312   0.46740   0.08841   0.00000  Uiso   1.00
H691   H     0.79798   0.40997   0.09230   0.00000  Uiso   1.00
H692   H     0.77493   0.42925   0.13376   0.00000  Uiso   1.00
N693   N     0.69184   0.03417   0.10207   0.00000  Uiso   1.00
N694   N     0.55816   0.28417   0.39793   0.00000  Uiso   1.00
N695   N     0.71583   0.44184   0.60207   0.00000  Uiso   1.00
N696   N     0.71583   0.05816   0.39793   0.00000  Uiso   1.00
N697   N     0.55816   0.21583   0.60207   0.00000  Uiso   1.00
N698   N     0.94184   0.21583   0.39793   0.00000  Uiso   1.00
N699   N     0.78417   0.05816   0.60207   0.00000  Uiso   1.00
N700   N     0.78417   0.44184   0.39793   0.00000  Uiso   1.00
N701   N     0.80816   0.03417   0.89793   0.00000  Uiso   1.00
N702   N     0.96583   0.19184   0.10207   0.00000  Uiso   1.00
N703   N     0.96583   0.30816   0.89793   0.00000  Uiso   1.00
N704   N     0.80816   0.46583   0.10207   0.00000  Uiso   1.00
N705   N     0.69184   0.46583   0.89793   0.00000  Uiso   1.00
N706   N     0.53417   0.30816   0.10207   0.00000  Uiso   1.00
N707   N     0.53417   0.19184   0.89793   0.00000  Uiso   1.00
N708   N     0.94184   0.28417   0.60207   0.00000  Uiso   1.00
O709   O     0.75000   0.00000   0.25000   0.00000  Uiso   1.00
O710   O     0.75000   0.46964   0.66317   0.00000  Uiso   1.00
O711   O     0.96964   0.25000   0.33683   0.00000  Uiso   1.00
O712   O     0.53036   0.25000   0.66317   0.00000  Uiso   1.00
O713   O     0.50000   0.21964   0.83683   0.00000  Uiso   1.00
O714   O     0.50000   0.28036   0.16317   0.00000  Uiso   1.00
O715   O     0.78036   0.00000   0.83683   0.00000  Uiso   1.00
O716   O     0.71964   0.00000   0.16317   0.00000  Uiso   1.00
O717   O     0.50000   0.28036   0.83683   0.00000  Uiso   1.00
O718   O     0.50000   0.21964   0.16317   0.00000  Uiso   1.00
O719   O     0.71964   0.00000   0.83683   0.00000  Uiso   1.00
O720   O     0.75000   0.00000   0.75000   0.00000  Uiso   1.00
O721   O     0.78036   0.00000   0.16317   0.00000  Uiso   1.00
O722   O     0.70725   0.07307   0.27282   0.00000  Uiso   1.00
O723   O     0.79274   0.42693   0.72718   0.00000  Uiso   1.00
O724   O     0.92693   0.20726   0.27282   0.00000  Uiso   1.00
O725   O     0.57307   0.29274   0.72718   0.00000  Uiso   1.00
O726   O     0.79274   0.42693   0.27282   0.00000  Uiso   1.00
O727   O     0.70725   0.07307   0.72718   0.00000  Uiso   1.00
O728   O     0.57307   0.29274   0.27282   0.00000  Uiso   1.00
O729   O     0.92693   0.20726   0.72718   0.00000  Uiso   1.00
O730   O     0.70725   0.42693   0.72718   0.00000  Uiso   1.00
O731   O     0.50000   0.25000   0.25000   0.00000  Uiso   1.00
O732   O     0.79274   0.07307   0.27282   0.00000  Uiso   1.00
O733   O     0.92693   0.29275   0.72718   0.00000  Uiso   1.00
O734   O     0.57307   0.20725   0.27282   0.00000  Uiso   1.00
O735   O     0.79274   0.07307   0.72718   0.00000  Uiso   1.00
O736   O     0.70725   0.42693   0.27282   0.00000  Uiso   1.00
O737   O     0.57307   0.20725   0.72718   0.00000  Uiso   1.00
O738   O     0.92693   0.29275   0.27282   0.00000  Uiso   1.00
O739   O     0.95725   0.32307   0.77282   0.00000  Uiso   1.00
O740   O     0.54274   0.17693   0.22718   0.00000  Uiso   1.00
O741   O     0.67693   0.45725   0.77282   0.00000  Uiso   1.00
O742   O     0.50000   0.25000   0.75000   0.00000  Uiso   1.00
O743   O     0.82307   0.04275   0.22718   0.00000  Uiso   1.00
O744   O     0.54274   0.17693   0.77282   0.00000  Uiso   1.00
O745   O     0.95725   0.32307   0.22718   0.00000  Uiso   1.00
O746   O     0.82307   0.04275   0.77282   0.00000  Uiso   1.00
O747   O     0.67693   0.45725   0.22718   0.00000  Uiso   1.00
O748   O     0.95725   0.17693   0.22718   0.00000  Uiso   1.00
O749   O     0.54274   0.32307   0.77282   0.00000  Uiso   1.00
O750   O     0.67693   0.04275   0.22718   0.00000  Uiso   1.00
O751   O     0.82307   0.45726   0.77282   0.00000  Uiso   1.00
O752   O     0.54274   0.32307   0.22718   0.00000  Uiso   1.00
O753   O     0.75000   0.46964   0.33683   0.00000  Uiso   1.00
O754   O     0.95725   0.17693   0.77282   0.00000  Uiso   1.00
O755   O     0.82307   0.45726   0.22718   0.00000  Uiso   1.00
O756   O     0.67693   0.04275   0.77282   0.00000  Uiso   1.00
O757   O     0.69220   0.03276   0.02190   0.00000  Uiso   1.00
O758   O     0.80780   0.03276   0.97810   0.00000  Uiso   1.00
O759   O     0.96724   0.19220   0.02190   0.00000  Uiso   1.00
O760   O     0.96724   0.30780   0.97810   0.00000  Uiso   1.00
O761   O     0.80780   0.46724   0.02190   0.00000  Uiso   1.00
O762   O     0.69220   0.46724   0.97810   0.00000  Uiso   1.00
O763   O     0.53276   0.30780   0.02190   0.00000  Uiso   1.00
O764   O     0.75000   0.03036   0.66317   0.00000  Uiso   1.00
O765   O     0.53276   0.19220   0.97810   0.00000  Uiso   1.00
O766   O     0.94220   0.28276   0.52190   0.00000  Uiso   1.00
O767   O     0.55780   0.28276   0.47810   0.00000  Uiso   1.00
O768   O     0.71724   0.44220   0.52190   0.00000  Uiso   1.00
O769   O     0.71724   0.05780   0.47810   0.00000  Uiso   1.00
O770   O     0.55780   0.21724   0.52190   0.00000  Uiso   1.00
O771   O     0.94220   0.21724   0.47810   0.00000  Uiso   1.00
O772   O     0.78276   0.05780   0.52190   0.00000  Uiso   1.00
O773   O     0.78276   0.44220   0.47810   0.00000  Uiso   1.00
O774   O     0.53036   0.25000   0.33683   0.00000  Uiso   1.00
O775   O     0.96964   0.25000   0.66317   0.00000  Uiso   1.00
O776   O     0.75000   0.03036   0.33683   0.00000  Uiso   1.00
Zn777  Zn    0.70660   0.00000   0.21760   0.00000  Uiso   1.00
Zn778  Zn    0.54340   0.25000   0.28240   0.00000  Uiso   1.00
Zn779  Zn    0.75000   0.45660   0.71760   0.00000  Uiso   1.00
Zn780  Zn    0.75000   0.04340   0.28240   0.00000  Uiso   1.00
Zn781  Zn    0.54340   0.25000   0.71760   0.00000  Uiso   1.00
Zn782  Zn    0.95660   0.25000   0.28240   0.00000  Uiso   1.00
Zn783  Zn    0.75000   0.04340   0.71760   0.00000  Uiso   1.00
Zn784  Zn    0.75000   0.45660   0.28240   0.00000  Uiso   1.00
Zn785  Zn    0.79340   0.00000   0.78240   0.00000  Uiso   1.00
Zn786  Zn    0.50000   0.20660   0.21760   0.00000  Uiso   1.00
Zn787  Zn    0.50000   0.29340   0.78240   0.00000  Uiso   1.00
Zn788  Zn    0.79340   0.00000   0.21760   0.00000  Uiso   1.00
Zn789  Zn    0.70660   0.00000   0.78240   0.00000  Uiso   1.00
Zn790  Zn    0.50000   0.29340   0.21760   0.00000  Uiso   1.00
Zn791  Zn    0.50000   0.20660   0.78240   0.00000  Uiso   1.00
Zn792  Zn    0.95660   0.25000   0.71760   0.00000  Uiso   1.00
C793   C     0.22143   0.51734   0.04139   0.00000  Uiso   1.00
C794   C     0.02857   0.76734   0.45861   0.00000  Uiso   1.00
C795   C     0.34814   0.90186   0.75000   0.00000  Uiso   1.00
C796   C     0.40187   0.65187   0.25000   0.00000  Uiso   1.00
C797   C     0.09814   0.84814   0.75000   0.00000  Uiso   1.00
C798   C     0.34813   0.90187   0.25000   0.00000  Uiso   1.00
C799   C     0.15186   0.59814   0.75000   0.00000  Uiso   1.00
C800   C     0.09812   0.65187   0.75000   0.00000  Uiso   1.00
C801   C     0.40186   0.84814   0.25000   0.00000  Uiso   1.00
C802   C     0.15187   0.90187   0.75000   0.00000  Uiso   1.00
C803   C     0.34814   0.59814   0.25000   0.00000  Uiso   1.00
C804   C     0.40187   0.84813   0.75000   0.00000  Uiso   1.00
C805   C     0.23266   0.97143   0.54139   0.00000  Uiso   1.00
C806   C     0.09814   0.65186   0.25000   0.00000  Uiso   1.00
C807   C     0.34813   0.59813   0.75000   0.00000  Uiso   1.00
C808   C     0.15186   0.90186   0.25000   0.00000  Uiso   1.00
C809   C     0.25000   0.50000   0.10226   0.00000  Uiso   1.00
C810   C     0.25000   0.50000   0.89774   0.00000  Uiso   1.00
C811   C    -0.00000   0.75000   0.10226   0.00000  Uiso   1.00
C812   C     0.00000   0.75000   0.89774   0.00000  Uiso   1.00
C813   C     0.00000   0.75000   0.60226   0.00000  Uiso   1.00
C814   C     0.00000   0.75000   0.39774   0.00000  Uiso   1.00
C815   C     0.25000   0.50000   0.60226   0.00000  Uiso   1.00
C816   C     0.23266   0.52857   0.45861   0.00000  Uiso   1.00
C817   C     0.25000   0.50000   0.39774   0.00000  Uiso   1.00
C818   C     0.20197   0.56756   0.00782   0.00000  Uiso   1.00
C819   C     0.29803   0.56756   0.99218   0.00000  Uiso   1.00
C820   C     0.43244   0.70197   0.00782   0.00000  Uiso   1.00
C821   C     0.43244   0.79803   0.99218   0.00000  Uiso   1.00
C822   C     0.29803   0.93244   0.00782   0.00000  Uiso   1.00
C823   C     0.20197   0.93244   0.99218   0.00000  Uiso   1.00
C824   C     0.06756   0.79803   0.00782   0.00000  Uiso   1.00
C825   C     0.06756   0.70197   0.99218   0.00000  Uiso   1.00
C826   C     0.45197   0.81756   0.50783   0.00000  Uiso   1.00
C827   C     0.02857   0.73266   0.54139   0.00000  Uiso   1.00
C828   C     0.04803   0.81756   0.49218   0.00000  Uiso   1.00
C829   C     0.18244   0.95197   0.50783   0.00000  Uiso   1.00
C830   C     0.18244   0.54803   0.49218   0.00000  Uiso   1.00
C831   C     0.04803   0.68244   0.50783   0.00000  Uiso   1.00
C832   C     0.45197   0.68244   0.49218   0.00000  Uiso   1.00
C833   C     0.31756   0.54803   0.50783   0.00000  Uiso   1.00
C834   C     0.31756   0.95197   0.49218   0.00000  Uiso   1.00
C835   C     0.19951   0.57043   0.11655   0.00000  Uiso   1.00
C836   C     0.30049   0.57043   0.88345   0.00000  Uiso   1.00
C837   C     0.42957   0.69951   0.11655   0.00000  Uiso   1.00
C838   C     0.47143   0.73266   0.45861   0.00000  Uiso   1.00
C839   C     0.42957   0.80049   0.88345   0.00000  Uiso   1.00
C840   C     0.30049   0.92957   0.11655   0.00000  Uiso   1.00
C841   C     0.19951   0.92957   0.88345   0.00000  Uiso   1.00
C842   C     0.07043   0.80049   0.11655   0.00000  Uiso   1.00
C843   C     0.07043   0.69951   0.88345   0.00000  Uiso   1.00
C844   C     0.44951   0.82043   0.61655   0.00000  Uiso   1.00
C845   C     0.05049   0.82043   0.38345   0.00000  Uiso   1.00
C846   C     0.17957   0.94951   0.61655   0.00000  Uiso   1.00
C847   C     0.17957   0.55049   0.38345   0.00000  Uiso   1.00
C848   C     0.05049   0.67957   0.61655   0.00000  Uiso   1.00
C849   C     0.26734   0.52857   0.54139   0.00000  Uiso   1.00
C850   C     0.44951   0.67957   0.38345   0.00000  Uiso   1.00
C851   C     0.32043   0.55049   0.61655   0.00000  Uiso   1.00
C852   C     0.32043   0.94951   0.38345   0.00000  Uiso   1.00
C853   C     0.26734   0.97143   0.45861   0.00000  Uiso   1.00
C854   C     0.22121   0.51711   0.08187   0.00000  Uiso   1.00
C855   C     0.27879   0.51711   0.91813   0.00000  Uiso   1.00
C856   C     0.48289   0.72121   0.08187   0.00000  Uiso   1.00
C857   C     0.27857   0.51734   0.95861   0.00000  Uiso   1.00
C858   C     0.48289   0.77879   0.91813   0.00000  Uiso   1.00
C859   C     0.27879   0.98289   0.08187   0.00000  Uiso   1.00
C860   C     0.22121   0.98289   0.91813   0.00000  Uiso   1.00
C861   C     0.01711   0.77879   0.08187   0.00000  Uiso   1.00
C862   C     0.01711   0.72121   0.91813   0.00000  Uiso   1.00
C863   C     0.47121   0.76711   0.58187   0.00000  Uiso   1.00
C864   C     0.02879   0.76711   0.41813   0.00000  Uiso   1.00
C865   C     0.23289   0.97121   0.58187   0.00000  Uiso   1.00
C866   C     0.23289   0.52879   0.41813   0.00000  Uiso   1.00
C867   C     0.02879   0.73289   0.58187   0.00000  Uiso   1.00
C868   C     0.48266   0.72143   0.04139   0.00000  Uiso   1.00
C869   C     0.47121   0.73289   0.41813   0.00000  Uiso   1.00
C870   C     0.26711   0.52879   0.58187   0.00000  Uiso   1.00
C871   C     0.26711   0.97121   0.41813   0.00000  Uiso   1.00
C872   C     0.25000   0.50000   0.02121   0.00000  Uiso   1.00
C873   C     0.25000   0.50000   0.97879   0.00000  Uiso   1.00
C874   C     0.00000   0.75000   0.02121   0.00000  Uiso   1.00
C875   C     0.00000   0.75000   0.97879   0.00000  Uiso   1.00
C876   C     0.00000   0.75000   0.52121   0.00000  Uiso   1.00
C877   C    -0.00000   0.75000   0.47879   0.00000  Uiso   1.00
C878   C     0.25000   0.50000   0.52121   0.00000  Uiso   1.00
C879   C     0.48266   0.77857   0.95861   0.00000  Uiso   1.00
C880   C     0.25000   0.50000   0.47879   0.00000  Uiso   1.00
C881   C     0.25000   0.50000   0.35522   0.00000  Uiso   1.00
C882   C     0.25000   0.50000   0.64478   0.00000  Uiso   1.00
C883   C     0.00000   0.75000   0.35522   0.00000  Uiso   1.00
C884   C    -0.00000   0.75000   0.64478   0.00000  Uiso   1.00
C885   C     0.00000   0.75000   0.85522   0.00000  Uiso   1.00
C886   C     0.00000   0.75000   0.14478   0.00000  Uiso   1.00
C887   C     0.25000   0.50000   0.85522   0.00000  Uiso   1.00
C888   C     0.25000   0.50000   0.14478   0.00000  Uiso   1.00
C889   C     0.17994   0.57006   0.25000   0.00000  Uiso   1.00
C890   C     0.27857   0.98266   0.04139   0.00000  Uiso   1.00
C891   C     0.32007   0.92993   0.75000   0.00000  Uiso   1.00
C892   C     0.42994   0.67994   0.25000   0.00000  Uiso   1.00
C893   C     0.07007   0.82007   0.75000   0.00000  Uiso   1.00
C894   C     0.32006   0.92994   0.25000   0.00000  Uiso   1.00
C895   C     0.17993   0.57007   0.75000   0.00000  Uiso   1.00
C896   C     0.07006   0.82006   0.25000   0.00000  Uiso   1.00
C897   C     0.42993   0.67993   0.75000   0.00000  Uiso   1.00
C898   C     0.17994   0.92994   0.75000   0.00000  Uiso   1.00
C899   C     0.32007   0.57007   0.25000   0.00000  Uiso   1.00
C900   C     0.42994   0.82006   0.75000   0.00000  Uiso   1.00
C901   C     0.22143   0.98266   0.95861   0.00000  Uiso   1.00
C902   C     0.07007   0.67993   0.25000   0.00000  Uiso   1.00
C903   C     0.32006   0.57006   0.75000   0.00000  Uiso   1.00
C904   C     0.17993   0.92993   0.25000   0.00000  Uiso   1.00
C905   C     0.07006   0.67994   0.75000   0.00000  Uiso   1.00
C906   C     0.42993   0.82007   0.25000   0.00000  Uiso   1.00
C907   C     0.12291   0.90380   0.22363   0.00000  Uiso   1.00
C908   C     0.37705   0.59619   0.77639   0.00000  Uiso   1.00
C909   C     0.09620   0.62292   0.22363   0.00000  Uiso   1.00
C910   C     0.40381   0.87705   0.77639   0.00000  Uiso   1.00
C911   C     0.37708   0.59620   0.22363   0.00000  Uiso   1.00
C912   C     0.01734   0.77857   0.04139   0.00000  Uiso   1.00
C913   C     0.12295   0.90381   0.77639   0.00000  Uiso   1.00
C914   C     0.40380   0.87709   0.22363   0.00000  Uiso   1.00
C915   C     0.09619   0.62295   0.77639   0.00000  Uiso   1.00
C916   C     0.12291   0.59620   0.77637   0.00000  Uiso   1.00
C917   C     0.37705   0.90381   0.22361   0.00000  Uiso   1.00
C918   C     0.09620   0.87708   0.77637   0.00000  Uiso   1.00
C919   C     0.40381   0.62295   0.22361   0.00000  Uiso   1.00
C920   C     0.37708   0.90380   0.77637   0.00000  Uiso   1.00
C921   C     0.12295   0.59619   0.22361   0.00000  Uiso   1.00
C922   C     0.40380   0.62292   0.77637   0.00000  Uiso   1.00
C923   C     0.01734   0.72143   0.95861   0.00000  Uiso   1.00
C924   C     0.09619   0.87705   0.22361   0.00000  Uiso   1.00
C925   C     0.37291   0.65380   0.72363   0.00000  Uiso   1.00
C926   C     0.12705   0.84619   0.27639   0.00000  Uiso   1.00
C927   C     0.34620   0.87292   0.72363   0.00000  Uiso   1.00
C928   C     0.15381   0.62705   0.27639   0.00000  Uiso   1.00
C929   C     0.12708   0.84620   0.72363   0.00000  Uiso   1.00
C930   C     0.37295   0.65381   0.27639   0.00000  Uiso   1.00
C931   C     0.15380   0.62709   0.72363   0.00000  Uiso   1.00
C932   C     0.34619   0.87295   0.27639   0.00000  Uiso   1.00
C933   C     0.37291   0.84620   0.27637   0.00000  Uiso   1.00
C934   C     0.47143   0.76734   0.54139   0.00000  Uiso   1.00
C935   C     0.12705   0.65381   0.72361   0.00000  Uiso   1.00
C936   C     0.34620   0.62709   0.27637   0.00000  Uiso   1.00
C937   C     0.15381   0.87295   0.72361   0.00000  Uiso   1.00
C938   C     0.12708   0.65380   0.27637   0.00000  Uiso   1.00
C939   C     0.37295   0.84619   0.72361   0.00000  Uiso   1.00
C940   C     0.15380   0.87291   0.27637   0.00000  Uiso   1.00
C941   C     0.34619   0.62705   0.72361   0.00000  Uiso   1.00
C942   C     0.09812   0.84813   0.25000   0.00000  Uiso   1.00
C943   C     0.40186   0.65186   0.75000   0.00000  Uiso   1.00
C944   C     0.15187   0.59813   0.25000   0.00000  Uiso   1.00
H945   H     0.12093   0.92590   0.20296   0.00000  Uiso   1.00
H946   H     0.37901   0.92588   0.20291   0.00000  Uiso   1.00
H947   H     0.32320   0.92060   0.13553   0.00000  Uiso   1.00
H948   H     0.16688   0.96740   0.91159   0.00000  Uiso   1.00
H949   H     0.20202   0.90997   0.90771   0.00000  Uiso   1.00
H950   H     0.22507   0.92925   0.86624   0.00000  Uiso   1.00
H951   H     0.17680   0.92059   0.86447   0.00000  Uiso   1.00
H952   H     0.03260   0.83312   0.08841   0.00000  Uiso   1.00
H953   H     0.09003   0.79798   0.09230   0.00000  Uiso   1.00
H954   H     0.07075   0.77493   0.13376   0.00000  Uiso   1.00
H955   H     0.07940   0.82320   0.13553   0.00000  Uiso   1.00
H956   H     0.03260   0.66688   0.91159   0.00000  Uiso   1.00
H957   H     0.07410   0.87907   0.79704   0.00000  Uiso   1.00
H958   H     0.09003   0.70202   0.90771   0.00000  Uiso   1.00
H959   H     0.07075   0.72507   0.86624   0.00000  Uiso   1.00
H960   H     0.07940   0.67680   0.86447   0.00000  Uiso   1.00
H961   H     0.41688   0.78260   0.58841   0.00000  Uiso   1.00
H962   H     0.45202   0.84003   0.59230   0.00000  Uiso   1.00
H963   H     0.47507   0.82075   0.63376   0.00000  Uiso   1.00
H964   H     0.42680   0.82941   0.63553   0.00000  Uiso   1.00
H965   H     0.08312   0.78260   0.41159   0.00000  Uiso   1.00
H966   H     0.04798   0.84003   0.40771   0.00000  Uiso   1.00
H967   H     0.02493   0.82075   0.36624   0.00000  Uiso   1.00
H968   H     0.42588   0.62099   0.20291   0.00000  Uiso   1.00
H969   H     0.07320   0.82940   0.36447   0.00000  Uiso   1.00
H970   H     0.21740   0.91688   0.58841   0.00000  Uiso   1.00
H971   H     0.15997   0.95202   0.59230   0.00000  Uiso   1.00
H972   H     0.17925   0.97507   0.63376   0.00000  Uiso   1.00
H973   H     0.17059   0.92680   0.63553   0.00000  Uiso   1.00
H974   H     0.21740   0.58312   0.41159   0.00000  Uiso   1.00
H975   H     0.15997   0.54798   0.40771   0.00000  Uiso   1.00
H976   H     0.17925   0.52493   0.36624   0.00000  Uiso   1.00
H977   H     0.17059   0.57320   0.36447   0.00000  Uiso   1.00
H978   H     0.08312   0.71740   0.58841   0.00000  Uiso   1.00
H979   H     0.37907   0.92590   0.79704   0.00000  Uiso   1.00
H980   H     0.04798   0.65997   0.59230   0.00000  Uiso   1.00
H981   H     0.02493   0.67925   0.63376   0.00000  Uiso   1.00
H982   H     0.07320   0.67059   0.63553   0.00000  Uiso   1.00
H983   H     0.41688   0.71740   0.41159   0.00000  Uiso   1.00
H984   H     0.45202   0.65997   0.40771   0.00000  Uiso   1.00
H985   H     0.47507   0.67925   0.36624   0.00000  Uiso   1.00
H986   H     0.42680   0.67060   0.36447   0.00000  Uiso   1.00
H987   H     0.28260   0.58312   0.58841   0.00000  Uiso   1.00
H988   H     0.34003   0.54798   0.59230   0.00000  Uiso   1.00
H989   H     0.32075   0.52493   0.63376   0.00000  Uiso   1.00
H990   H     0.12098   0.57412   0.20291   0.00000  Uiso   1.00
H991   H     0.32940   0.57320   0.63553   0.00000  Uiso   1.00
H992   H     0.28260   0.91688   0.41159   0.00000  Uiso   1.00
H993   H     0.34003   0.95202   0.40771   0.00000  Uiso   1.00
H994   H     0.32075   0.97507   0.36624   0.00000  Uiso   1.00
H995   H     0.32940   0.92680   0.36447   0.00000  Uiso   1.00
H996   H     0.42590   0.62093   0.79704   0.00000  Uiso   1.00
H997   H     0.07412   0.87901   0.20291   0.00000  Uiso   1.00
H998   H     0.37093   0.67590   0.70296   0.00000  Uiso   1.00
H999   H     0.12901   0.82412   0.29709   0.00000  Uiso   1.00
H1000  H     0.32410   0.87093   0.70296   0.00000  Uiso   1.00
H1001  H     0.37901   0.57412   0.79709   0.00000  Uiso   1.00
H1002  H     0.17588   0.62901   0.29709   0.00000  Uiso   1.00
H1003  H     0.12907   0.82410   0.70296   0.00000  Uiso   1.00
H1004  H     0.37098   0.67588   0.29709   0.00000  Uiso   1.00
H1005  H     0.17590   0.62907   0.70296   0.00000  Uiso   1.00
H1006  H     0.32412   0.87099   0.29709   0.00000  Uiso   1.00
H1007  H     0.37093   0.82410   0.29704   0.00000  Uiso   1.00
H1008  H     0.12901   0.67588   0.70291   0.00000  Uiso   1.00
H1009  H     0.32410   0.62907   0.29704   0.00000  Uiso   1.00
H1010  H     0.17588   0.87098   0.70291   0.00000  Uiso   1.00
H1011  H     0.12907   0.67590   0.29704   0.00000  Uiso   1.00
H1012  H     0.07410   0.62093   0.20296   0.00000  Uiso   1.00
H1013  H     0.37098   0.82412   0.70291   0.00000  Uiso   1.00
H1014  H     0.17590   0.87093   0.29704   0.00000  Uiso   1.00
H1015  H     0.32412   0.62901   0.70291   0.00000  Uiso   1.00
H1016  H     0.21451   0.56516   0.97879   0.00000  Uiso   1.00
H1017  H     0.22046   0.58290   0.02752   0.00000  Uiso   1.00
H1018  H     0.17676   0.58401   0.00456   0.00000  Uiso   1.00
H1019  H     0.28549   0.56516   0.02121   0.00000  Uiso   1.00
H1020  H     0.27954   0.58290   0.97248   0.00000  Uiso   1.00
H1021  H     0.32324   0.58401   0.99544   0.00000  Uiso   1.00
H1022  H     0.43484   0.71451   0.97879   0.00000  Uiso   1.00
H1023  H     0.42588   0.87901   0.79709   0.00000  Uiso   1.00
H1024  H     0.41710   0.72046   0.02752   0.00000  Uiso   1.00
H1025  H     0.41599   0.67676   0.00456   0.00000  Uiso   1.00
H1026  H     0.43484   0.78549   0.02121   0.00000  Uiso   1.00
H1027  H     0.41710   0.77954   0.97248   0.00000  Uiso   1.00
H1028  H     0.41599   0.82324   0.99544   0.00000  Uiso   1.00
H1029  H     0.28549   0.93484   0.97879   0.00000  Uiso   1.00
H1030  H     0.27954   0.91710   0.02752   0.00000  Uiso   1.00
H1031  H     0.32324   0.91599   0.00456   0.00000  Uiso   1.00
H1032  H     0.21451   0.93484   0.02121   0.00000  Uiso   1.00
H1033  H     0.22046   0.91710   0.97248   0.00000  Uiso   1.00
H1034  H     0.37907   0.57410   0.20296   0.00000  Uiso   1.00
H1035  H     0.17676   0.91599   0.99544   0.00000  Uiso   1.00
H1036  H     0.06516   0.78549   0.97879   0.00000  Uiso   1.00
H1037  H     0.08290   0.77954   0.02752   0.00000  Uiso   1.00
H1038  H     0.08401   0.82324   0.00456   0.00000  Uiso   1.00
H1039  H     0.06516   0.71451   0.02121   0.00000  Uiso   1.00
H1040  H     0.08290   0.72046   0.97248   0.00000  Uiso   1.00
H1041  H     0.08401   0.67676   0.99544   0.00000  Uiso   1.00
H1042  H     0.46451   0.81516   0.47879   0.00000  Uiso   1.00
H1043  H     0.47046   0.83290   0.52752   0.00000  Uiso   1.00
H1044  H     0.42676   0.83401   0.50456   0.00000  Uiso   1.00
H1045  H     0.12099   0.92588   0.79709   0.00000  Uiso   1.00
H1046  H     0.03549   0.81516   0.52121   0.00000  Uiso   1.00
H1047  H     0.02954   0.83290   0.47248   0.00000  Uiso   1.00
H1048  H     0.07324   0.83401   0.49544   0.00000  Uiso   1.00
H1049  H     0.18484   0.96451   0.47879   0.00000  Uiso   1.00
H1050  H     0.16710   0.97046   0.52752   0.00000  Uiso   1.00
H1051  H     0.16599   0.92676   0.50456   0.00000  Uiso   1.00
H1052  H     0.18484   0.53549   0.52121   0.00000  Uiso   1.00
H1053  H     0.16710   0.52954   0.47248   0.00000  Uiso   1.00
H1054  H     0.16599   0.57324   0.49544   0.00000  Uiso   1.00
H1055  H     0.03549   0.68484   0.47879   0.00000  Uiso   1.00
H1056  H     0.42590   0.87907   0.20296   0.00000  Uiso   1.00
H1057  H     0.02954   0.66710   0.52752   0.00000  Uiso   1.00
H1058  H     0.07324   0.66599   0.50456   0.00000  Uiso   1.00
H1059  H     0.46451   0.68484   0.52121   0.00000  Uiso   1.00
H1060  H     0.47046   0.66710   0.47248   0.00000  Uiso   1.00
H1061  H     0.42676   0.66599   0.49544   0.00000  Uiso   1.00
H1062  H     0.31516   0.53549   0.47879   0.00000  Uiso   1.00
H1063  H     0.33290   0.52954   0.52752   0.00000  Uiso   1.00
H1064  H     0.33401   0.57324   0.50456   0.00000  Uiso   1.00
H1065  H     0.31516   0.96451   0.52121   0.00000  Uiso   1.00
H1066  H     0.33290   0.97046   0.47248   0.00000  Uiso   1.00
H1067  H     0.07412   0.62099   0.79709   0.00000  Uiso   1.00
H1068  H     0.33401   0.92676   0.49544   0.00000  Uiso   1.00
H1069  H     0.16688   0.53260   0.08841   0.00000  Uiso   1.00
H1070  H     0.20202   0.59003   0.09230   0.00000  Uiso   1.00
H1071  H     0.22507   0.57075   0.13376   0.00000  Uiso   1.00
H1072  H     0.17680   0.57941   0.13553   0.00000  Uiso   1.00
H1073  H     0.33312   0.53260   0.91159   0.00000  Uiso   1.00
H1074  H     0.29798   0.59003   0.90771   0.00000  Uiso   1.00
H1075  H     0.27493   0.57075   0.86624   0.00000  Uiso   1.00
H1076  H     0.32320   0.57941   0.86447   0.00000  Uiso   1.00
H1077  H     0.46740   0.66688   0.08841   0.00000  Uiso   1.00
H1078  H     0.12093   0.57410   0.79704   0.00000  Uiso   1.00
H1079  H     0.40997   0.70202   0.09230   0.00000  Uiso   1.00
H1080  H     0.42925   0.72507   0.13376   0.00000  Uiso   1.00
H1081  H     0.42059   0.67680   0.13553   0.00000  Uiso   1.00
H1082  H     0.46740   0.83312   0.91159   0.00000  Uiso   1.00
H1083  H     0.40997   0.79798   0.90771   0.00000  Uiso   1.00
H1084  H     0.42925   0.77493   0.86624   0.00000  Uiso   1.00
H1085  H     0.42059   0.82320   0.86447   0.00000  Uiso   1.00
H1086  H     0.33312   0.96740   0.08841   0.00000  Uiso   1.00
H1087  H     0.29798   0.90997   0.09230   0.00000  Uiso   1.00
H1088  H     0.27493   0.92925   0.13376   0.00000  Uiso   1.00
N1089  N     0.19184   0.53417   0.10207   0.00000  Uiso   1.00
N1090  N     0.05816   0.78417   0.39793   0.00000  Uiso   1.00
N1091  N     0.21583   0.94184   0.60207   0.00000  Uiso   1.00
N1092  N     0.21583   0.55816   0.39793   0.00000  Uiso   1.00
N1093  N     0.05816   0.71583   0.60207   0.00000  Uiso   1.00
N1094  N     0.44184   0.71583   0.39793   0.00000  Uiso   1.00
N1095  N     0.28417   0.55816   0.60207   0.00000  Uiso   1.00
N1096  N     0.28417   0.94184   0.39793   0.00000  Uiso   1.00
N1097  N     0.30816   0.53417   0.89793   0.00000  Uiso   1.00
N1098  N     0.46583   0.69184   0.10207   0.00000  Uiso   1.00
N1099  N     0.46583   0.80816   0.89793   0.00000  Uiso   1.00
N1100  N     0.30816   0.96583   0.10207   0.00000  Uiso   1.00
N1101  N     0.19184   0.96583   0.89793   0.00000  Uiso   1.00
N1102  N     0.03417   0.80816   0.10207   0.00000  Uiso   1.00
N1103  N     0.03417   0.69184   0.89793   0.00000  Uiso   1.00
N1104  N     0.44184   0.78417   0.60207   0.00000  Uiso   1.00
O1105  O     0.25000   0.50000   0.25000   0.00000  Uiso   1.00
O1106  O     0.25000   0.96964   0.66317   0.00000  Uiso   1.00
O1107  O     0.46964   0.75000   0.33683   0.00000  Uiso   1.00
O1108  O     0.03036   0.75000   0.66317   0.00000  Uiso   1.00
O1109  O     0.00000   0.71964   0.83683   0.00000  Uiso   1.00
O1110  O     0.00000   0.78036   0.16317   0.00000  Uiso   1.00
O1111  O     0.28036   0.50000   0.83683   0.00000  Uiso   1.00
O1112  O     0.21964   0.50000   0.16317   0.00000  Uiso   1.00
O1113  O     0.00000   0.78036   0.83683   0.00000  Uiso   1.00
O1114  O    -0.00000   0.71964   0.16317   0.00000  Uiso   1.00
O1115  O     0.21964   0.50000   0.83683   0.00000  Uiso   1.00
O1116  O     0.25000   0.50000   0.75000   0.00000  Uiso   1.00
O1117  O     0.28036   0.50000   0.16317   0.00000  Uiso   1.00
O1118  O     0.20725   0.57307   0.27282   0.00000  Uiso   1.00
O1119  O     0.29274   0.92693   0.72718   0.00000  Uiso   1.00
O1120  O     0.42693   0.70726   0.27282   0.00000  Uiso   1.00
O1121  O     0.07307   0.79274   0.72718   0.00000  Uiso   1.00
O1122  O     0.29274   0.92693   0.27282   0.00000  Uiso   1.00
O1123  O     0.20725   0.57307   0.72718   0.00000  Uiso   1.00
O1124  O     0.07307   0.79274   0.27282   0.00000  Uiso   1.00
O1125  O     0.42693   0.70726   0.72718   0.00000  Uiso   1.00
O1126  O     0.20725   0.92693   0.72718   0.00000  Uiso   1.00
O1127  O    -0.00000   0.75000   0.25000   0.00000  Uiso   1.00
O1128  O     0.29274   0.57307   0.27282   0.00000  Uiso   1.00
O1129  O     0.42693   0.79275   0.72718   0.00000  Uiso   1.00
O1130  O     0.07307   0.70725   0.27282   0.00000  Uiso   1.00
O1131  O     0.29274   0.57307   0.72718   0.00000  Uiso   1.00
O1132  O     0.20725   0.92693   0.27282   0.00000  Uiso   1.00
O1133  O     0.07307   0.70725   0.72718   0.00000  Uiso   1.00
O1134  O     0.42693   0.79275   0.27282   0.00000  Uiso   1.00
O1135  O     0.45725   0.82307   0.77282   0.00000  Uiso   1.00
O1136  O     0.04274   0.67693   0.22718   0.00000  Uiso   1.00
O1137  O     0.17693   0.95725   0.77282   0.00000  Uiso   1.00
O1138  O     0.00000   0.75000   0.75000   0.00000  Uiso   1.00
O1139  O     0.32307   0.54275   0.22718   0.00000  Uiso   1.00
O1140  O     0.04274   0.67693   0.77282   0.00000  Uiso   1.00
O1141  O     0.45725   0.82307   0.22718   0.00000  Uiso   1.00
O1142  O     0.32307   0.54275   0.77282   0.00000  Uiso   1.00
O1143  O     0.17693   0.95725   0.22718   0.00000  Uiso   1.00
O1144  O     0.45725   0.67693   0.22718   0.00000  Uiso   1.00
O1145  O     0.04274   0.82307   0.77282   0.00000  Uiso   1.00
O1146  O     0.17693   0.54275   0.22718   0.00000  Uiso   1.00
O1147  O     0.32307   0.95726   0.77282   0.00000  Uiso   1.00
O1148  O     0.04274   0.82307   0.22718   0.00000  Uiso   1.00
O1149  O     0.25000   0.96964   0.33683   0.00000  Uiso   1.00
O1150  O     0.45725   0.67693   0.77282   0.00000  Uiso   1.00
O1151  O     0.32307   0.95726   0.22718   0.00000  Uiso   1.00
O1152  O     0.17693   0.54275   0.77282   0.00000  Uiso   1.00
O1153  O     0.19220   0.53276   0.02190   0.00000  Uiso   1.00
O1154  O     0.30780   0.53276   0.97810   0.00000  Uiso   1.00
O1155  O     0.46724   0.69220   0.02190   0.00000  Uiso   1.00
O1156  O     0.46724   0.80780   0.97810   0.00000  Uiso   1.00
O1157  O     0.30780   0.96724   0.02190   0.00000  Uiso   1.00
O1158  O     0.19220   0.96724   0.97810   0.00000  Uiso   1.00
O1159  O     0.03276   0.80780   0.02190   0.00000  Uiso   1.00
O1160  O     0.25000   0.53036   0.66317   0.00000  Uiso   1.00
O1161  O     0.03276   0.69220   0.97810   0.00000  Uiso   1.00
O1162  O     0.44220   0.78276   0.52190   0.00000  Uiso   1.00
O1163  O     0.05780   0.78276   0.47810   0.00000  Uiso   1.00
O1164  O     0.21724   0.94220   0.52190   0.00000  Uiso   1.00
O1165  O     0.21724   0.55780   0.47810   0.00000  Uiso   1.00
O1166  O     0.05780   0.71724   0.52190   0.00000  Uiso   1.00
O1167  O     0.44220   0.71724   0.47810   0.00000  Uiso   1.00
O1168  O     0.28276   0.55780   0.52190   0.00000  Uiso   1.00
O1169  O     0.28276   0.94220   0.47810   0.00000  Uiso   1.00
O1170  O     0.03036   0.75000   0.33683   0.00000  Uiso   1.00
O1171  O     0.46964   0.75000   0.66317   0.00000  Uiso   1.00
O1172  O     0.25000   0.53036   0.33683   0.00000  Uiso   1.00
Zn1173 Zn    0.20660   0.50000   0.21760   0.00000  Uiso   1.00
Zn1174 Zn    0.04340   0.75000   0.28240   0.00000  Uiso   1.00
Zn1175 Zn    0.25000   0.95660   0.71760   0.00000  Uiso   1.00
Zn1176 Zn    0.25000   0.54340   0.28240   0.00000  Uiso   1.00
Zn1177 Zn    0.04340   0.75000   0.71760   0.00000  Uiso   1.00
Zn1178 Zn    0.45660   0.75000   0.28240   0.00000  Uiso   1.00
Zn1179 Zn    0.25000   0.54340   0.71760   0.00000  Uiso   1.00
Zn1180 Zn    0.25000   0.95660   0.28240   0.00000  Uiso   1.00
Zn1181 Zn    0.29340   0.50000   0.78240   0.00000  Uiso   1.00
Zn1182 Zn    0.00000   0.70660   0.21760   0.00000  Uiso   1.00
Zn1183 Zn   -0.00000   0.79340   0.78240   0.00000  Uiso   1.00
Zn1184 Zn    0.29340   0.50000   0.21760   0.00000  Uiso   1.00
Zn1185 Zn    0.20660   0.50000   0.78240   0.00000  Uiso   1.00
Zn1186 Zn    0.00000   0.79340   0.21760   0.00000  Uiso   1.00
Zn1187 Zn    0.00000   0.70660   0.78240   0.00000  Uiso   1.00
Zn1188 Zn    0.45660   0.75000   0.71760   0.00000  Uiso   1.00
C1189  C     0.72143   0.51734   0.04139   0.00000  Uiso   1.00
C1190  C     0.52857   0.76734   0.45861   0.00000  Uiso   1.00
C1191  C     0.84814   0.90186   0.75000   0.00000  Uiso   1.00
C1192  C     0.90187   0.65187   0.25000   0.00000  Uiso   1.00
C1193  C     0.59814   0.84814   0.75000   0.00000  Uiso   1.00
C1194  C     0.84813   0.90187   0.25000   0.00000  Uiso   1.00
C1195  C     0.65186   0.59814   0.75000   0.00000  Uiso   1.00
C1196  C     0.59812   0.65187   0.75000   0.00000  Uiso   1.00
C1197  C     0.90186   0.84814   0.25000   0.00000  Uiso   1.00
C1198  C     0.65187   0.90187   0.75000   0.00000  Uiso   1.00
C1199  C     0.84814   0.59814   0.25000   0.00000  Uiso   1.00
C1200  C     0.90187   0.84813   0.75000   0.00000  Uiso   1.00
C1201  C     0.73266   0.97143   0.54139   0.00000  Uiso   1.00
C1202  C     0.59814   0.65186   0.25000   0.00000  Uiso   1.00
C1203  C     0.84813   0.59813   0.75000   0.00000  Uiso   1.00
C1204  C     0.65186   0.90186   0.25000   0.00000  Uiso   1.00
C1205  C     0.75000   0.50000   0.10226   0.00000  Uiso   1.00
C1206  C     0.75000   0.50000   0.89774   0.00000  Uiso   1.00
C1207  C     0.50000   0.75000   0.10226   0.00000  Uiso   1.00
C1208  C     0.50000   0.75000   0.89774   0.00000  Uiso   1.00
C1209  C     0.50000   0.75000   0.60226   0.00000  Uiso   1.00
C1210  C     0.50000   0.75000   0.39774   0.00000  Uiso   1.00
C1211  C     0.75000   0.50000   0.60226   0.00000  Uiso   1.00
C1212  C     0.73266   0.52857   0.45861   0.00000  Uiso   1.00
C1213  C     0.75000   0.50000   0.39774   0.00000  Uiso   1.00
C1214  C     0.70197   0.56756   0.00782   0.00000  Uiso   1.00
C1215  C     0.79803   0.56756   0.99218   0.00000  Uiso   1.00
C1216  C     0.93244   0.70197   0.00782   0.00000  Uiso   1.00
C1217  C     0.93244   0.79803   0.99218   0.00000  Uiso   1.00
C1218  C     0.79803   0.93244   0.00782   0.00000  Uiso   1.00
C1219  C     0.70197   0.93244   0.99218   0.00000  Uiso   1.00
C1220  C     0.56756   0.79803   0.00782   0.00000  Uiso   1.00
C1221  C     0.56756   0.70197   0.99218   0.00000  Uiso   1.00
C1222  C     0.95197   0.81756   0.50783   0.00000  Uiso   1.00
C1223  C     0.52857   0.73266   0.54139   0.00000  Uiso   1.00
C1224  C     0.54803   0.81756   0.49218   0.00000  Uiso   1.00
C1225  C     0.68244   0.95197   0.50783   0.00000  Uiso   1.00
C1226  C     0.68244   0.54803   0.49218   0.00000  Uiso   1.00
C1227  C     0.54803   0.68244   0.50783   0.00000  Uiso   1.00
C1228  C     0.95197   0.68244   0.49218   0.00000  Uiso   1.00
C1229  C     0.81756   0.54803   0.50783   0.00000  Uiso   1.00
C1230  C     0.81756   0.95197   0.49218   0.00000  Uiso   1.00
C1231  C     0.69951   0.57043   0.11655   0.00000  Uiso   1.00
C1232  C     0.80049   0.57043   0.88345   0.00000  Uiso   1.00
C1233  C     0.92957   0.69951   0.11655   0.00000  Uiso   1.00
C1234  C     0.97143   0.73266   0.45861   0.00000  Uiso   1.00
C1235  C     0.92957   0.80049   0.88345   0.00000  Uiso   1.00
C1236  C     0.80049   0.92957   0.11655   0.00000  Uiso   1.00
C1237  C     0.69951   0.92957   0.88345   0.00000  Uiso   1.00
C1238  C     0.57043   0.80049   0.11655   0.00000  Uiso   1.00
C1239  C     0.57043   0.69951   0.88345   0.00000  Uiso   1.00
C1240  C     0.94951   0.82043   0.61655   0.00000  Uiso   1.00
C1241  C     0.55049   0.82043   0.38345   0.00000  Uiso   1.00
C1242  C     0.67957   0.94951   0.61655   0.00000  Uiso   1.00
C1243  C     0.67957   0.55049   0.38345   0.00000  Uiso   1.00
C1244  C     0.55049   0.67957   0.61655   0.00000  Uiso   1.00
C1245  C     0.76734   0.52857   0.54139   0.00000  Uiso   1.00
C1246  C     0.94951   0.67957   0.38345   0.00000  Uiso   1.00
C1247  C     0.82043   0.55049   0.61655   0.00000  Uiso   1.00
C1248  C     0.82043   0.94951   0.38345   0.00000  Uiso   1.00
C1249  C     0.76734   0.97143   0.45861   0.00000  Uiso   1.00
C1250  C     0.72121   0.51711   0.08187   0.00000  Uiso   1.00
C1251  C     0.77879   0.51711   0.91813   0.00000  Uiso   1.00
C1252  C     0.98289   0.72121   0.08187   0.00000  Uiso   1.00
C1253  C     0.77857   0.51734   0.95861   0.00000  Uiso   1.00
C1254  C     0.98289   0.77879   0.91813   0.00000  Uiso   1.00
C1255  C     0.77879   0.98289   0.08187   0.00000  Uiso   1.00
C1256  C     0.72121   0.98289   0.91813   0.00000  Uiso   1.00
C1257  C     0.51711   0.77879   0.08187   0.00000  Uiso   1.00
C1258  C     0.51711   0.72121   0.91813   0.00000  Uiso   1.00
C1259  C     0.97121   0.76711   0.58187   0.00000  Uiso   1.00
C1260  C     0.52879   0.76711   0.41813   0.00000  Uiso   1.00
C1261  C     0.73289   0.97121   0.58187   0.00000  Uiso   1.00
C1262  C     0.73289   0.52879   0.41813   0.00000  Uiso   1.00
C1263  C     0.52879   0.73289   0.58187   0.00000  Uiso   1.00
C1264  C     0.98266   0.72143   0.04139   0.00000  Uiso   1.00
C1265  C     0.97121   0.73289   0.41813   0.00000  Uiso   1.00
C1266  C     0.76711   0.52879   0.58187   0.00000  Uiso   1.00
C1267  C     0.76711   0.97121   0.41813   0.00000  Uiso   1.00
C1268  C     0.75000   0.50000   0.02121   0.00000  Uiso   1.00
C1269  C     0.75000   0.50000   0.97879   0.00000  Uiso   1.00
C1270  C     0.50000   0.75000   0.02121   0.00000  Uiso   1.00
C1271  C     0.50000   0.75000   0.97879   0.00000  Uiso   1.00
C1272  C     0.50000   0.75000   0.52121   0.00000  Uiso   1.00
C1273  C     0.50000   0.75000   0.47879   0.00000  Uiso   1.00
C1274  C     0.75000   0.50000   0.52121   0.00000  Uiso   1.00
C1275  C     0.98266   0.77857   0.95861   0.00000  Uiso   1.00
C1276  C     0.75000   0.50000   0.47879   0.00000  Uiso   1.00
C1277  C     0.75000   0.50000   0.35522   0.00000  Uiso   1.00
C1278  C     0.75000   0.50000   0.64478   0.00000  Uiso   1.00
C1279  C     0.50000   0.75000   0.35522   0.00000  Uiso   1.00
C1280  C     0.50000   0.75000   0.64478   0.00000  Uiso   1.00
C1281  C     0.50000   0.75000   0.85522   0.00000  Uiso   1.00
C1282  C     0.50000   0.75000   0.14478   0.00000  Uiso   1.00
C1283  C     0.75000   0.50000   0.85522   0.00000  Uiso   1.00
C1284  C     0.75000   0.50000   0.14478   0.00000  Uiso   1.00
C1285  C     0.67994   0.57006   0.25000   0.00000  Uiso   1.00
C1286  C     0.77857   0.98266   0.04139   0.00000  Uiso   1.00
C1287  C     0.82007   0.92993   0.75000   0.00000  Uiso   1.00
C1288  C     0.92994   0.67994   0.25000   0.00000  Uiso   1.00
C1289  C     0.57007   0.82007   0.75000   0.00000  Uiso   1.00
C1290  C     0.82006   0.92994   0.25000   0.00000  Uiso   1.00
C1291  C     0.67993   0.57007   0.75000   0.00000  Uiso   1.00
C1292  C     0.57006   0.82006   0.25000   0.00000  Uiso   1.00
C1293  C     0.92993   0.67993   0.75000   0.00000  Uiso   1.00
C1294  C     0.67994   0.92994   0.75000   0.00000  Uiso   1.00
C1295  C     0.82007   0.57007   0.25000   0.00000  Uiso   1.00
C1296  C     0.92994   0.82006   0.75000   0.00000  Uiso   1.00
C1297  C     0.72143   0.98266   0.95861   0.00000  Uiso   1.00
C1298  C     0.57007   0.67993   0.25000   0.00000  Uiso   1.00
C1299  C     0.82006   0.57006   0.75000   0.00000  Uiso   1.00
C1300  C     0.67993   0.92993   0.25000   0.00000  Uiso   1.00
C1301  C     0.57006   0.67994   0.75000   0.00000  Uiso   1.00
C1302  C     0.92993   0.82007   0.25000   0.00000  Uiso   1.00
C1303  C     0.62291   0.90380   0.22363   0.00000  Uiso   1.00
C1304  C     0.87705   0.59619   0.77639   0.00000  Uiso   1.00
C1305  C     0.59620   0.62292   0.22363   0.00000  Uiso   1.00
C1306  C     0.90381   0.87705   0.77639   0.00000  Uiso   1.00
C1307  C     0.87708   0.59620   0.22363   0.00000  Uiso   1.00
C1308  C     0.51734   0.77857   0.04139   0.00000  Uiso   1.00
C1309  C     0.62295   0.90381   0.77639   0.00000  Uiso   1.00
C1310  C     0.90380   0.87709   0.22363   0.00000  Uiso   1.00
C1311  C     0.59619   0.62295   0.77639   0.00000  Uiso   1.00
C1312  C     0.62291   0.59620   0.77637   0.00000  Uiso   1.00
C1313  C     0.87705   0.90381   0.22361   0.00000  Uiso   1.00
C1314  C     0.59620   0.87708   0.77637   0.00000  Uiso   1.00
C1315  C     0.90381   0.62295   0.22361   0.00000  Uiso   1.00
C1316  C     0.87708   0.90380   0.77637   0.00000  Uiso   1.00
C1317  C     0.62295   0.59619   0.22361   0.00000  Uiso   1.00
C1318  C     0.90380   0.62292   0.77637   0.00000  Uiso   1.00
C1319  C     0.51734   0.72143   0.95861   0.00000  Uiso   1.00
C1320  C     0.59619   0.87705   0.22361   0.00000  Uiso   1.00
C1321  C     0.87291   0.65380   0.72363   0.00000  Uiso   1.00
C1322  C     0.62705   0.84619   0.27639   0.00000  Uiso   1.00
C1323  C     0.84620   0.87292   0.72363   0.00000  Uiso   1.00
C1324  C     0.65381   0.62705   0.27639   0.00000  Uiso   1.00
C1325  C     0.62708   0.84620   0.72363   0.00000  Uiso   1.00
C1326  C     0.87295   0.65381   0.27639   0.00000  Uiso   1.00
C1327  C     0.65380   0.62709   0.72363   0.00000  Uiso   1.00
C1328  C     0.84619   0.87295   0.27639   0.00000  Uiso   1.00
C1329  C     0.87291   0.84620   0.27637   0.00000  Uiso   1.00
C1330  C     0.97143   0.76734   0.54139   0.00000  Uiso   1.00
C1331  C     0.62705   0.65381   0.72361   0.00000  Uiso   1.00
C1332  C     0.84620   0.62709   0.27637   0.00000  Uiso   1.00
C1333  C     0.65381   0.87295   0.72361   0.00000  Uiso   1.00
C1334  C     0.62708   0.65380   0.27637   0.00000  Uiso   1.00
C1335  C     0.87295   0.84619   0.72361   0.00000  Uiso   1.00
C1336  C     0.65380   0.87291   0.27637   0.00000  Uiso   1.00
C1337  C     0.84619   0.62705   0.72361   0.00000  Uiso   1.00
C1338  C     0.59812   0.84813   0.25000   0.00000  Uiso   1.00
C1339  C     0.90186   0.65186   0.75000   0.00000  Uiso   1.00
C1340  C     0.65187   0.59813   0.25000   0.00000  Uiso   1.00
H1341  H     0.62093   0.92590   0.20296   0.00000  Uiso   1.00
H1342  H     0.87901   0.92588   0.20291   0.00000  Uiso   1.00
H1343  H     0.82320   0.92060   0.13553   0.00000  Uiso   1.00
H1344  H     0.66688   0.96740   0.91159   0.00000  Uiso   1.00
H1345  H     0.70202   0.90997   0.90771   0.00000  Uiso   1.00
H1346  H     0.72507   0.92925   0.86624   0.00000  Uiso   1.00
H1347  H     0.67680   0.92059   0.86447   0.00000  Uiso   1.00
H1348  H     0.53260   0.83312   0.08841   0.00000  Uiso   1.00
H1349  H     0.59003   0.79798   0.09230   0.00000  Uiso   1.00
H1350  H     0.57075   0.77493   0.13376   0.00000  Uiso   1.00
H1351  H     0.57940   0.82320   0.13553   0.00000  Uiso   1.00
H1352  H     0.53260   0.66688   0.91159   0.00000  Uiso   1.00
H1353  H     0.57410   0.87907   0.79704   0.00000  Uiso   1.00
H1354  H     0.59003   0.70202   0.90771   0.00000  Uiso   1.00
H1355  H     0.57075   0.72507   0.86624   0.00000  Uiso   1.00
H1356  H     0.57940   0.67680   0.86447   0.00000  Uiso   1.00
H1357  H     0.91688   0.78260   0.58841   0.00000  Uiso   1.00
H1358  H     0.95202   0.84003   0.59230   0.00000  Uiso   1.00
H1359  H     0.97507   0.82075   0.63376   0.00000  Uiso   1.00
H1360  H     0.92680   0.82941   0.63553   0.00000  Uiso   1.00
H1361  H     0.58312   0.78260   0.41159   0.00000  Uiso   1.00
H1362  H     0.54798   0.84003   0.40771   0.00000  Uiso   1.00
H1363  H     0.52493   0.82075   0.36624   0.00000  Uiso   1.00
H1364  H     0.92588   0.62099   0.20291   0.00000  Uiso   1.00
H1365  H     0.57320   0.82940   0.36447   0.00000  Uiso   1.00
H1366  H     0.71740   0.91688   0.58841   0.00000  Uiso   1.00
H1367  H     0.65997   0.95202   0.59230   0.00000  Uiso   1.00
H1368  H     0.67925   0.97507   0.63376   0.00000  Uiso   1.00
H1369  H     0.67059   0.92680   0.63553   0.00000  Uiso   1.00
H1370  H     0.71740   0.58312   0.41159   0.00000  Uiso   1.00
H1371  H     0.65997   0.54798   0.40771   0.00000  Uiso   1.00
H1372  H     0.67925   0.52493   0.36624   0.00000  Uiso   1.00
H1373  H     0.67059   0.57320   0.36447   0.00000  Uiso   1.00
H1374  H     0.58312   0.71740   0.58841   0.00000  Uiso   1.00
H1375  H     0.87907   0.92590   0.79704   0.00000  Uiso   1.00
H1376  H     0.54798   0.65997   0.59230   0.00000  Uiso   1.00
H1377  H     0.52493   0.67925   0.63376   0.00000  Uiso   1.00
H1378  H     0.57320   0.67059   0.63553   0.00000  Uiso   1.00
H1379  H     0.91688   0.71740   0.41159   0.00000  Uiso   1.00
H1380  H     0.95202   0.65997   0.40771   0.00000  Uiso   1.00
H1381  H     0.97507   0.67925   0.36624   0.00000  Uiso   1.00
H1382  H     0.92680   0.67060   0.36447   0.00000  Uiso   1.00
H1383  H     0.78260   0.58312   0.58841   0.00000  Uiso   1.00
H1384  H     0.84003   0.54798   0.59230   0.00000  Uiso   1.00
H1385  H     0.82075   0.52493   0.63376   0.00000  Uiso   1.00
H1386  H     0.62098   0.57412   0.20291   0.00000  Uiso   1.00
H1387  H     0.82940   0.57320   0.63553   0.00000  Uiso   1.00
H1388  H     0.78260   0.91688   0.41159   0.00000  Uiso   1.00
H1389  H     0.84003   0.95202   0.40771   0.00000  Uiso   1.00
H1390  H     0.82075   0.97507   0.36624   0.00000  Uiso   1.00
H1391  H     0.82940   0.92680   0.36447   0.00000  Uiso   1.00
H1392  H     0.92590   0.62093   0.79704   0.00000  Uiso   1.00
H1393  H     0.57412   0.87901   0.20291   0.00000  Uiso   1.00
H1394  H     0.87093   0.67590   0.70296   0.00000  Uiso   1.00
H1395  H     0.62901   0.82412   0.29709   0.00000  Uiso   1.00
H1396  H     0.82410   0.87093   0.70296   0.00000  Uiso   1.00
H1397  H     0.87901   0.57412   0.79709   0.00000  Uiso   1.00
H1398  H     0.67588   0.62901   0.29709   0.00000  Uiso   1.00
H1399  H     0.62907   0.82410   0.70296   0.00000  Uiso   1.00
H1400  H     0.87098   0.67588   0.29709   0.00000  Uiso   1.00
H1401  H     0.67590   0.62907   0.70296   0.00000  Uiso   1.00
H1402  H     0.82412   0.87099   0.29709   0.00000  Uiso   1.00
H1403  H     0.87093   0.82410   0.29704   0.00000  Uiso   1.00
H1404  H     0.62901   0.67588   0.70291   0.00000  Uiso   1.00
H1405  H     0.82410   0.62907   0.29704   0.00000  Uiso   1.00
H1406  H     0.67588   0.87098   0.70291   0.00000  Uiso   1.00
H1407  H     0.62907   0.67590   0.29704   0.00000  Uiso   1.00
H1408  H     0.57410   0.62093   0.20296   0.00000  Uiso   1.00
H1409  H     0.87098   0.82412   0.70291   0.00000  Uiso   1.00
H1410  H     0.67590   0.87093   0.29704   0.00000  Uiso   1.00
H1411  H     0.82412   0.62901   0.70291   0.00000  Uiso   1.00
H1412  H     0.71451   0.56516   0.97879   0.00000  Uiso   1.00
H1413  H     0.72046   0.58290   0.02752   0.00000  Uiso   1.00
H1414  H     0.67676   0.58401   0.00456   0.00000  Uiso   1.00
H1415  H     0.78549   0.56516   0.02121   0.00000  Uiso   1.00
H1416  H     0.77954   0.58290   0.97248   0.00000  Uiso   1.00
H1417  H     0.82324   0.58401   0.99544   0.00000  Uiso   1.00
H1418  H     0.93484   0.71451   0.97879   0.00000  Uiso   1.00
H1419  H     0.92588   0.87901   0.79709   0.00000  Uiso   1.00
H1420  H     0.91710   0.72046   0.02752   0.00000  Uiso   1.00
H1421  H     0.91599   0.67676   0.00456   0.00000  Uiso   1.00
H1422  H     0.93484   0.78549   0.02121   0.00000  Uiso   1.00
H1423  H     0.91710   0.77954   0.97248   0.00000  Uiso   1.00
H1424  H     0.91599   0.82324   0.99544   0.00000  Uiso   1.00
H1425  H     0.78549   0.93484   0.97879   0.00000  Uiso   1.00
H1426  H     0.77954   0.91710   0.02752   0.00000  Uiso   1.00
H1427  H     0.82324   0.91599   0.00456   0.00000  Uiso   1.00
H1428  H     0.71451   0.93484   0.02121   0.00000  Uiso   1.00
H1429  H     0.72046   0.91710   0.97248   0.00000  Uiso   1.00
H1430  H     0.87907   0.57410   0.20296   0.00000  Uiso   1.00
H1431  H     0.67676   0.91599   0.99544   0.00000  Uiso   1.00
H1432  H     0.56516   0.78549   0.97879   0.00000  Uiso   1.00
H1433  H     0.58290   0.77954   0.02752   0.00000  Uiso   1.00
H1434  H     0.58401   0.82324   0.00456   0.00000  Uiso   1.00
H1435  H     0.56516   0.71451   0.02121   0.00000  Uiso   1.00
H1436  H     0.58290   0.72046   0.97248   0.00000  Uiso   1.00
H1437  H     0.58401   0.67676   0.99544   0.00000  Uiso   1.00
H1438  H     0.96451   0.81516   0.47879   0.00000  Uiso   1.00
H1439  H     0.97046   0.83290   0.52752   0.00000  Uiso   1.00
H1440  H     0.92676   0.83401   0.50456   0.00000  Uiso   1.00
H1441  H     0.62099   0.92588   0.79709   0.00000  Uiso   1.00
H1442  H     0.53549   0.81516   0.52121   0.00000  Uiso   1.00
H1443  H     0.52954   0.83290   0.47248   0.00000  Uiso   1.00
H1444  H     0.57324   0.83401   0.49544   0.00000  Uiso   1.00
H1445  H     0.68484   0.96451   0.47879   0.00000  Uiso   1.00
H1446  H     0.66710   0.97046   0.52752   0.00000  Uiso   1.00
H1447  H     0.66599   0.92676   0.50456   0.00000  Uiso   1.00
H1448  H     0.68484   0.53549   0.52121   0.00000  Uiso   1.00
H1449  H     0.66710   0.52954   0.47248   0.00000  Uiso   1.00
H1450  H     0.66599   0.57324   0.49544   0.00000  Uiso   1.00
H1451  H     0.53549   0.68484   0.47879   0.00000  Uiso   1.00
H1452  H     0.92590   0.87907   0.20296   0.00000  Uiso   1.00
H1453  H     0.52954   0.66710   0.52752   0.00000  Uiso   1.00
H1454  H     0.57324   0.66599   0.50456   0.00000  Uiso   1.00
H1455  H     0.96451   0.68484   0.52121   0.00000  Uiso   1.00
H1456  H     0.97046   0.66710   0.47248   0.00000  Uiso   1.00
H1457  H     0.92676   0.66599   0.49544   0.00000  Uiso   1.00
H1458  H     0.81516   0.53549   0.47879   0.00000  Uiso   1.00
H1459  H     0.83290   0.52954   0.52752   0.00000  Uiso   1.00
H1460  H     0.83401   0.57324   0.50456   0.00000  Uiso   1.00
H1461  H     0.81516   0.96451   0.52121   0.00000  Uiso   1.00
H1462  H     0.83290   0.97046   0.47248   0.00000  Uiso   1.00
H1463  H     0.57412   0.62099   0.79709   0.00000  Uiso   1.00
H1464  H     0.83401   0.92676   0.49544   0.00000  Uiso   1.00
H1465  H     0.66688   0.53260   0.08841   0.00000  Uiso   1.00
H1466  H     0.70202   0.59003   0.09230   0.00000  Uiso   1.00
H1467  H     0.72507   0.57075   0.13376   0.00000  Uiso   1.00
H1468  H     0.67680   0.57941   0.13553   0.00000  Uiso   1.00
H1469  H     0.83312   0.53260   0.91159   0.00000  Uiso   1.00
H1470  H     0.79798   0.59003   0.90771   0.00000  Uiso   1.00
H1471  H     0.77493   0.57075   0.86624   0.00000  Uiso   1.00
H1472  H     0.82320   0.57941   0.86447   0.00000  Uiso   1.00
H1473  H     0.96740   0.66688   0.08841   0.00000  Uiso   1.00
H1474  H     0.62093   0.57410   0.79704   0.00000  Uiso   1.00
H1475  H     0.90997   0.70202   0.09230   0.00000  Uiso   1.00
H1476  H     0.92925   0.72507   0.13376   0.00000  Uiso   1.00
H1477  H     0.92059   0.67680   0.13553   0.00000  Uiso   1.00
H1478  H     0.96740   0.83312   0.91159   0.00000  Uiso   1.00
H1479  H     0.90997   0.79798   0.90771   0.00000  Uiso   1.00
H1480  H     0.92925   0.77493   0.86624   0.00000  Uiso   1.00
H1481  H     0.92059   0.82320   0.86447   0.00000  Uiso   1.00
H1482  H     0.83312   0.96740   0.08841   0.00000  Uiso   1.00
H1483  H     0.79798   0.90997   0.09230   0.00000  Uiso   1.00
H1484  H     0.77493   0.92925   0.13376   0.00000  Uiso   1.00
N1485  N     0.69184   0.53417   0.10207   0.00000  Uiso   1.00
N1486  N     0.55816   0.78417   0.39793   0.00000  Uiso   1.00
N1487  N     0.71583   0.94184   0.60207   0.00000  Uiso   1.00
N1488  N     0.71583   0.55816   0.39793   0.00000  Uiso   1.00
N1489  N     0.55816   0.71583   0.60207   0.00000  Uiso   1.00
N1490  N     0.94184   0.71583   0.39793   0.00000  Uiso   1.00
N1491  N     0.78417   0.55816   0.60207   0.00000  Uiso   1.00
N1492  N     0.78417   0.94184   0.39793   0.00000  Uiso   1.00
N1493  N     0.80816   0.53417   0.89793   0.00000  Uiso   1.00
N1494  N     0.96583   0.69184   0.10207   0.00000  Uiso   1.00
N1495  N     0.96583   0.80816   0.89793   0.00000  Uiso   1.00
N1496  N     0.80816   0.96583   0.10207   0.00000  Uiso   1.00
N1497  N     0.69184   0.96583   0.89793   0.00000  Uiso   1.00
N1498  N     0.53417   0.80816   0.10207   0.00000  Uiso   1.00
N1499  N     0.53417   0.69184   0.89793   0.00000  Uiso   1.00
N1500  N     0.94184   0.78417   0.60207   0.00000  Uiso   1.00
O1501  O     0.75000   0.50000   0.25000   0.00000  Uiso   1.00
O1502  O     0.75000   0.96964   0.66317   0.00000  Uiso   1.00
O1503  O     0.96964   0.75000   0.33683   0.00000  Uiso   1.00
O1504  O     0.53036   0.75000   0.66317   0.00000  Uiso   1.00
O1505  O     0.50000   0.71964   0.83683   0.00000  Uiso   1.00
O1506  O     0.50000   0.78036   0.16317   0.00000  Uiso   1.00
O1507  O     0.78036   0.50000   0.83683   0.00000  Uiso   1.00
O1508  O     0.71964   0.50000   0.16317   0.00000  Uiso   1.00
O1509  O     0.50000   0.78036   0.83683   0.00000  Uiso   1.00
O1510  O     0.50000   0.71964   0.16317   0.00000  Uiso   1.00
O1511  O     0.71964   0.50000   0.83683   0.00000  Uiso   1.00
O1512  O     0.75000   0.50000   0.75000   0.00000  Uiso   1.00
O1513  O     0.78036   0.50000   0.16317   0.00000  Uiso   1.00
O1514  O     0.70725   0.57307   0.27282   0.00000  Uiso   1.00
O1515  O     0.79274   0.92693   0.72718   0.00000  Uiso   1.00
O1516  O     0.92693   0.70726   0.27282   0.00000  Uiso   1.00
O1517  O     0.57307   0.79274   0.72718   0.00000  Uiso   1.00
O1518  O     0.79274   0.92693   0.27282   0.00000  Uiso   1.00
O1519  O     0.70725   0.57307   0.72718   0.00000  Uiso   1.00
O1520  O     0.57307   0.79274   0.27282   0.00000  Uiso   1.00
O1521  O     0.92693   0.70726   0.72718   0.00000  Uiso   1.00
O1522  O     0.70725   0.92693   0.72718   0.00000  Uiso   1.00
O1523  O     0.50000   0.75000   0.25000   0.00000  Uiso   1.00
O1524  O     0.79274   0.57307   0.27282   0.00000  Uiso   1.00
O1525  O     0.92693   0.79275   0.72718   0.00000  Uiso   1.00
O1526  O     0.57307   0.70725   0.27282   0.00000  Uiso   1.00
O1527  O     0.79274   0.57307   0.72718   0.00000  Uiso   1.00
O1528  O     0.70725   0.92693   0.27282   0.00000  Uiso   1.00
O1529  O     0.57307   0.70725   0.72718   0.00000  Uiso   1.00
O1530  O     0.92693   0.79275   0.27282   0.00000  Uiso   1.00
O1531  O     0.95725   0.82307   0.77282   0.00000  Uiso   1.00
O1532  O     0.54274   0.67693   0.22718   0.00000  Uiso   1.00
O1533  O     0.67693   0.95725   0.77282   0.00000  Uiso   1.00
O1534  O     0.50000   0.75000   0.75000   0.00000  Uiso   1.00
O1535  O     0.82307   0.54275   0.22718   0.00000  Uiso   1.00
O1536  O     0.54274   0.67693   0.77282   0.00000  Uiso   1.00
O1537  O     0.95725   0.82307   0.22718   0.00000  Uiso   1.00
O1538  O     0.82307   0.54275   0.77282   0.00000  Uiso   1.00
O1539  O     0.67693   0.95725   0.22718   0.00000  Uiso   1.00
O1540  O     0.95725   0.67693   0.22718   0.00000  Uiso   1.00
O1541  O     0.54274   0.82307   0.77282   0.00000  Uiso   1.00
O1542  O     0.67693   0.54275   0.22718   0.00000  Uiso   1.00
O1543  O     0.82307   0.95726   0.77282   0.00000  Uiso   1.00
O1544  O     0.54274   0.82307   0.22718   0.00000  Uiso   1.00
O1545  O     0.75000   0.96964   0.33683   0.00000  Uiso   1.00
O1546  O     0.95725   0.67693   0.77282   0.00000  Uiso   1.00
O1547  O     0.82307   0.95726   0.22718   0.00000  Uiso   1.00
O1548  O     0.67693   0.54275   0.77282   0.00000  Uiso   1.00
O1549  O     0.69220   0.53276   0.02190   0.00000  Uiso   1.00
O1550  O     0.80780   0.53276   0.97810   0.00000  Uiso   1.00
O1551  O     0.96724   0.69220   0.02190   0.00000  Uiso   1.00
O1552  O     0.96724   0.80780   0.97810   0.00000  Uiso   1.00
O1553  O     0.80780   0.96724   0.02190   0.00000  Uiso   1.00
O1554  O     0.69220   0.96724   0.97810   0.00000  Uiso   1.00
O1555  O     0.53276   0.80780   0.02190   0.00000  Uiso   1.00
O1556  O     0.75000   0.53036   0.66317   0.00000  Uiso   1.00
O1557  O     0.53276   0.69220   0.97810   0.00000  Uiso   1.00
O1558  O     0.94220   0.78276   0.52190   0.00000  Uiso   1.00
O1559  O     0.55780   0.78276   0.47810   0.00000  Uiso   1.00
O1560  O     0.71724   0.94220   0.52190   0.00000  Uiso   1.00
O1561  O     0.71724   0.55780   0.47810   0.00000  Uiso   1.00
O1562  O     0.55780   0.71724   0.52190   0.00000  Uiso   1.00
O1563  O     0.94220   0.71724   0.47810   0.00000  Uiso   1.00
O1564  O     0.78276   0.55780   0.52190   0.00000  Uiso   1.00
O1565  O     0.78276   0.94220   0.47810   0.00000  Uiso   1.00
O1566  O     0.53036   0.75000   0.33683   0.00000  Uiso   1.00
O1567  O     0.96964   0.75000   0.66317   0.00000  Uiso   1.00
O1568  O     0.75000   0.53036   0.33683   0.00000  Uiso   1.00
Zn1569 Zn    0.70660   0.50000   0.21760   0.00000  Uiso   1.00
Zn1570 Zn    0.54340   0.75000   0.28240   0.00000  Uiso   1.00
Zn1571 Zn    0.75000   0.95660   0.71760   0.00000  Uiso   1.00
Zn1572 Zn    0.75000   0.54340   0.28240   0.00000  Uiso   1.00
Zn1573 Zn    0.54340   0.75000   0.71760   0.00000  Uiso   1.00
Zn1574 Zn    0.95660   0.75000   0.28240   0.00000  Uiso   1.00
Zn1575 Zn    0.75000   0.54340   0.71760   0.00000  Uiso   1.00
Zn1576 Zn    0.75000   0.95660   0.28240   0.00000  Uiso   1.00
Zn1577 Zn    0.79340   0.50000   0.78240   0.00000  Uiso   1.00
Zn1578 Zn    0.50000   0.70660   0.21760   0.00000  Uiso   1.00
Zn1579 Zn    0.50000   0.79340   0.78240   0.00000  Uiso   1.00
Zn1580 Zn    0.79340   0.50000   0.21760   0.00000  Uiso   1.00
Zn1581 Zn    0.70660   0.50000   0.78240   0.00000  Uiso   1.00
Zn1582 Zn    0.50000   0.79340   0.21760   0.00000  Uiso   1.00
Zn1583 Zn    0.50000   0.70660   0.78240   0.00000  Uiso   1.00
Zn1584 Zn    0.95660   0.75000   0.71760   0.00000  Uiso   1.00
loop_
_geom_bond_atom_site_label_1
_geom_bond_atom_site_label_2
_geom_bond_distance
_geom_bond_site_symmetry_2
_ccdc_geom_bond_type
C1     C62     1.402   .     A
C1     O361    1.387   .     S
C1     C80     1.410   .     A
C2     O371    1.387   .     S
C2     C72     1.402   .     A
C2     C85     1.410   .     S
C3     C128    1.402   .     A
C3     C99     1.455   .     S
C3     C135    1.402   .     A
C4     C127    1.402   .     A
C4     C138    1.402   .     A
C4     C100    1.455   .     S
C5     C126    1.402   .     A
C5     C101    1.455   .     S
C5     C137    1.402   .     A
C6     C125    1.402   .     A
C6     C102    1.455   .     S
C6     C140    1.402   .     A
C7     C103    1.455   .     S
C7     C139    1.402   .     A
C7     C124    1.402   .     A
C8     C143    1.402   .     A
C8     C113    1.455   .     S
C8     C123    1.402   .     A
C9     C114    1.455   .     S
C9     C122    1.402   .     A
C9     C141    1.402   .     A
C10    C106    1.455   .     S
C10    C121    1.402   .     A
C10    C145    1.402   .     A
C11    C119    1.402   .     A
C11    C144    1.402   .     A
C11    C107    1.455   .     S
C12    C108    1.455   .     S
C12    C147    1.402   .     A
C12    C118    1.402   .     A
C13    C73     1.402   .     A
C13    O372    1.387   .     S
C13    C878    1.410   .     S
C14    C117    1.402   .     A
C14    C110    1.455   .     S
C14    C146    1.402   .     A
C15    C111    1.455   .     S
C15    C149    1.402   .     A
C15    C116    1.402   .     A
C16    C115    1.402   .     A
C16    C112    1.455   .     S
C16    C148    1.402   .     A
C17    C96     1.472   .     S
C17    C62     1.416   .     A
C17    C859    1.416   1_545 S
C18    C95     1.472   .     S
C18    C63     1.416   .     A
C18    C860    1.416   1_545 S
C19    C460    1.416   1_455 A
C19    C69     1.416   .     S
C19    C94     1.472   .     S
C20    C70     1.416   .     A
C20    C93     1.472   .     S
C20    C462    1.416   1_455 S
C21    C75     1.416   .     A
C21    C467    1.416   1_455 S
C21    C92     1.472   .     S
C22    C91     1.472   .     S
C22    C72     1.416   .     A
C22    C473    1.416   1_455 S
C23    C90     1.472   .     S
C23    C865    1.416   1_545 A
C23    C78     1.416   .     S
C24    O373    1.387   .     S
C24    C74     1.402   .     A
C24    C88     1.410   .     S
C25    C74     1.416   .     A
C25    C89     1.472   .     S
C25    C871    1.416   1_545 S
C26    H226    1.109   .     S
C26    H225    1.114   .     S
C26    O361    1.412   .     S
C26    H224    1.109   1_554 S
C27    H229    1.109   .     S
C27    O362    1.412   .     S
C27    H228    1.114   .     S
C27    H227    1.109   1_556 S
C28    O363    1.412   .     S
C28    H232    1.114   .     S
C28    H233    1.109   .     S
C28    H230    1.109   1_554 S
C29    H235    1.114   .     S
C29    O364    1.412   .     S
C29    H236    1.109   .     S
C29    H234    1.109   1_556 S
C30    H238    1.114   .     S
C30    H239    1.109   .     S
C30    O365    1.412   .     S
C30    H237    1.109   1_554 S
C31    H243    1.109   .     S
C31    H241    1.114   .     S
C31    O366    1.412   .     S
C31    H240    1.109   1_556 S
C32    H245    1.114   .     S
C32    H246    1.109   .     S
C32    O367    1.412   .     S
C32    H244    1.109   1_554 S
C33    H248    1.114   .     S
C33    H249    1.109   .     S
C33    O369    1.412   .     S
C33    H247    1.109   1_556 S
C34    H250    1.109   .     S
C34    O370    1.412   .     S
C34    H251    1.114   .     S
C34    H252    1.109   .     S
C35    C84     1.410   .     A
C35    C75     1.402   .     A
C35    O374    1.387   .     S
C36    H255    1.114   .     S
C36    O371    1.412   .     S
C36    H254    1.109   .     S
C36    H256    1.109   .     S
C37    H257    1.109   .     S
C37    H259    1.109   .     S
C37    H258    1.114   .     S
C37    O372    1.412   .     S
C38    H262    1.109   .     S
C38    H260    1.109   .     S
C38    H261    1.114   .     S
C38    O373    1.412   .     S
C39    H265    1.114   .     S
C39    H266    1.109   .     S
C39    O374    1.412   .     S
C39    H263    1.109   .     S
C40    H267    1.109   .     S
C40    H268    1.114   .     S
C40    H269    1.109   .     S
C40    O375    1.412   .     S
C41    H272    1.109   .     S
C41    H271    1.114   .     S
C41    O376    1.412   .     S
C41    H270    1.109   .     S
C42    H276    1.109   .     S
C42    H274    1.114   .     S
C42    H273    1.109   .     S
C42    O377    1.412   .     S
C43    N297    1.448   .     S
C43    H279    1.110   .     S
C43    H280    1.110   .     S
C43    H278    1.109   .     S
C44    H283    1.110   .     S
C44    N305    1.448   .     S
C44    H282    1.109   .     S
C44    H284    1.110   .     S
C45    H289    1.110   .     S
C45    H288    1.110   .     S
C45    N306    1.448   .     S
C45    H287    1.109   .     S
C46    C77     1.402   .     A
C46    C481    1.410   .     A
C46    O375    1.387   .     S
C47    H291    1.109   .     S
C47    N307    1.448   .     S
C47    H293    1.110   .     S
C47    H292    1.110   .     S
C48    H296    1.110   .     S
C48    N308    1.448   .     S
C48    H295    1.109   .     S
C48    H155    1.110   .     S
C49    H159    1.110   .     S
C49    N309    1.448   .     S
C49    H157    1.109   .     S
C49    H158    1.110   .     S
C50    H162    1.110   .     S
C50    H163    1.110   .     S
C50    H161    1.109   .     S
C50    N310    1.448   .     S
C51    H167    1.110   .     S
C51    N311    1.448   .     S
C51    H168    1.110   .     S
C51    H166    1.109   .     S
C52    H170    1.109   .     S
C52    N312    1.448   .     S
C52    H172    1.110   .     S
C52    H171    1.110   .     S
C53    H177    1.110   .     S
C53    N298    1.448   .     S
C53    H175    1.110   .     S
C53    H174    1.109   .     S
C54    H181    1.110   .     S
C54    H179    1.109   .     S
C54    N299    1.448   .     S
C54    H180    1.110   .     S
C55    H184    1.110   .     S
C55    H183    1.109   .     S
C55    H185    1.110   .     S
C55    N300    1.448   .     S
C56    N301    1.448   .     S
C56    H190    1.110   .     S
C56    H188    1.109   .     S
C56    H189    1.110   .     S
C57    O376    1.387   .     S
C57    C78     1.402   .     A
C57    C86     1.410   .     A
C58    H192    1.109   .     S
C58    H193    1.110   .     S
C58    H194    1.110   .     S
C58    N302    1.448   .     S
C59    N303    1.448   .     S
C59    H196    1.109   .     S
C59    H199    1.110   .     S
C59    H197    1.110   .     S
C60    H202    1.110   .     S
C60    N304    1.448   .     S
C60    H201    1.109   .     S
C60    H203    1.110   .     S
C61    C880    1.410   .     A
C61    C79     1.402   .     A
C61    O377    1.387   .     S
C62    N297    1.428   .     S
C63    C65     1.402   .     A
C63    N305    1.428   .     S
C64    N306    1.428   .     S
C64    C76     1.402   .     A
C64    C415    1.416   .     A
C65    O362    1.387   .     S
C65    C81     1.410   .     A
C66    N307    1.428   .     S
C66    C87     1.402   .     A
C66    C416    1.416   .     S
C67    C98     1.402   .     A
C67    N308    1.428   .     S
C67    C809    1.416   .     S
C68    N309    1.428   .     S
C68    C109    1.402   .     A
C68    C810    1.416   .     S
C69    N310    1.428   .     S
C69    C120    1.402   .     A
C70    N311    1.428   .     S
C70    C131    1.402   .     A
C71    N312    1.428   .     S
C71    C142    1.402   .     A
C71    C417    1.416   .     S
C72    N298    1.428   .     S
C73    N299    1.428   .     S
C73    C815    1.416   .     A
C74    N300    1.428   .     S
C75    N301    1.428   .     S
C76    O363    1.387   .     S
C76    C478    1.410   .     S
C77    N302    1.428   .     S
C77    C418    1.416   .     S
C78    N303    1.428   .     S
C79    N304    1.428   .     S
C79    C817    1.416   .     S
C80    C81     1.469   1_554 S
C80    C890    1.410   1_545 S
C81    C80     1.469   1_556 S
C81    C901    1.410   1_545 S
C82    C120    1.410   .     A
C82    C472    1.410   1_455 S
C82    C83     1.469   1_554 S
C83    C131    1.410   .     A
C83    C82     1.469   1_556 S
C83    C483    1.410   1_455 S
C84    C85     1.469   .     S
C84    C538    1.410   1_455 S
C85    C442    1.410   1_455 A
C86    C805    1.410   1_545 S
C86    C88     1.469   .     S
C87    O364    1.387   .     S
C87    C479    1.410   .     S
C88    C853    1.410   1_545 A
C89    O380    1.282   .     A
C89    O1149   1.282   1_545 S
C90    O1106   1.282   1_545 A
C90    O368    1.282   .     S
C91    O378    1.282   .     A
C91    O711    1.282   1_455 S
C92    O775    1.282   1_455 A
C92    O316    1.282   .     S
C93    O317    1.282   .     A
C93    O321    1.282   .     A
C94    O318    1.282   .     A
C94    O322    1.282   .     S
C95    O319    1.282   .     A
C95    O323    1.282   .     A
C96    O320    1.282   .     A
C96    O325    1.282   .     A
C97    C152    1.455   .     S
C97    O326    1.280   .     A
C97    O354    1.280   .     A
C98    O365    1.387   .     S
C98    C872    1.410   .     S
C99    O327    1.280   .     A
C99    O355    1.280   .     A
C100   O352    1.280   .     A
C100   O328    1.280   .     A
C101   O353    1.280   .     A
C101   O329    1.280   .     A
C102   O359    1.280   .     A
C102   O330    1.280   .     A
C103   O360    1.280   .     A
C103   O331    1.280   .     A
C104   C150    1.455   .     S
C104   O332    1.280   .     A
C104   O356    1.280   .     A
C105   O358    1.280   .     A
C105   C151    1.455   .     S
C105   O333    1.280   .     A
C106   O334    1.280   .     A
C106   O345    1.280   .     A
C107   O336    1.280   .     A
C107   O347    1.280   .     A
C108   O337    1.280   .     A
C108   O343    1.280   .     A
C109   O366    1.387   .     S
C109   C873    1.410   .     S
C110   O338    1.280   .     A
C110   O344    1.280   .     A
C111   O350    1.280   .     A
C111   O339    1.280   .     A
C112   O351    1.280   .     A
C112   O340    1.280   .     A
C113   O348    1.280   .     A
C113   O341    1.280   .     A
C114   O349    1.280   .     A
C114   O342    1.280   .     A
C115   H153    1.083   .     S
C115   C132    1.386   .     A
C116   H209    1.083   .     S
C116   C130    1.386   .     A
C117   C129    1.386   .     A
C117   H220    1.083   .     S
C118   H231    1.083   .     S
C118   C128    1.386   .     A
C119   C127    1.386   .     A
C119   H242    1.083   .     S
C120   O367    1.387   .     S
C121   H253    1.083   .     S
C121   C126    1.386   .     A
C122   C125    1.386   .     A
C122   H264    1.083   .     S
C123   H275    1.083   .     S
C123   C124    1.386   .     A
C124   H286    1.083   .     S
C125   H154    1.083   .     S
C126   H165    1.083   .     S
C127   H176    1.083   .     S
C128   H187    1.083   .     S
C129   C152    1.402   .     A
C129   H198    1.083   .     S
C130   C151    1.402   .     A
C130   H204    1.083   .     S
C131   O369    1.387   .     S
C132   C150    1.402   .     A
C132   H205    1.083   .     S
C133   C151    1.402   .     A
C133   H206    1.083   .     S
C133   C149    1.386   .     A
C134   C150    1.402   .     A
C134   C148    1.386   .     A
C134   H207    1.083   .     S
C135   C147    1.386   .     A
C135   H208    1.083   .     S
C136   C152    1.402   .     A
C136   H210    1.083   .     S
C136   C146    1.386   .     A
C137   C145    1.386   .     A
C137   H211    1.083   .     S
C138   H212    1.083   .     S
C138   C144    1.386   .     A
C139   C143    1.386   .     A
C139   H213    1.083   .     S
C140   C141    1.386   .     A
C140   H214    1.083   .     S
C141   H215    1.083   .     S
C142   O370    1.387   .     S
C142   C480    1.410   .     S
C143   H216    1.083   .     S
C144   H217    1.083   .     S
C145   H218    1.083   .     S
C146   H219    1.083   .     S
C147   H221    1.083   .     S
C148   H222    1.083   .     S
C149   H223    1.083   .     S
H156   N309    1.031   .     S
H160   N310    1.031   .     S
H164   N311    1.031   .     S
H169   N312    1.031   .     S
H173   N298    1.031   .     S
H178   N299    1.031   .     S
H182   N300    1.031   .     S
H186   N301    1.031   .     S
H191   N302    1.031   .     S
H195   N303    1.031   .     S
H200   N304    1.031   .     S
H224   C26     1.109   1_556 S
H227   C27     1.109   1_554 S
H230   C28     1.109   1_556 S
H234   C29     1.109   1_554 S
H237   C30     1.109   1_556 S
H240   C31     1.109   1_554 S
H244   C32     1.109   1_556 S
H247   C33     1.109   1_554 S
H277   N297    1.031   .     S
H281   N305    1.031   .     S
H285   N306    1.031   .     S
H290   N307    1.031   .     S
H294   N308    1.031   .     S
O313   Zn392   1.947   .     S
O313   Zn384   1.947   .     S
O313   Zn381   1.947   .     S
O313   Zn1180  1.947   1_545 S
O314   C882    1.282   .     A
O314   Zn383   1.944   .     S
O315   Zn386   1.944   .     S
O315   C487    1.282   .     S
O316   Zn385   1.944   .     S
O317   Zn395   1.944   .     S
O318   Zn394   1.944   .     S
O319   Zn389   1.944   .     S
O320   Zn381   1.944   .     S
O321   Zn391   1.944   .     S
O322   Zn390   1.944   .     S
O323   Zn393   1.944   .     S
O324   Zn393   1.947   .     S
O324   Zn387   1.947   .     S
O324   Zn389   1.947   .     S
O324   Zn1175  1.947   1_545 S
O325   Zn392   1.944   .     S
O326   Zn384   1.936   .     S
O327   Zn383   1.936   .     S
O328   Zn386   1.936   .     S
O329   Zn385   1.936   .     S
O330   Zn388   1.936   .     S
O331   Zn387   1.936   .     S
O332   Zn382   1.936   .     S
O333   Zn396   1.936   .     S
O334   Zn383   1.936   .     S
O335   Zn782   1.947   1_455 S
O335   Zn382   1.947   .     S
O335   Zn390   1.947   .     S
O335   Zn394   1.947   .     S
O336   Zn384   1.936   .     S
O337   Zn396   1.936   .     S
O338   Zn382   1.936   .     S
O339   Zn387   1.936   .     S
O340   Zn388   1.936   .     S
O341   Zn385   1.936   .     S
O342   Zn386   1.936   .     S
O343   Zn787   1.936   .     S
O344   Zn390   1.936   .     S
O345   Zn1185  1.936   .     S
O346   Zn395   1.947   .     S
O346   Zn385   1.947   .     S
O346   Zn391   1.947   .     S
O346   Zn792   1.947   1_455 S
O347   Zn392   1.936   .     S
O348   Zn395   1.936   .     S
O349   Zn790   1.936   .     S
O350   Zn389   1.936   .     S
O351   Zn1173  1.936   .     S
O352   Zn786   1.936   .     S
O353   Zn391   1.936   .     S
O354   Zn381   1.936   .     S
O355   Zn1181  1.936   .     S
O356   Zn394   1.936   .     S
O357   Zn388   1.944   .     S
O357   C881    1.282   .     S
O358   Zn791   1.936   .     S
O359   Zn1184  1.936   .     S
O360   Zn393   1.936   .     S
O368   Zn387   1.944   .     S
O378   Zn382   1.944   .     S
O379   Zn396   1.944   .     S
O379   C488    1.282   .     A
O380   Zn384   1.944   .     S
Zn381  O1143   1.936   1_545 S
Zn383  O1116   1.947   .     S
Zn386  O731    1.947   .     S
Zn388  O1105   1.947   .     S
Zn389  O1147   1.936   1_545 S
Zn390  O748    1.936   1_455 S
Zn391  O739    1.936   1_455 S
Zn392  O1151   1.936   1_545 S
Zn393  O1137   1.936   1_545 S
Zn394  O745    1.936   1_455 S
Zn395  O754    1.936   1_455 S
Zn396  O742    1.947   .     S
C397   C458    1.402   .     A
C397   O757    1.387   .     S
C397   C476    1.410   .     A
C398   O767    1.387   .     S
C398   C468    1.402   .     A
C398   C481    1.410   .     S
C399   C524    1.402   .     A
C399   C495    1.455   .     S
C399   C531    1.402   .     A
C400   C523    1.402   .     A
C400   C534    1.402   .     A
C400   C496    1.455   .     S
C401   C522    1.402   .     A
C401   C497    1.455   .     S
C401   C533    1.402   .     A
C402   C521    1.402   .     A
C402   C498    1.455   .     S
C402   C536    1.402   .     A
C403   C499    1.455   .     S
C403   C535    1.402   .     A
C403   C520    1.402   .     A
C404   C539    1.402   .     A
C404   C509    1.455   .     S
C404   C519    1.402   .     A
C405   C510    1.455   .     S
C405   C518    1.402   .     A
C405   C537    1.402   .     A
C406   C502    1.455   .     S
C406   C517    1.402   .     A
C406   C541    1.402   .     A
C407   C515    1.402   .     A
C407   C540    1.402   .     A
C407   C503    1.455   .     S
C408   C504    1.455   .     S
C408   C543    1.402   .     A
C408   C514    1.402   .     A
C409   C469    1.402   .     A
C409   O768    1.387   .     S
C409   C1274   1.410   .     S
C410   C513    1.402   .     A
C410   C506    1.455   .     S
C410   C542    1.402   .     A
C411   C507    1.455   .     S
C411   C545    1.402   .     A
C411   C512    1.402   .     A
C412   C511    1.402   .     A
C412   C508    1.455   .     S
C412   C544    1.402   .     A
C413   C492    1.472   .     S
C413   C458    1.416   .     A
C413   C1255   1.416   1_545 S
C414   C491    1.472   .     S
C414   C459    1.416   .     A
C414   C1256   1.416   1_545 S
C415   C465    1.416   .     S
C415   C490    1.472   .     S
C416   C466    1.416   .     A
C416   C489    1.472   .     S
C417   C471    1.416   .     A
C417   C488    1.472   .     S
C418   C487    1.472   .     S
C418   C468    1.416   .     A
C419   C486    1.472   .     S
C419   C1261   1.416   1_545 A
C419   C474    1.416   .     S
C420   O769    1.387   .     S
C420   C470    1.402   .     A
C420   C484    1.410   .     S
C421   C470    1.416   .     A
C421   C485    1.472   .     S
C421   C1267   1.416   1_545 S
C422   H622    1.109   .     S
C422   H621    1.114   .     S
C422   O757    1.412   .     S
C422   H620    1.109   1_554 S
C423   H625    1.109   .     S
C423   O758    1.412   .     S
C423   H624    1.114   .     S
C423   H623    1.109   1_556 S
C424   O759    1.412   .     S
C424   H628    1.114   .     S
C424   H629    1.109   .     S
C424   H626    1.109   1_554 S
C425   H631    1.114   .     S
C425   O760    1.412   .     S
C425   H632    1.109   .     S
C425   H630    1.109   1_556 S
C426   H634    1.114   .     S
C426   H635    1.109   .     S
C426   O761    1.412   .     S
C426   H633    1.109   1_554 S
C427   H639    1.109   .     S
C427   H637    1.114   .     S
C427   O762    1.412   .     S
C427   H636    1.109   1_556 S
C428   H641    1.114   .     S
C428   H642    1.109   .     S
C428   O763    1.412   .     S
C428   H640    1.109   1_554 S
C429   H644    1.114   .     S
C429   H645    1.109   .     S
C429   O765    1.412   .     S
C429   H643    1.109   1_556 S
C430   H646    1.109   .     S
C430   O766    1.412   .     S
C430   H647    1.114   .     S
C430   H648    1.109   .     S
C431   C480    1.410   .     A
C431   C471    1.402   .     A
C431   O770    1.387   .     S
C432   H651    1.114   .     S
C432   O767    1.412   .     S
C432   H650    1.109   .     S
C432   H652    1.109   .     S
C433   H653    1.109   .     S
C433   H655    1.109   .     S
C433   H654    1.114   .     S
C433   O768    1.412   .     S
C434   H658    1.109   .     S
C434   H656    1.109   .     S
C434   H657    1.114   .     S
C434   O769    1.412   .     S
C435   H661    1.114   .     S
C435   H662    1.109   .     S
C435   O770    1.412   .     S
C435   H659    1.109   .     S
C436   H663    1.109   .     S
C436   H664    1.114   .     S
C436   H665    1.109   .     S
C436   O771    1.412   .     S
C437   H668    1.109   .     S
C437   H667    1.114   .     S
C437   O772    1.412   .     S
C437   H666    1.109   .     S
C438   H672    1.109   .     S
C438   H670    1.114   .     S
C438   H669    1.109   .     S
C438   O773    1.412   .     S
C439   N693    1.448   .     S
C439   H675    1.110   .     S
C439   H676    1.110   .     S
C439   H674    1.109   .     S
C440   H679    1.110   .     S
C440   N701    1.448   .     S
C440   H678    1.109   .     S
C440   H680    1.110   .     S
C441   H685    1.110   .     S
C441   H684    1.110   .     S
C441   N702    1.448   .     S
C441   H683    1.109   .     S
C442   C473    1.402   .     A
C442   C85     1.410   1_655 A
C442   O771    1.387   .     S
C443   H687    1.109   .     S
C443   N703    1.448   .     S
C443   H689    1.110   .     S
C443   H688    1.110   .     S
C444   H692    1.110   .     S
C444   N704    1.448   .     S
C444   H691    1.109   .     S
C444   H551    1.110   .     S
C445   H555    1.110   .     S
C445   N705    1.448   .     S
C445   H553    1.109   .     S
C445   H554    1.110   .     S
C446   H558    1.110   .     S
C446   H559    1.110   .     S
C446   H557    1.109   .     S
C446   N706    1.448   .     S
C447   H563    1.110   .     S
C447   N707    1.448   .     S
C447   H564    1.110   .     S
C447   H562    1.109   .     S
C448   H566    1.109   .     S
C448   N708    1.448   .     S
C448   H568    1.110   .     S
C448   H567    1.110   .     S
C449   H573    1.110   .     S
C449   N694    1.448   .     S
C449   H571    1.110   .     S
C449   H570    1.109   .     S
C450   H577    1.110   .     S
C450   H575    1.109   .     S
C450   N695    1.448   .     S
C450   H576    1.110   .     S
C451   H580    1.110   .     S
C451   H579    1.109   .     S
C451   H581    1.110   .     S
C451   N696    1.448   .     S
C452   N697    1.448   .     S
C452   H586    1.110   .     S
C452   H584    1.109   .     S
C452   H585    1.110   .     S
C453   O772    1.387   .     S
C453   C474    1.402   .     A
C453   C482    1.410   .     A
C454   H588    1.109   .     S
C454   H589    1.110   .     S
C454   H590    1.110   .     S
C454   N698    1.448   .     S
C455   N699    1.448   .     S
C455   H592    1.109   .     S
C455   H595    1.110   .     S
C455   H593    1.110   .     S
C456   H598    1.110   .     S
C456   N700    1.448   .     S
C456   H597    1.109   .     S
C456   H599    1.110   .     S
C457   C1276   1.410   .     A
C457   C475    1.402   .     A
C457   O773    1.387   .     S
C458   N693    1.428   .     S
C459   C461    1.402   .     A
C459   N701    1.428   .     S
C460   N702    1.428   .     S
C460   C472    1.402   .     A
C460   C19     1.416   1_655 A
C461   O758    1.387   .     S
C461   C477    1.410   .     A
C462   N703    1.428   .     S
C462   C483    1.402   .     A
C462   C20     1.416   1_655 S
C463   C494    1.402   .     A
C463   N704    1.428   .     S
C463   C1205   1.416   .     S
C464   N705    1.428   .     S
C464   C505    1.402   .     A
C464   C1206   1.416   .     S
C465   N706    1.428   .     S
C465   C516    1.402   .     A
C466   N707    1.428   .     S
C466   C527    1.402   .     A
C467   N708    1.428   .     S
C467   C538    1.402   .     A
C467   C21     1.416   1_655 S
C468   N694    1.428   .     S
C469   N695    1.428   .     S
C469   C1211   1.416   .     A
C470   N696    1.428   .     S
C471   N697    1.428   .     S
C472   O759    1.387   .     S
C472   C82     1.410   1_655 S
C473   N698    1.428   .     S
C473   C22     1.416   1_655 S
C474   N699    1.428   .     S
C475   N700    1.428   .     S
C475   C1213   1.416   .     S
C476   C477    1.469   1_554 S
C476   C1286   1.410   1_545 S
C477   C476    1.469   1_556 S
C477   C1297   1.410   1_545 S
C478   C516    1.410   .     A
C478   C479    1.469   1_554 S
C479   C527    1.410   .     A
C479   C478    1.469   1_556 S
C480   C481    1.469   .     S
C482   C1201   1.410   1_545 S
C482   C484    1.469   .     S
C483   O760    1.387   .     S
C483   C83     1.410   1_655 S
C484   C1249   1.410   1_545 A
C485   O776    1.282   .     A
C485   O1545   1.282   1_545 S
C486   O1502   1.282   1_545 A
C486   O764    1.282   .     S
C487   O774    1.282   .     A
C488   O712    1.282   .     S
C489   O713    1.282   .     A
C489   O717    1.282   .     A
C490   O714    1.282   .     A
C490   O718    1.282   .     S
C491   O715    1.282   .     A
C491   O719    1.282   .     A
C492   O716    1.282   .     A
C492   O721    1.282   .     A
C493   C548    1.455   .     S
C493   O722    1.280   .     A
C493   O750    1.280   .     A
C494   O761    1.387   .     S
C494   C1268   1.410   .     S
C495   O723    1.280   .     A
C495   O751    1.280   .     A
C496   O748    1.280   .     A
C496   O724    1.280   .     A
C497   O749    1.280   .     A
C497   O725    1.280   .     A
C498   O755    1.280   .     A
C498   O726    1.280   .     A
C499   O756    1.280   .     A
C499   O727    1.280   .     A
C500   C546    1.455   .     S
C500   O728    1.280   .     A
C500   O752    1.280   .     A
C501   O754    1.280   .     A
C501   C547    1.455   .     S
C501   O729    1.280   .     A
C502   O730    1.280   .     A
C502   O741    1.280   .     A
C503   O732    1.280   .     A
C503   O743    1.280   .     A
C504   O733    1.280   .     A
C504   O739    1.280   .     A
C505   O762    1.387   .     S
C505   C1269   1.410   .     S
C506   O734    1.280   .     A
C506   O740    1.280   .     A
C507   O746    1.280   .     A
C507   O735    1.280   .     A
C508   O747    1.280   .     A
C508   O736    1.280   .     A
C509   O744    1.280   .     A
C509   O737    1.280   .     A
C510   O745    1.280   .     A
C510   O738    1.280   .     A
C511   H549    1.083   .     S
C511   C528    1.386   .     A
C512   H605    1.083   .     S
C512   C526    1.386   .     A
C513   C525    1.386   .     A
C513   H616    1.083   .     S
C514   H627    1.083   .     S
C514   C524    1.386   .     A
C515   C523    1.386   .     A
C515   H638    1.083   .     S
C516   O763    1.387   .     S
C517   H649    1.083   .     S
C517   C522    1.386   .     A
C518   C521    1.386   .     A
C518   H660    1.083   .     S
C519   H671    1.083   .     S
C519   C520    1.386   .     A
C520   H682    1.083   .     S
C521   H550    1.083   .     S
C522   H561    1.083   .     S
C523   H572    1.083   .     S
C524   H583    1.083   .     S
C525   C548    1.402   .     A
C525   H594    1.083   .     S
C526   C547    1.402   .     A
C526   H600    1.083   .     S
C527   O765    1.387   .     S
C528   C546    1.402   .     A
C528   H601    1.083   .     S
C529   C547    1.402   .     A
C529   H602    1.083   .     S
C529   C545    1.386   .     A
C530   C546    1.402   .     A
C530   C544    1.386   .     A
C530   H603    1.083   .     S
C531   C543    1.386   .     A
C531   H604    1.083   .     S
C532   C548    1.402   .     A
C532   H606    1.083   .     S
C532   C542    1.386   .     A
C533   C541    1.386   .     A
C533   H607    1.083   .     S
C534   H608    1.083   .     S
C534   C540    1.386   .     A
C535   C539    1.386   .     A
C535   H609    1.083   .     S
C536   C537    1.386   .     A
C536   H610    1.083   .     S
C537   H611    1.083   .     S
C538   O766    1.387   .     S
C538   C84     1.410   1_655 S
C539   H612    1.083   .     S
C540   H613    1.083   .     S
C541   H614    1.083   .     S
C542   H615    1.083   .     S
C543   H617    1.083   .     S
C544   H618    1.083   .     S
C545   H619    1.083   .     S
H552   N705    1.031   .     S
H556   N706    1.031   .     S
H560   N707    1.031   .     S
H565   N708    1.031   .     S
H569   N694    1.031   .     S
H574   N695    1.031   .     S
H578   N696    1.031   .     S
H582   N697    1.031   .     S
H587   N698    1.031   .     S
H591   N699    1.031   .     S
H596   N700    1.031   .     S
H620   C422    1.109   1_556 S
H623   C423    1.109   1_554 S
H626   C424    1.109   1_556 S
H630   C425    1.109   1_554 S
H633   C426    1.109   1_556 S
H636   C427    1.109   1_554 S
H640   C428    1.109   1_556 S
H643   C429    1.109   1_554 S
H673   N693    1.031   .     S
H677   N701    1.031   .     S
H681   N702    1.031   .     S
H686   N703    1.031   .     S
H690   N704    1.031   .     S
O709   Zn788   1.947   .     S
O709   Zn780   1.947   .     S
O709   Zn777   1.947   .     S
O709   Zn1576  1.947   1_545 S
O710   C1278   1.282   .     A
O710   Zn779   1.944   .     S
O711   Zn782   1.944   .     S
O711   C91     1.282   1_655 S
O712   Zn781   1.944   .     S
O713   Zn791   1.944   .     S
O714   Zn790   1.944   .     S
O715   Zn785   1.944   .     S
O716   Zn777   1.944   .     S
O717   Zn787   1.944   .     S
O718   Zn786   1.944   .     S
O719   Zn789   1.944   .     S
O720   Zn789   1.947   .     S
O720   Zn783   1.947   .     S
O720   Zn785   1.947   .     S
O720   Zn1571  1.947   1_545 S
O721   Zn788   1.944   .     S
O722   Zn780   1.936   .     S
O723   Zn779   1.936   .     S
O724   Zn782   1.936   .     S
O725   Zn781   1.936   .     S
O726   Zn784   1.936   .     S
O727   Zn783   1.936   .     S
O728   Zn778   1.936   .     S
O729   Zn792   1.936   .     S
O730   Zn779   1.936   .     S
O731   Zn778   1.947   .     S
O731   Zn786   1.947   .     S
O731   Zn790   1.947   .     S
O732   Zn780   1.936   .     S
O733   Zn792   1.936   .     S
O734   Zn778   1.936   .     S
O735   Zn783   1.936   .     S
O736   Zn784   1.936   .     S
O737   Zn781   1.936   .     S
O738   Zn782   1.936   .     S
O739   Zn391   1.936   1_655 S
O740   Zn786   1.936   .     S
O741   Zn1581  1.936   .     S
O742   Zn791   1.947   .     S
O742   Zn781   1.947   .     S
O742   Zn787   1.947   .     S
O743   Zn788   1.936   .     S
O744   Zn791   1.936   .     S
O745   Zn394   1.936   1_655 S
O746   Zn785   1.936   .     S
O747   Zn1569  1.936   .     S
O748   Zn390   1.936   1_655 S
O749   Zn787   1.936   .     S
O750   Zn777   1.936   .     S
O751   Zn1577  1.936   .     S
O752   Zn790   1.936   .     S
O753   Zn784   1.944   .     S
O753   C1277   1.282   .     S
O754   Zn395   1.936   1_655 S
O755   Zn1580  1.936   .     S
O756   Zn789   1.936   .     S
O764   Zn783   1.944   .     S
O774   Zn778   1.944   .     S
O775   Zn792   1.944   .     S
O775   C92     1.282   1_655 A
O776   Zn780   1.944   .     S
Zn777  O1539   1.936   1_545 S
Zn779  O1512   1.947   .     S
Zn782  O335    1.947   1_655 S
Zn784  O1501   1.947   .     S
Zn785  O1543   1.936   1_545 S
Zn788  O1547   1.936   1_545 S
Zn789  O1533   1.936   1_545 S
Zn792  O346    1.947   1_655 S
C793   C854    1.402   .     A
C793   O1153   1.387   .     S
C793   C872    1.410   .     A
C794   O1163   1.387   .     S
C794   C864    1.402   .     A
C794   C877    1.410   .     S
C795   C920    1.402   .     A
C795   C891    1.455   .     S
C795   C927    1.402   .     A
C796   C919    1.402   .     A
C796   C930    1.402   .     A
C796   C892    1.455   .     S
C797   C918    1.402   .     A
C797   C893    1.455   .     S
C797   C929    1.402   .     A
C798   C917    1.402   .     A
C798   C894    1.455   .     S
C798   C932    1.402   .     A
C799   C895    1.455   .     S
C799   C931    1.402   .     A
C799   C916    1.402   .     A
C800   C935    1.402   .     A
C800   C905    1.455   .     S
C800   C915    1.402   .     A
C801   C906    1.455   .     S
C801   C914    1.402   .     A
C801   C933    1.402   .     A
C802   C898    1.455   .     S
C802   C913    1.402   .     A
C802   C937    1.402   .     A
C803   C911    1.402   .     A
C803   C936    1.402   .     A
C803   C899    1.455   .     S
C804   C900    1.455   .     S
C804   C939    1.402   .     A
C804   C910    1.402   .     A
C805   C865    1.402   .     A
C805   O1164   1.387   .     S
C805   C86     1.410   1_565 S
C806   C909    1.402   .     A
C806   C902    1.455   .     S
C806   C938    1.402   .     A
C807   C903    1.455   .     S
C807   C941    1.402   .     A
C807   C908    1.402   .     A
C808   C907    1.402   .     A
C808   C904    1.455   .     S
C808   C940    1.402   .     A
C809   C888    1.472   .     S
C809   C854    1.416   .     A
C810   C887    1.472   .     S
C810   C855    1.416   .     A
C811   C1252   1.416   1_455 A
C811   C861    1.416   .     S
C811   C886    1.472   .     S
C812   C862    1.416   .     A
C812   C885    1.472   .     S
C812   C1254   1.416   1_455 S
C813   C867    1.416   .     A
C813   C1259   1.416   1_455 S
C813   C884    1.472   .     S
C814   C883    1.472   .     S
C814   C864    1.416   .     A
C814   C1265   1.416   1_455 S
C815   C882    1.472   .     S
C815   C870    1.416   .     S
C816   O1165   1.387   .     S
C816   C866    1.402   .     A
C816   C880    1.410   .     S
C817   C866    1.416   .     A
C817   C881    1.472   .     S
C818   H1018   1.109   .     S
C818   H1017   1.114   .     S
C818   O1153   1.412   .     S
C818   H1016   1.109   1_554 S
C819   H1021   1.109   .     S
C819   O1154   1.412   .     S
C819   H1020   1.114   .     S
C819   H1019   1.109   1_556 S
C820   O1155   1.412   .     S
C820   H1024   1.114   .     S
C820   H1025   1.109   .     S
C820   H1022   1.109   1_554 S
C821   H1027   1.114   .     S
C821   O1156   1.412   .     S
C821   H1028   1.109   .     S
C821   H1026   1.109   1_556 S
C822   H1030   1.114   .     S
C822   H1031   1.109   .     S
C822   O1157   1.412   .     S
C822   H1029   1.109   1_554 S
C823   H1035   1.109   .     S
C823   H1033   1.114   .     S
C823   O1158   1.412   .     S
C823   H1032   1.109   1_556 S
C824   H1037   1.114   .     S
C824   H1038   1.109   .     S
C824   O1159   1.412   .     S
C824   H1036   1.109   1_554 S
C825   H1040   1.114   .     S
C825   H1041   1.109   .     S
C825   O1161   1.412   .     S
C825   H1039   1.109   1_556 S
C826   H1042   1.109   .     S
C826   O1162   1.412   .     S
C826   H1043   1.114   .     S
C826   H1044   1.109   .     S
C827   C876    1.410   .     A
C827   C867    1.402   .     A
C827   O1166   1.387   .     S
C828   H1047   1.114   .     S
C828   O1163   1.412   .     S
C828   H1046   1.109   .     S
C828   H1048   1.109   .     S
C829   H1049   1.109   .     S
C829   H1051   1.109   .     S
C829   H1050   1.114   .     S
C829   O1164   1.412   .     S
C830   H1054   1.109   .     S
C830   H1052   1.109   .     S
C830   H1053   1.114   .     S
C830   O1165   1.412   .     S
C831   H1057   1.114   .     S
C831   H1058   1.109   .     S
C831   O1166   1.412   .     S
C831   H1055   1.109   .     S
C832   H1059   1.109   .     S
C832   H1060   1.114   .     S
C832   H1061   1.109   .     S
C832   O1167   1.412   .     S
C833   H1064   1.109   .     S
C833   H1063   1.114   .     S
C833   O1168   1.412   .     S
C833   H1062   1.109   .     S
C834   H1068   1.109   .     S
C834   H1066   1.114   .     S
C834   H1065   1.109   .     S
C834   O1169   1.412   .     S
C835   N1089   1.448   .     S
C835   H1071   1.110   .     S
C835   H1072   1.110   .     S
C835   H1070   1.109   .     S
C836   H1075   1.110   .     S
C836   N1097   1.448   .     S
C836   H1074   1.109   .     S
C836   H1076   1.110   .     S
C837   H1081   1.110   .     S
C837   H1080   1.110   .     S
C837   N1098   1.448   .     S
C837   H1079   1.109   .     S
C838   C869    1.402   .     A
C838   C1273   1.410   .     A
C838   O1167   1.387   .     S
C839   H1083   1.109   .     S
C839   N1099   1.448   .     S
C839   H1085   1.110   .     S
C839   H1084   1.110   .     S
C840   H1088   1.110   .     S
C840   N1100   1.448   .     S
C840   H1087   1.109   .     S
C840   H947    1.110   .     S
C841   H951    1.110   .     S
C841   N1101   1.448   .     S
C841   H949    1.109   .     S
C841   H950    1.110   .     S
C842   H954    1.110   .     S
C842   H955    1.110   .     S
C842   H953    1.109   .     S
C842   N1102   1.448   .     S
C843   H959    1.110   .     S
C843   N1103   1.448   .     S
C843   H960    1.110   .     S
C843   H958    1.109   .     S
C844   H962    1.109   .     S
C844   N1104   1.448   .     S
C844   H964    1.110   .     S
C844   H963    1.110   .     S
C845   H969    1.110   .     S
C845   N1090   1.448   .     S
C845   H967    1.110   .     S
C845   H966    1.109   .     S
C846   H973    1.110   .     S
C846   H971    1.109   .     S
C846   N1091   1.448   .     S
C846   H972    1.110   .     S
C847   H976    1.110   .     S
C847   H975    1.109   .     S
C847   H977    1.110   .     S
C847   N1092   1.448   .     S
C848   N1093   1.448   .     S
C848   H982    1.110   .     S
C848   H980    1.109   .     S
C848   H981    1.110   .     S
C849   O1168   1.387   .     S
C849   C870    1.402   .     A
C849   C878    1.410   .     A
C850   H984    1.109   .     S
C850   H985    1.110   .     S
C850   H986    1.110   .     S
C850   N1094   1.448   .     S
C851   N1095   1.448   .     S
C851   H988    1.109   .     S
C851   H991    1.110   .     S
C851   H989    1.110   .     S
C852   H994    1.110   .     S
C852   N1096   1.448   .     S
C852   H993    1.109   .     S
C852   H995    1.110   .     S
C853   C88     1.410   1_565 A
C853   C871    1.402   .     A
C853   O1169   1.387   .     S
C854   N1089   1.428   .     S
C855   C857    1.402   .     A
C855   N1097   1.428   .     S
C856   N1098   1.428   .     S
C856   C868    1.402   .     A
C856   C1207   1.416   .     A
C857   O1154   1.387   .     S
C857   C873    1.410   .     A
C858   N1099   1.428   .     S
C858   C879    1.402   .     A
C858   C1208   1.416   .     S
C859   C890    1.402   .     A
C859   N1100   1.428   .     S
C859   C17     1.416   1_565 S
C860   N1101   1.428   .     S
C860   C901    1.402   .     A
C860   C18     1.416   1_565 S
C861   N1102   1.428   .     S
C861   C912    1.402   .     A
C862   N1103   1.428   .     S
C862   C923    1.402   .     A
C863   N1104   1.428   .     S
C863   C934    1.402   .     A
C863   C1209   1.416   .     S
C864   N1090   1.428   .     S
C865   N1091   1.428   .     S
C865   C23     1.416   1_565 A
C866   N1092   1.428   .     S
C867   N1093   1.428   .     S
C868   O1155   1.387   .     S
C868   C1270   1.410   .     S
C869   N1094   1.428   .     S
C869   C1210   1.416   .     S
C870   N1095   1.428   .     S
C871   N1096   1.428   .     S
C871   C25     1.416   1_565 S
C872   C873    1.469   1_554 S
C873   C872    1.469   1_556 S
C874   C912    1.410   .     A
C874   C1264   1.410   1_455 S
C874   C875    1.469   1_554 S
C875   C923    1.410   .     A
C875   C874    1.469   1_556 S
C875   C1275   1.410   1_455 S
C876   C877    1.469   .     S
C876   C1330   1.410   1_455 S
C877   C1234   1.410   1_455 A
C878   C880    1.469   .     S
C879   O1156   1.387   .     S
C879   C1271   1.410   .     S
C881   O1172   1.282   .     A
C882   O1160   1.282   .     S
C883   O1170   1.282   .     A
C883   O1503   1.282   1_455 S
C884   O1567   1.282   1_455 A
C884   O1108   1.282   .     S
C885   O1109   1.282   .     A
C885   O1113   1.282   .     A
C886   O1110   1.282   .     A
C886   O1114   1.282   .     S
C887   O1111   1.282   .     A
C887   O1115   1.282   .     A
C888   O1112   1.282   .     A
C888   O1117   1.282   .     A
C889   C944    1.455   .     S
C889   O1118   1.280   .     A
C889   O1146   1.280   .     A
C890   O1157   1.387   .     S
C890   C80     1.410   1_565 S
C891   O1119   1.280   .     A
C891   O1147   1.280   .     A
C892   O1144   1.280   .     A
C892   O1120   1.280   .     A
C893   O1145   1.280   .     A
C893   O1121   1.280   .     A
C894   O1151   1.280   .     A
C894   O1122   1.280   .     A
C895   O1152   1.280   .     A
C895   O1123   1.280   .     A
C896   C942    1.455   .     S
C896   O1124   1.280   .     A
C896   O1148   1.280   .     A
C897   O1150   1.280   .     A
C897   C943    1.455   .     S
C897   O1125   1.280   .     A
C898   O1126   1.280   .     A
C898   O1137   1.280   .     A
C899   O1128   1.280   .     A
C899   O1139   1.280   .     A
C900   O1129   1.280   .     A
C900   O1135   1.280   .     A
C901   O1158   1.387   .     S
C901   C81     1.410   1_565 S
C902   O1130   1.280   .     A
C902   O1136   1.280   .     A
C903   O1142   1.280   .     A
C903   O1131   1.280   .     A
C904   O1143   1.280   .     A
C904   O1132   1.280   .     A
C905   O1140   1.280   .     A
C905   O1133   1.280   .     A
C906   O1141   1.280   .     A
C906   O1134   1.280   .     A
C907   H945    1.083   .     S
C907   C924    1.386   .     A
C908   H1001   1.083   .     S
C908   C922    1.386   .     A
C909   C921    1.386   .     A
C909   H1012   1.083   .     S
C910   H1023   1.083   .     S
C910   C920    1.386   .     A
C911   C919    1.386   .     A
C911   H1034   1.083   .     S
C912   O1159   1.387   .     S
C913   H1045   1.083   .     S
C913   C918    1.386   .     A
C914   C917    1.386   .     A
C914   H1056   1.083   .     S
C915   H1067   1.083   .     S
C915   C916    1.386   .     A
C916   H1078   1.083   .     S
C917   H946    1.083   .     S
C918   H957    1.083   .     S
C919   H968    1.083   .     S
C920   H979    1.083   .     S
C921   C944    1.402   .     A
C921   H990    1.083   .     S
C922   C943    1.402   .     A
C922   H996    1.083   .     S
C923   O1161   1.387   .     S
C924   C942    1.402   .     A
C924   H997    1.083   .     S
C925   C943    1.402   .     A
C925   H998    1.083   .     S
C925   C941    1.386   .     A
C926   C942    1.402   .     A
C926   C940    1.386   .     A
C926   H999    1.083   .     S
C927   C939    1.386   .     A
C927   H1000   1.083   .     S
C928   C944    1.402   .     A
C928   H1002   1.083   .     S
C928   C938    1.386   .     A
C929   C937    1.386   .     A
C929   H1003   1.083   .     S
C930   H1004   1.083   .     S
C930   C936    1.386   .     A
C931   C935    1.386   .     A
C931   H1005   1.083   .     S
C932   C933    1.386   .     A
C932   H1006   1.083   .     S
C933   H1007   1.083   .     S
C934   O1162   1.387   .     S
C934   C1272   1.410   .     S
C935   H1008   1.083   .     S
C936   H1009   1.083   .     S
C937   H1010   1.083   .     S
C938   H1011   1.083   .     S
C939   H1013   1.083   .     S
C940   H1014   1.083   .     S
C941   H1015   1.083   .     S
H948   N1101   1.031   .     S
H952   N1102   1.031   .     S
H956   N1103   1.031   .     S
H961   N1104   1.031   .     S
H965   N1090   1.031   .     S
H970   N1091   1.031   .     S
H974   N1092   1.031   .     S
H978   N1093   1.031   .     S
H983   N1094   1.031   .     S
H987   N1095   1.031   .     S
H992   N1096   1.031   .     S
H1016  C818    1.109   1_556 S
H1019  C819    1.109   1_554 S
H1022  C820    1.109   1_556 S
H1026  C821    1.109   1_554 S
H1029  C822    1.109   1_556 S
H1032  C823    1.109   1_554 S
H1036  C824    1.109   1_556 S
H1039  C825    1.109   1_554 S
H1069  N1089   1.031   .     S
H1073  N1097   1.031   .     S
H1077  N1098   1.031   .     S
H1082  N1099   1.031   .     S
H1086  N1100   1.031   .     S
O1105  Zn1184  1.947   .     S
O1105  Zn1176  1.947   .     S
O1105  Zn1173  1.947   .     S
O1106  C90     1.282   1_565 A
O1106  Zn1175  1.944   .     S
O1107  Zn1178  1.944   .     S
O1107  C1279   1.282   .     S
O1108  Zn1177  1.944   .     S
O1109  Zn1187  1.944   .     S
O1110  Zn1186  1.944   .     S
O1111  Zn1181  1.944   .     S
O1112  Zn1173  1.944   .     S
O1113  Zn1183  1.944   .     S
O1114  Zn1182  1.944   .     S
O1115  Zn1185  1.944   .     S
O1116  Zn1185  1.947   .     S
O1116  Zn1179  1.947   .     S
O1116  Zn1181  1.947   .     S
O1117  Zn1184  1.944   .     S
O1118  Zn1176  1.936   .     S
O1119  Zn1175  1.936   .     S
O1120  Zn1178  1.936   .     S
O1121  Zn1177  1.936   .     S
O1122  Zn1180  1.936   .     S
O1123  Zn1179  1.936   .     S
O1124  Zn1174  1.936   .     S
O1125  Zn1188  1.936   .     S
O1126  Zn1175  1.936   .     S
O1127  Zn1574  1.947   1_455 S
O1127  Zn1174  1.947   .     S
O1127  Zn1182  1.947   .     S
O1127  Zn1186  1.947   .     S
O1128  Zn1176  1.936   .     S
O1129  Zn1188  1.936   .     S
O1130  Zn1174  1.936   .     S
O1131  Zn1179  1.936   .     S
O1132  Zn1180  1.936   .     S
O1133  Zn1177  1.936   .     S
O1134  Zn1178  1.936   .     S
O1135  Zn1579  1.936   .     S
O1136  Zn1182  1.936   .     S
O1137  Zn393   1.936   1_565 S
O1138  Zn1187  1.947   .     S
O1138  Zn1177  1.947   .     S
O1138  Zn1183  1.947   .     S
O1138  Zn1584  1.947   1_455 S
O1139  Zn1184  1.936   .     S
O1140  Zn1187  1.936   .     S
O1141  Zn1582  1.936   .     S
O1142  Zn1181  1.936   .     S
O1143  Zn381   1.936   1_565 S
O1144  Zn1578  1.936   .     S
O1145  Zn1183  1.936   .     S
O1146  Zn1173  1.936   .     S
O1147  Zn389   1.936   1_565 S
O1148  Zn1186  1.936   .     S
O1149  Zn1180  1.944   .     S
O1149  C89     1.282   1_565 S
O1150  Zn1583  1.936   .     S
O1151  Zn392   1.936   1_565 S
O1152  Zn1185  1.936   .     S
O1160  Zn1179  1.944   .     S
O1170  Zn1174  1.944   .     S
O1171  Zn1188  1.944   .     S
O1171  C1280   1.282   .     A
O1172  Zn1176  1.944   .     S
Zn1175 O324    1.947   1_565 S
Zn1178 O1523   1.947   .     S
Zn1180 O313    1.947   1_565 S
Zn1182 O1540   1.936   1_455 S
Zn1183 O1531   1.936   1_455 S
Zn1186 O1537   1.936   1_455 S
Zn1187 O1546   1.936   1_455 S
Zn1188 O1534   1.947   .     S
C1189  C1250   1.402   .     A
C1189  O1549   1.387   .     S
C1189  C1268   1.410   .     A
C1190  O1559   1.387   .     S
C1190  C1260   1.402   .     A
C1190  C1273   1.410   .     S
C1191  C1316   1.402   .     A
C1191  C1287   1.455   .     S
C1191  C1323   1.402   .     A
C1192  C1315   1.402   .     A
C1192  C1326   1.402   .     A
C1192  C1288   1.455   .     S
C1193  C1314   1.402   .     A
C1193  C1289   1.455   .     S
C1193  C1325   1.402   .     A
C1194  C1313   1.402   .     A
C1194  C1290   1.455   .     S
C1194  C1328   1.402   .     A
C1195  C1291   1.455   .     S
C1195  C1327   1.402   .     A
C1195  C1312   1.402   .     A
C1196  C1331   1.402   .     A
C1196  C1301   1.455   .     S
C1196  C1311   1.402   .     A
C1197  C1302   1.455   .     S
C1197  C1310   1.402   .     A
C1197  C1329   1.402   .     A
C1198  C1294   1.455   .     S
C1198  C1309   1.402   .     A
C1198  C1333   1.402   .     A
C1199  C1307   1.402   .     A
C1199  C1332   1.402   .     A
C1199  C1295   1.455   .     S
C1200  C1296   1.455   .     S
C1200  C1335   1.402   .     A
C1200  C1306   1.402   .     A
C1201  C1261   1.402   .     A
C1201  O1560   1.387   .     S
C1201  C482    1.410   1_565 S
C1202  C1305   1.402   .     A
C1202  C1298   1.455   .     S
C1202  C1334   1.402   .     A
C1203  C1299   1.455   .     S
C1203  C1337   1.402   .     A
C1203  C1304   1.402   .     A
C1204  C1303   1.402   .     A
C1204  C1300   1.455   .     S
C1204  C1336   1.402   .     A
C1205  C1284   1.472   .     S
C1205  C1250   1.416   .     A
C1206  C1283   1.472   .     S
C1206  C1251   1.416   .     A
C1207  C1257   1.416   .     S
C1207  C1282   1.472   .     S
C1208  C1258   1.416   .     A
C1208  C1281   1.472   .     S
C1209  C1263   1.416   .     A
C1209  C1280   1.472   .     S
C1210  C1279   1.472   .     S
C1210  C1260   1.416   .     A
C1211  C1278   1.472   .     S
C1211  C1266   1.416   .     S
C1212  O1561   1.387   .     S
C1212  C1262   1.402   .     A
C1212  C1276   1.410   .     S
C1213  C1262   1.416   .     A
C1213  C1277   1.472   .     S
C1214  H1414   1.109   .     S
C1214  H1413   1.114   .     S
C1214  O1549   1.412   .     S
C1214  H1412   1.109   1_554 S
C1215  H1417   1.109   .     S
C1215  O1550   1.412   .     S
C1215  H1416   1.114   .     S
C1215  H1415   1.109   1_556 S
C1216  O1551   1.412   .     S
C1216  H1420   1.114   .     S
C1216  H1421   1.109   .     S
C1216  H1418   1.109   1_554 S
C1217  H1423   1.114   .     S
C1217  O1552   1.412   .     S
C1217  H1424   1.109   .     S
C1217  H1422   1.109   1_556 S
C1218  H1426   1.114   .     S
C1218  H1427   1.109   .     S
C1218  O1553   1.412   .     S
C1218  H1425   1.109   1_554 S
C1219  H1431   1.109   .     S
C1219  H1429   1.114   .     S
C1219  O1554   1.412   .     S
C1219  H1428   1.109   1_556 S
C1220  H1433   1.114   .     S
C1220  H1434   1.109   .     S
C1220  O1555   1.412   .     S
C1220  H1432   1.109   1_554 S
C1221  H1436   1.114   .     S
C1221  H1437   1.109   .     S
C1221  O1557   1.412   .     S
C1221  H1435   1.109   1_556 S
C1222  H1438   1.109   .     S
C1222  O1558   1.412   .     S
C1222  H1439   1.114   .     S
C1222  H1440   1.109   .     S
C1223  C1272   1.410   .     A
C1223  C1263   1.402   .     A
C1223  O1562   1.387   .     S
C1224  H1443   1.114   .     S
C1224  O1559   1.412   .     S
C1224  H1442   1.109   .     S
C1224  H1444   1.109   .     S
C1225  H1445   1.109   .     S
C1225  H1447   1.109   .     S
C1225  H1446   1.114   .     S
C1225  O1560   1.412   .     S
C1226  H1450   1.109   .     S
C1226  H1448   1.109   .     S
C1226  H1449   1.114   .     S
C1226  O1561   1.412   .     S
C1227  H1453   1.114   .     S
C1227  H1454   1.109   .     S
C1227  O1562   1.412   .     S
C1227  H1451   1.109   .     S
C1228  H1455   1.109   .     S
C1228  H1456   1.114   .     S
C1228  H1457   1.109   .     S
C1228  O1563   1.412   .     S
C1229  H1460   1.109   .     S
C1229  H1459   1.114   .     S
C1229  O1564   1.412   .     S
C1229  H1458   1.109   .     S
C1230  H1464   1.109   .     S
C1230  H1462   1.114   .     S
C1230  H1461   1.109   .     S
C1230  O1565   1.412   .     S
C1231  N1485   1.448   .     S
C1231  H1467   1.110   .     S
C1231  H1468   1.110   .     S
C1231  H1466   1.109   .     S
C1232  H1471   1.110   .     S
C1232  N1493   1.448   .     S
C1232  H1470   1.109   .     S
C1232  H1472   1.110   .     S
C1233  H1477   1.110   .     S
C1233  H1476   1.110   .     S
C1233  N1494   1.448   .     S
C1233  H1475   1.109   .     S
C1234  C1265   1.402   .     A
C1234  C877    1.410   1_655 A
C1234  O1563   1.387   .     S
C1235  H1479   1.109   .     S
C1235  N1495   1.448   .     S
C1235  H1481   1.110   .     S
C1235  H1480   1.110   .     S
C1236  H1484   1.110   .     S
C1236  N1496   1.448   .     S
C1236  H1483   1.109   .     S
C1236  H1343   1.110   .     S
C1237  H1347   1.110   .     S
C1237  N1497   1.448   .     S
C1237  H1345   1.109   .     S
C1237  H1346   1.110   .     S
C1238  H1350   1.110   .     S
C1238  H1351   1.110   .     S
C1238  H1349   1.109   .     S
C1238  N1498   1.448   .     S
C1239  H1355   1.110   .     S
C1239  N1499   1.448   .     S
C1239  H1356   1.110   .     S
C1239  H1354   1.109   .     S
C1240  H1358   1.109   .     S
C1240  N1500   1.448   .     S
C1240  H1360   1.110   .     S
C1240  H1359   1.110   .     S
C1241  H1365   1.110   .     S
C1241  N1486   1.448   .     S
C1241  H1363   1.110   .     S
C1241  H1362   1.109   .     S
C1242  H1369   1.110   .     S
C1242  H1367   1.109   .     S
C1242  N1487   1.448   .     S
C1242  H1368   1.110   .     S
C1243  H1372   1.110   .     S
C1243  H1371   1.109   .     S
C1243  H1373   1.110   .     S
C1243  N1488   1.448   .     S
C1244  N1489   1.448   .     S
C1244  H1378   1.110   .     S
C1244  H1376   1.109   .     S
C1244  H1377   1.110   .     S
C1245  O1564   1.387   .     S
C1245  C1266   1.402   .     A
C1245  C1274   1.410   .     A
C1246  H1380   1.109   .     S
C1246  H1381   1.110   .     S
C1246  H1382   1.110   .     S
C1246  N1490   1.448   .     S
C1247  N1491   1.448   .     S
C1247  H1384   1.109   .     S
C1247  H1387   1.110   .     S
C1247  H1385   1.110   .     S
C1248  H1390   1.110   .     S
C1248  N1492   1.448   .     S
C1248  H1389   1.109   .     S
C1248  H1391   1.110   .     S
C1249  C484    1.410   1_565 A
C1249  C1267   1.402   .     A
C1249  O1565   1.387   .     S
C1250  N1485   1.428   .     S
C1251  C1253   1.402   .     A
C1251  N1493   1.428   .     S
C1252  N1494   1.428   .     S
C1252  C1264   1.402   .     A
C1252  C811    1.416   1_655 A
C1253  O1550   1.387   .     S
C1253  C1269   1.410   .     A
C1254  N1495   1.428   .     S
C1254  C1275   1.402   .     A
C1254  C812    1.416   1_655 S
C1255  C1286   1.402   .     A
C1255  N1496   1.428   .     S
C1255  C413    1.416   1_565 S
C1256  N1497   1.428   .     S
C1256  C1297   1.402   .     A
C1256  C414    1.416   1_565 S
C1257  N1498   1.428   .     S
C1257  C1308   1.402   .     A
C1258  N1499   1.428   .     S
C1258  C1319   1.402   .     A
C1259  N1500   1.428   .     S
C1259  C1330   1.402   .     A
C1259  C813    1.416   1_655 S
C1260  N1486   1.428   .     S
C1261  N1487   1.428   .     S
C1261  C419    1.416   1_565 A
C1262  N1488   1.428   .     S
C1263  N1489   1.428   .     S
C1264  O1551   1.387   .     S
C1264  C874    1.410   1_655 S
C1265  N1490   1.428   .     S
C1265  C814    1.416   1_655 S
C1266  N1491   1.428   .     S
C1267  N1492   1.428   .     S
C1267  C421    1.416   1_565 S
C1268  C1269   1.469   1_554 S
C1269  C1268   1.469   1_556 S
C1270  C1308   1.410   .     A
C1270  C1271   1.469   1_554 S
C1271  C1319   1.410   .     A
C1271  C1270   1.469   1_556 S
C1272  C1273   1.469   .     S
C1274  C1276   1.469   .     S
C1275  O1552   1.387   .     S
C1275  C875    1.410   1_655 S
C1277  O1568   1.282   .     A
C1278  O1556   1.282   .     S
C1279  O1566   1.282   .     A
C1280  O1504   1.282   .     S
C1281  O1505   1.282   .     A
C1281  O1509   1.282   .     A
C1282  O1506   1.282   .     A
C1282  O1510   1.282   .     S
C1283  O1507   1.282   .     A
C1283  O1511   1.282   .     A
C1284  O1508   1.282   .     A
C1284  O1513   1.282   .     A
C1285  C1340   1.455   .     S
C1285  O1514   1.280   .     A
C1285  O1542   1.280   .     A
C1286  O1553   1.387   .     S
C1286  C476    1.410   1_565 S
C1287  O1515   1.280   .     A
C1287  O1543   1.280   .     A
C1288  O1540   1.280   .     A
C1288  O1516   1.280   .     A
C1289  O1541   1.280   .     A
C1289  O1517   1.280   .     A
C1290  O1547   1.280   .     A
C1290  O1518   1.280   .     A
C1291  O1548   1.280   .     A
C1291  O1519   1.280   .     A
C1292  C1338   1.455   .     S
C1292  O1520   1.280   .     A
C1292  O1544   1.280   .     A
C1293  O1546   1.280   .     A
C1293  C1339   1.455   .     S
C1293  O1521   1.280   .     A
C1294  O1522   1.280   .     A
C1294  O1533   1.280   .     A
C1295  O1524   1.280   .     A
C1295  O1535   1.280   .     A
C1296  O1525   1.280   .     A
C1296  O1531   1.280   .     A
C1297  O1554   1.387   .     S
C1297  C477    1.410   1_565 S
C1298  O1526   1.280   .     A
C1298  O1532   1.280   .     A
C1299  O1538   1.280   .     A
C1299  O1527   1.280   .     A
C1300  O1539   1.280   .     A
C1300  O1528   1.280   .     A
C1301  O1536   1.280   .     A
C1301  O1529   1.280   .     A
C1302  O1537   1.280   .     A
C1302  O1530   1.280   .     A
C1303  H1341   1.083   .     S
C1303  C1320   1.386   .     A
C1304  H1397   1.083   .     S
C1304  C1318   1.386   .     A
C1305  C1317   1.386   .     A
C1305  H1408   1.083   .     S
C1306  H1419   1.083   .     S
C1306  C1316   1.386   .     A
C1307  C1315   1.386   .     A
C1307  H1430   1.083   .     S
C1308  O1555   1.387   .     S
C1309  H1441   1.083   .     S
C1309  C1314   1.386   .     A
C1310  C1313   1.386   .     A
C1310  H1452   1.083   .     S
C1311  H1463   1.083   .     S
C1311  C1312   1.386   .     A
C1312  H1474   1.083   .     S
C1313  H1342   1.083   .     S
C1314  H1353   1.083   .     S
C1315  H1364   1.083   .     S
C1316  H1375   1.083   .     S
C1317  C1340   1.402   .     A
C1317  H1386   1.083   .     S
C1318  C1339   1.402   .     A
C1318  H1392   1.083   .     S
C1319  O1557   1.387   .     S
C1320  C1338   1.402   .     A
C1320  H1393   1.083   .     S
C1321  C1339   1.402   .     A
C1321  H1394   1.083   .     S
C1321  C1337   1.386   .     A
C1322  C1338   1.402   .     A
C1322  C1336   1.386   .     A
C1322  H1395   1.083   .     S
C1323  C1335   1.386   .     A
C1323  H1396   1.083   .     S
C1324  C1340   1.402   .     A
C1324  H1398   1.083   .     S
C1324  C1334   1.386   .     A
C1325  C1333   1.386   .     A
C1325  H1399   1.083   .     S
C1326  H1400   1.083   .     S
C1326  C1332   1.386   .     A
C1327  C1331   1.386   .     A
C1327  H1401   1.083   .     S
C1328  C1329   1.386   .     A
C1328  H1402   1.083   .     S
C1329  H1403   1.083   .     S
C1330  O1558   1.387   .     S
C1330  C876    1.410   1_655 S
C1331  H1404   1.083   .     S
C1332  H1405   1.083   .     S
C1333  H1406   1.083   .     S
C1334  H1407   1.083   .     S
C1335  H1409   1.083   .     S
C1336  H1410   1.083   .     S
C1337  H1411   1.083   .     S
H1344  N1497   1.031   .     S
H1348  N1498   1.031   .     S
H1352  N1499   1.031   .     S
H1357  N1500   1.031   .     S
H1361  N1486   1.031   .     S
H1366  N1487   1.031   .     S
H1370  N1488   1.031   .     S
H1374  N1489   1.031   .     S
H1379  N1490   1.031   .     S
H1383  N1491   1.031   .     S
H1388  N1492   1.031   .     S
H1412  C1214   1.109   1_556 S
H1415  C1215   1.109   1_554 S
H1418  C1216   1.109   1_556 S
H1422  C1217   1.109   1_554 S
H1425  C1218   1.109   1_556 S
H1428  C1219   1.109   1_554 S
H1432  C1220   1.109   1_556 S
H1435  C1221   1.109   1_554 S
H1465  N1485   1.031   .     S
H1469  N1493   1.031   .     S
H1473  N1494   1.031   .     S
H1478  N1495   1.031   .     S
H1482  N1496   1.031   .     S
O1501  Zn1580  1.947   .     S
O1501  Zn1572  1.947   .     S
O1501  Zn1569  1.947   .     S
O1502  C486    1.282   1_565 A
O1502  Zn1571  1.944   .     S
O1503  Zn1574  1.944   .     S
O1503  C883    1.282   1_655 S
O1504  Zn1573  1.944   .     S
O1505  Zn1583  1.944   .     S
O1506  Zn1582  1.944   .     S
O1507  Zn1577  1.944   .     S
O1508  Zn1569  1.944   .     S
O1509  Zn1579  1.944   .     S
O1510  Zn1578  1.944   .     S
O1511  Zn1581  1.944   .     S
O1512  Zn1581  1.947   .     S
O1512  Zn1575  1.947   .     S
O1512  Zn1577  1.947   .     S
O1513  Zn1580  1.944   .     S
O1514  Zn1572  1.936   .     S
O1515  Zn1571  1.936   .     S
O1516  Zn1574  1.936   .     S
O1517  Zn1573  1.936   .     S
O1518  Zn1576  1.936   .     S
O1519  Zn1575  1.936   .     S
O1520  Zn1570  1.936   .     S
O1521  Zn1584  1.936   .     S
O1522  Zn1571  1.936   .     S
O1523  Zn1570  1.947   .     S
O1523  Zn1578  1.947   .     S
O1523  Zn1582  1.947   .     S
O1524  Zn1572  1.936   .     S
O1525  Zn1584  1.936   .     S
O1526  Zn1570  1.936   .     S
O1527  Zn1575  1.936   .     S
O1528  Zn1576  1.936   .     S
O1529  Zn1573  1.936   .     S
O1530  Zn1574  1.936   .     S
O1531  Zn1183  1.936   1_655 S
O1532  Zn1578  1.936   .     S
O1533  Zn789   1.936   1_565 S
O1534  Zn1583  1.947   .     S
O1534  Zn1573  1.947   .     S
O1534  Zn1579  1.947   .     S
O1535  Zn1580  1.936   .     S
O1536  Zn1583  1.936   .     S
O1537  Zn1186  1.936   1_655 S
O1538  Zn1577  1.936   .     S
O1539  Zn777   1.936   1_565 S
O1540  Zn1182  1.936   1_655 S
O1541  Zn1579  1.936   .     S
O1542  Zn1569  1.936   .     S
O1543  Zn785   1.936   1_565 S
O1544  Zn1582  1.936   .     S
O1545  Zn1576  1.944   .     S
O1545  C485    1.282   1_565 S
O1546  Zn1187  1.936   1_655 S
O1547  Zn788   1.936   1_565 S
O1548  Zn1581  1.936   .     S
O1556  Zn1575  1.944   .     S
O1566  Zn1570  1.944   .     S
O1567  Zn1584  1.944   .     S
O1567  C884    1.282   1_655 A
O1568  Zn1572  1.944   .     S
Zn1571 O720    1.947   1_565 S
Zn1574 O1127   1.947   1_655 S
Zn1576 O709    1.947   1_565 S
Zn1584 O1138   1.947   1_655 S
