data_str_m3_o1_o2_pcu_sym.110
_audit_creation_date              2020-01-03
_audit_creation_method            'Materials Studio'
_symmetry_space_group_name_H-M    'P1'
_symmetry_Int_Tables_number       1
_symmetry_cell_setting            triclinic
loop_
_symmetry_equiv_pos_as_xyz
  x,y,z
_cell_length_a                    32.2312
_cell_length_b                    29.4940
_cell_length_c                    29.9840
_cell_angle_alpha                 88.7337
_cell_angle_beta                  89.3316
_cell_angle_gamma                 89.9342
loop_
_atom_site_label
_atom_site_type_symbol
_atom_site_fract_x
_atom_site_fract_y
_atom_site_fract_z
_atom_site_U_iso_or_equiv
_atom_site_adp_type
_atom_site_occupancy
C1     C     0.08666   0.16692   0.24942   0.00000  Uiso   1.00
C2     C     0.24649   0.16679   0.24870   0.00000  Uiso   1.00
C3     C     0.16692   0.16701   0.16406   0.00000  Uiso   1.00
C4     C     0.16718   0.16604   0.33625   0.00000  Uiso   1.00
C5     C     0.19047   0.02332   0.27941   0.00000  Uiso   1.00
C6     C     0.14296   0.31005   0.22053   0.00000  Uiso   1.00
C7     C     0.14288   0.02469   0.22059   0.00000  Uiso   1.00
C8     C     0.19048   0.30867   0.27939   0.00000  Uiso   1.00
C9     C     0.02081   0.13835   0.27920   0.00000  Uiso   1.00
C10    C     0.31184   0.19577   0.21774   0.00000  Uiso   1.00
C11    C     0.31101   0.13957   0.28050   0.00000  Uiso   1.00
C12    C     0.02145   0.19912   0.22115   0.00000  Uiso   1.00
C13    C     0.13327   0.18078   0.04656   0.00000  Uiso   1.00
C14    C     0.14628   0.14059   0.45726   0.00000  Uiso   1.00
C15    C     0.19836   0.19952   0.45052   0.00000  Uiso   1.00
C16    C     0.20751   0.16660   0.04741   0.00000  Uiso   1.00
C17    C     0.13106   0.17547   0.09262   0.00000  Uiso   1.00
C18    C     0.14588   0.13548   0.41138   0.00000  Uiso   1.00
C19    C     0.19915   0.19546   0.40437   0.00000  Uiso   1.00
C20    C     0.20640   0.16161   0.09365   0.00000  Uiso   1.00
C21    C     0.16811   0.16775   0.11616   0.00000  Uiso   1.00
C22    C     0.17118   0.16486   0.38445   0.00000  Uiso   1.00
C23    C     0.17116   0.17597   0.02428   0.00000  Uiso   1.00
C24    C     0.17142   0.17294   0.47636   0.00000  Uiso   1.00
C25    C     0.29053   0.16728   0.24880   0.00000  Uiso   1.00
C26    C     0.04227   0.16780   0.24942   0.00000  Uiso   1.00
N27    N     0.16667   0.28573   0.25000   0.00000  Uiso   1.00
N28    N     0.16667   0.04760   0.25000   0.00000  Uiso   1.00
O29    O     0.10559   0.20487   0.25000   0.00000  Uiso   1.00
O30    O     0.22774   0.12846   0.25001   0.00000  Uiso   1.00
O31    O     0.22774   0.20487   0.25001   0.00000  Uiso   1.00
O32    O     0.10559   0.12846   0.25000   0.00000  Uiso   1.00
O33    O     0.16666   0.20489   0.18453   0.00000  Uiso   1.00
O34    O     0.16667   0.12845   0.31547   0.00000  Uiso   1.00
O35    O     0.16667   0.20489   0.31547   0.00000  Uiso   1.00
O36    O     0.16666   0.12845   0.18453   0.00000  Uiso   1.00
Zn37   Zn    0.16667   0.21771   0.25000   0.00000  Uiso   1.00
Zn38   Zn    0.16667   0.11563   0.25000   0.00000  Uiso   1.00
H39    H     0.20949   0.04099   0.30289   0.00000  Uiso   1.00
H40    H     0.12415   0.29246   0.19685   0.00000  Uiso   1.00
H41    H     0.12386   0.04343   0.19709   0.00000  Uiso   1.00
H42    H     0.20956   0.28995   0.30283   0.00000  Uiso   1.00
H43    H     0.10523   0.18624   0.02753   0.00000  Uiso   1.00
H44    H     0.12730   0.11878   0.47876   0.00000  Uiso   1.00
H45    H     0.21895   0.22297   0.46663   0.00000  Uiso   1.00
H46    H     0.23616   0.16099   0.02902   0.00000  Uiso   1.00
C47    C     0.08981   0.17416   0.11514   0.00000  Uiso   1.00
H48    H     0.08675   0.16116   0.14912   0.00000  Uiso   1.00
O49    O     0.05858   0.18676   0.09577   0.00000  Uiso   1.00
C50    C     0.11872   0.09934   0.39360   0.00000  Uiso   1.00
H51    H     0.12167   0.08771   0.35989   0.00000  Uiso   1.00
O52    O     0.09218   0.08111   0.41723   0.00000  Uiso   1.00
C53    C     0.23073   0.22173   0.37796   0.00000  Uiso   1.00
H54    H     0.23829   0.21288   0.34393   0.00000  Uiso   1.00
O55    O     0.24927   0.25334   0.39420   0.00000  Uiso   1.00
C56    C     0.24467   0.14765   0.11755   0.00000  Uiso   1.00
H57    H     0.24408   0.14127   0.15327   0.00000  Uiso   1.00
O58    O     0.27748   0.14253   0.09748   0.00000  Uiso   1.00
C59    C     0.04372   0.11205   0.31354   0.00000  Uiso   1.00
H60    H     0.05841   0.12996   0.34021   0.00000  Uiso   1.00
O61    O     0.04716   0.07095   0.31117   0.00000  Uiso   1.00
C62    C     0.28976   0.21964   0.18013   0.00000  Uiso   1.00
H63    H     0.25755   0.22950   0.18270   0.00000  Uiso   1.00
O64    O     0.30724   0.22706   0.14435   0.00000  Uiso   1.00
C65    C     0.28694   0.11481   0.31647   0.00000  Uiso   1.00
H66    H     0.25882   0.12965   0.33003   0.00000  Uiso   1.00
O67    O     0.29734   0.07731   0.33030   0.00000  Uiso   1.00
C68    C     0.04398   0.23670   0.19703   0.00000  Uiso   1.00
H69    H     0.07409   0.23128   0.18184   0.00000  Uiso   1.00
O70    O     0.02941   0.27495   0.19539   0.00000  Uiso   1.00
C71    C     0.41999   0.16692   0.24942   0.00000  Uiso   1.00
C72    C     0.57983   0.16679   0.24870   0.00000  Uiso   1.00
C73    C     0.50025   0.16701   0.16406   0.00000  Uiso   1.00
C74    C     0.50052   0.16604   0.33625   0.00000  Uiso   1.00
C75    C     0.52380   0.02332   0.27941   0.00000  Uiso   1.00
C76    C     0.47629   0.31005   0.22053   0.00000  Uiso   1.00
C77    C     0.47622   0.02469   0.22059   0.00000  Uiso   1.00
C78    C     0.52381   0.30867   0.27939   0.00000  Uiso   1.00
C79    C     0.35415   0.13835   0.27920   0.00000  Uiso   1.00
C80    C     0.64517   0.19577   0.21774   0.00000  Uiso   1.00
C81    C     0.64434   0.13957   0.28050   0.00000  Uiso   1.00
C82    C     0.35478   0.19912   0.22115   0.00000  Uiso   1.00
C83    C     0.46661   0.18078   0.04656   0.00000  Uiso   1.00
C84    C     0.47961   0.14059   0.45726   0.00000  Uiso   1.00
C85    C     0.53170   0.19952   0.45052   0.00000  Uiso   1.00
C86    C     0.54084   0.16660   0.04741   0.00000  Uiso   1.00
C87    C     0.46440   0.17547   0.09262   0.00000  Uiso   1.00
C88    C     0.47922   0.13548   0.41138   0.00000  Uiso   1.00
C89    C     0.53249   0.19546   0.40437   0.00000  Uiso   1.00
C90    C     0.53973   0.16161   0.09365   0.00000  Uiso   1.00
C91    C     0.50144   0.16775   0.11616   0.00000  Uiso   1.00
C92    C     0.50452   0.16486   0.38445   0.00000  Uiso   1.00
C93    C     0.50450   0.17597   0.02428   0.00000  Uiso   1.00
C94    C     0.50475   0.17294   0.47636   0.00000  Uiso   1.00
C95    C     0.62386   0.16728   0.24880   0.00000  Uiso   1.00
C96    C     0.37560   0.16780   0.24942   0.00000  Uiso   1.00
N97    N     0.50000   0.28573   0.25000   0.00000  Uiso   1.00
N98    N     0.50000   0.04760   0.25000   0.00000  Uiso   1.00
O99    O     0.43892   0.20487   0.25000   0.00000  Uiso   1.00
O100   O     0.56108   0.12846   0.25001   0.00000  Uiso   1.00
O101   O     0.56108   0.20487   0.25001   0.00000  Uiso   1.00
O102   O     0.43892   0.12846   0.25000   0.00000  Uiso   1.00
O103   O     0.50000   0.20489   0.18453   0.00000  Uiso   1.00
O104   O     0.50000   0.12845   0.31547   0.00000  Uiso   1.00
O105   O     0.50000   0.20489   0.31547   0.00000  Uiso   1.00
O106   O     0.50000   0.12845   0.18453   0.00000  Uiso   1.00
Zn107  Zn    0.50000   0.21771   0.25000   0.00000  Uiso   1.00
Zn108  Zn    0.50000   0.11563   0.25000   0.00000  Uiso   1.00
H109   H     0.54283   0.04099   0.30289   0.00000  Uiso   1.00
H110   H     0.45749   0.29246   0.19685   0.00000  Uiso   1.00
H111   H     0.45719   0.04343   0.19709   0.00000  Uiso   1.00
H112   H     0.54289   0.28995   0.30283   0.00000  Uiso   1.00
H113   H     0.43856   0.18624   0.02753   0.00000  Uiso   1.00
H114   H     0.46064   0.11878   0.47876   0.00000  Uiso   1.00
H115   H     0.55229   0.22297   0.46663   0.00000  Uiso   1.00
H116   H     0.56949   0.16099   0.02902   0.00000  Uiso   1.00
C117   C     0.42314   0.17416   0.11514   0.00000  Uiso   1.00
H118   H     0.42008   0.16116   0.14912   0.00000  Uiso   1.00
O119   O     0.39191   0.18676   0.09577   0.00000  Uiso   1.00
C120   C     0.45205   0.09934   0.39360   0.00000  Uiso   1.00
H121   H     0.45500   0.08771   0.35989   0.00000  Uiso   1.00
O122   O     0.42551   0.08111   0.41723   0.00000  Uiso   1.00
C123   C     0.56406   0.22173   0.37796   0.00000  Uiso   1.00
H124   H     0.57162   0.21288   0.34393   0.00000  Uiso   1.00
O125   O     0.58261   0.25334   0.39420   0.00000  Uiso   1.00
C126   C     0.57801   0.14765   0.11755   0.00000  Uiso   1.00
H127   H     0.57741   0.14127   0.15327   0.00000  Uiso   1.00
O128   O     0.61082   0.14253   0.09748   0.00000  Uiso   1.00
C129   C     0.37706   0.11205   0.31354   0.00000  Uiso   1.00
H130   H     0.39174   0.12996   0.34021   0.00000  Uiso   1.00
O131   O     0.38049   0.07095   0.31117   0.00000  Uiso   1.00
C132   C     0.62310   0.21964   0.18013   0.00000  Uiso   1.00
H133   H     0.59089   0.22950   0.18270   0.00000  Uiso   1.00
O134   O     0.64057   0.22706   0.14435   0.00000  Uiso   1.00
C135   C     0.62028   0.11481   0.31647   0.00000  Uiso   1.00
H136   H     0.59215   0.12965   0.33003   0.00000  Uiso   1.00
O137   O     0.63067   0.07731   0.33030   0.00000  Uiso   1.00
C138   C     0.37731   0.23670   0.19703   0.00000  Uiso   1.00
H139   H     0.40742   0.23128   0.18184   0.00000  Uiso   1.00
O140   O     0.36275   0.27495   0.19539   0.00000  Uiso   1.00
C141   C     0.75333   0.16692   0.24942   0.00000  Uiso   1.00
C142   C     0.91316   0.16679   0.24870   0.00000  Uiso   1.00
C143   C     0.83358   0.16701   0.16406   0.00000  Uiso   1.00
C144   C     0.83385   0.16604   0.33625   0.00000  Uiso   1.00
C145   C     0.85714   0.02332   0.27941   0.00000  Uiso   1.00
C146   C     0.80963   0.31005   0.22053   0.00000  Uiso   1.00
C147   C     0.80955   0.02469   0.22059   0.00000  Uiso   1.00
C148   C     0.85715   0.30867   0.27939   0.00000  Uiso   1.00
C149   C     0.68748   0.13835   0.27920   0.00000  Uiso   1.00
C150   C     0.97850   0.19577   0.21774   0.00000  Uiso   1.00
C151   C     0.97767   0.13957   0.28050   0.00000  Uiso   1.00
C152   C     0.68812   0.19912   0.22115   0.00000  Uiso   1.00
C153   C     0.79994   0.18078   0.04656   0.00000  Uiso   1.00
C154   C     0.81295   0.14059   0.45726   0.00000  Uiso   1.00
C155   C     0.86503   0.19952   0.45052   0.00000  Uiso   1.00
C156   C     0.87417   0.16660   0.04741   0.00000  Uiso   1.00
C157   C     0.79773   0.17547   0.09262   0.00000  Uiso   1.00
C158   C     0.81255   0.13548   0.41138   0.00000  Uiso   1.00
C159   C     0.86582   0.19546   0.40437   0.00000  Uiso   1.00
C160   C     0.87306   0.16161   0.09365   0.00000  Uiso   1.00
C161   C     0.83478   0.16775   0.11616   0.00000  Uiso   1.00
C162   C     0.83785   0.16486   0.38445   0.00000  Uiso   1.00
C163   C     0.83783   0.17597   0.02428   0.00000  Uiso   1.00
C164   C     0.83809   0.17294   0.47636   0.00000  Uiso   1.00
C165   C     0.95720   0.16728   0.24880   0.00000  Uiso   1.00
C166   C     0.70894   0.16780   0.24942   0.00000  Uiso   1.00
N167   N     0.83333   0.28573   0.25000   0.00000  Uiso   1.00
N168   N     0.83333   0.04760   0.25000   0.00000  Uiso   1.00
O169   O     0.77226   0.20487   0.25000   0.00000  Uiso   1.00
O170   O     0.89441   0.12846   0.25001   0.00000  Uiso   1.00
O171   O     0.89441   0.20487   0.25001   0.00000  Uiso   1.00
O172   O     0.77226   0.12846   0.25000   0.00000  Uiso   1.00
O173   O     0.83333   0.20489   0.18453   0.00000  Uiso   1.00
O174   O     0.83334   0.12845   0.31547   0.00000  Uiso   1.00
O175   O     0.83334   0.20489   0.31547   0.00000  Uiso   1.00
O176   O     0.83333   0.12845   0.18453   0.00000  Uiso   1.00
Zn177  Zn    0.83333   0.21771   0.25000   0.00000  Uiso   1.00
Zn178  Zn    0.83333   0.11563   0.25000   0.00000  Uiso   1.00
H179   H     0.87616   0.04099   0.30289   0.00000  Uiso   1.00
H180   H     0.79082   0.29246   0.19685   0.00000  Uiso   1.00
H181   H     0.79052   0.04343   0.19709   0.00000  Uiso   1.00
H182   H     0.87623   0.28995   0.30283   0.00000  Uiso   1.00
H183   H     0.77189   0.18624   0.02753   0.00000  Uiso   1.00
H184   H     0.79397   0.11878   0.47876   0.00000  Uiso   1.00
H185   H     0.88562   0.22297   0.46663   0.00000  Uiso   1.00
H186   H     0.90282   0.16099   0.02902   0.00000  Uiso   1.00
C187   C     0.75647   0.17416   0.11514   0.00000  Uiso   1.00
H188   H     0.75341   0.16116   0.14912   0.00000  Uiso   1.00
O189   O     0.72524   0.18676   0.09577   0.00000  Uiso   1.00
C190   C     0.78539   0.09934   0.39360   0.00000  Uiso   1.00
H191   H     0.78834   0.08771   0.35989   0.00000  Uiso   1.00
O192   O     0.75885   0.08111   0.41723   0.00000  Uiso   1.00
C193   C     0.89740   0.22173   0.37796   0.00000  Uiso   1.00
H194   H     0.90495   0.21288   0.34393   0.00000  Uiso   1.00
O195   O     0.91594   0.25334   0.39420   0.00000  Uiso   1.00
C196   C     0.91134   0.14765   0.11755   0.00000  Uiso   1.00
H197   H     0.91074   0.14127   0.15327   0.00000  Uiso   1.00
O198   O     0.94415   0.14253   0.09748   0.00000  Uiso   1.00
C199   C     0.71039   0.11205   0.31354   0.00000  Uiso   1.00
H200   H     0.72508   0.12996   0.34021   0.00000  Uiso   1.00
O201   O     0.71383   0.07095   0.31117   0.00000  Uiso   1.00
C202   C     0.95643   0.21964   0.18013   0.00000  Uiso   1.00
H203   H     0.92422   0.22950   0.18270   0.00000  Uiso   1.00
O204   O     0.97390   0.22706   0.14435   0.00000  Uiso   1.00
C205   C     0.95361   0.11481   0.31647   0.00000  Uiso   1.00
H206   H     0.92549   0.12965   0.33003   0.00000  Uiso   1.00
O207   O     0.96400   0.07731   0.33030   0.00000  Uiso   1.00
C208   C     0.71064   0.23670   0.19703   0.00000  Uiso   1.00
H209   H     0.74075   0.23128   0.18184   0.00000  Uiso   1.00
O210   O     0.69608   0.27495   0.19539   0.00000  Uiso   1.00
C211   C     0.08666   0.50026   0.24942   0.00000  Uiso   1.00
C212   C     0.24649   0.50012   0.24870   0.00000  Uiso   1.00
C213   C     0.16692   0.50034   0.16406   0.00000  Uiso   1.00
C214   C     0.16718   0.49937   0.33625   0.00000  Uiso   1.00
C215   C     0.19047   0.35665   0.27941   0.00000  Uiso   1.00
C216   C     0.14296   0.64338   0.22053   0.00000  Uiso   1.00
C217   C     0.14288   0.35802   0.22059   0.00000  Uiso   1.00
C218   C     0.19048   0.64200   0.27939   0.00000  Uiso   1.00
C219   C     0.02081   0.47168   0.27920   0.00000  Uiso   1.00
C220   C     0.31184   0.52910   0.21774   0.00000  Uiso   1.00
C221   C     0.31101   0.47290   0.28050   0.00000  Uiso   1.00
C222   C     0.02145   0.53245   0.22115   0.00000  Uiso   1.00
C223   C     0.13327   0.51411   0.04656   0.00000  Uiso   1.00
C224   C     0.14628   0.47393   0.45726   0.00000  Uiso   1.00
C225   C     0.19836   0.53285   0.45052   0.00000  Uiso   1.00
C226   C     0.20751   0.49994   0.04741   0.00000  Uiso   1.00
C227   C     0.13106   0.50880   0.09262   0.00000  Uiso   1.00
C228   C     0.14588   0.46881   0.41138   0.00000  Uiso   1.00
C229   C     0.19915   0.52880   0.40437   0.00000  Uiso   1.00
C230   C     0.20640   0.49495   0.09365   0.00000  Uiso   1.00
C231   C     0.16811   0.50108   0.11616   0.00000  Uiso   1.00
C232   C     0.17118   0.49820   0.38445   0.00000  Uiso   1.00
C233   C     0.17116   0.50930   0.02428   0.00000  Uiso   1.00
C234   C     0.17142   0.50628   0.47636   0.00000  Uiso   1.00
C235   C     0.29053   0.50062   0.24880   0.00000  Uiso   1.00
C236   C     0.04227   0.50113   0.24942   0.00000  Uiso   1.00
N237   N     0.16667   0.61907   0.25000   0.00000  Uiso   1.00
N238   N     0.16667   0.38093   0.25000   0.00000  Uiso   1.00
O239   O     0.10559   0.53821   0.25000   0.00000  Uiso   1.00
O240   O     0.22774   0.46179   0.25001   0.00000  Uiso   1.00
O241   O     0.22774   0.53821   0.25001   0.00000  Uiso   1.00
O242   O     0.10559   0.46179   0.25000   0.00000  Uiso   1.00
O243   O     0.16666   0.53822   0.18453   0.00000  Uiso   1.00
O244   O     0.16667   0.46178   0.31547   0.00000  Uiso   1.00
O245   O     0.16667   0.53822   0.31547   0.00000  Uiso   1.00
O246   O     0.16666   0.46178   0.18453   0.00000  Uiso   1.00
Zn247  Zn    0.16667   0.55104   0.25000   0.00000  Uiso   1.00
Zn248  Zn    0.16667   0.44896   0.25000   0.00000  Uiso   1.00
H249   H     0.20949   0.37432   0.30289   0.00000  Uiso   1.00
H250   H     0.12415   0.62579   0.19685   0.00000  Uiso   1.00
H251   H     0.12386   0.37677   0.19709   0.00000  Uiso   1.00
H252   H     0.20956   0.62328   0.30283   0.00000  Uiso   1.00
H253   H     0.10523   0.51957   0.02753   0.00000  Uiso   1.00
H254   H     0.12730   0.45211   0.47876   0.00000  Uiso   1.00
H255   H     0.21895   0.55631   0.46663   0.00000  Uiso   1.00
H256   H     0.23616   0.49432   0.02902   0.00000  Uiso   1.00
C257   C     0.08981   0.50749   0.11514   0.00000  Uiso   1.00
H258   H     0.08675   0.49449   0.14912   0.00000  Uiso   1.00
O259   O     0.05858   0.52009   0.09577   0.00000  Uiso   1.00
C260   C     0.11872   0.43267   0.39360   0.00000  Uiso   1.00
H261   H     0.12167   0.42104   0.35989   0.00000  Uiso   1.00
O262   O     0.09218   0.41444   0.41723   0.00000  Uiso   1.00
C263   C     0.23073   0.55507   0.37796   0.00000  Uiso   1.00
H264   H     0.23829   0.54621   0.34393   0.00000  Uiso   1.00
O265   O     0.24927   0.58668   0.39420   0.00000  Uiso   1.00
C266   C     0.24467   0.48099   0.11755   0.00000  Uiso   1.00
H267   H     0.24408   0.47460   0.15327   0.00000  Uiso   1.00
O268   O     0.27748   0.47587   0.09748   0.00000  Uiso   1.00
C269   C     0.04372   0.44539   0.31354   0.00000  Uiso   1.00
H270   H     0.05841   0.46330   0.34021   0.00000  Uiso   1.00
O271   O     0.04716   0.40428   0.31117   0.00000  Uiso   1.00
C272   C     0.28976   0.55298   0.18013   0.00000  Uiso   1.00
H273   H     0.25755   0.56284   0.18270   0.00000  Uiso   1.00
O274   O     0.30724   0.56039   0.14435   0.00000  Uiso   1.00
C275   C     0.28694   0.44814   0.31647   0.00000  Uiso   1.00
H276   H     0.25882   0.46299   0.33003   0.00000  Uiso   1.00
O277   O     0.29734   0.41065   0.33030   0.00000  Uiso   1.00
C278   C     0.04398   0.57003   0.19703   0.00000  Uiso   1.00
H279   H     0.07409   0.56461   0.18184   0.00000  Uiso   1.00
O280   O     0.02941   0.60828   0.19539   0.00000  Uiso   1.00
C281   C     0.41999   0.50026   0.24942   0.00000  Uiso   1.00
C282   C     0.57983   0.50012   0.24870   0.00000  Uiso   1.00
C283   C     0.50025   0.50034   0.16406   0.00000  Uiso   1.00
C284   C     0.50052   0.49937   0.33625   0.00000  Uiso   1.00
C285   C     0.52380   0.35665   0.27941   0.00000  Uiso   1.00
C286   C     0.47629   0.64338   0.22053   0.00000  Uiso   1.00
C287   C     0.47622   0.35802   0.22059   0.00000  Uiso   1.00
C288   C     0.52381   0.64200   0.27939   0.00000  Uiso   1.00
C289   C     0.35415   0.47168   0.27920   0.00000  Uiso   1.00
C290   C     0.64517   0.52910   0.21774   0.00000  Uiso   1.00
C291   C     0.64434   0.47290   0.28050   0.00000  Uiso   1.00
C292   C     0.35478   0.53245   0.22115   0.00000  Uiso   1.00
C293   C     0.46661   0.51411   0.04656   0.00000  Uiso   1.00
C294   C     0.47961   0.47393   0.45726   0.00000  Uiso   1.00
C295   C     0.53170   0.53285   0.45052   0.00000  Uiso   1.00
C296   C     0.54084   0.49994   0.04741   0.00000  Uiso   1.00
C297   C     0.46440   0.50880   0.09262   0.00000  Uiso   1.00
C298   C     0.47922   0.46881   0.41138   0.00000  Uiso   1.00
C299   C     0.53249   0.52880   0.40437   0.00000  Uiso   1.00
C300   C     0.53973   0.49495   0.09365   0.00000  Uiso   1.00
C301   C     0.50144   0.50108   0.11616   0.00000  Uiso   1.00
C302   C     0.50452   0.49820   0.38445   0.00000  Uiso   1.00
C303   C     0.50450   0.50930   0.02428   0.00000  Uiso   1.00
C304   C     0.50475   0.50628   0.47636   0.00000  Uiso   1.00
C305   C     0.62386   0.50062   0.24880   0.00000  Uiso   1.00
C306   C     0.37560   0.50113   0.24942   0.00000  Uiso   1.00
N307   N     0.50000   0.61907   0.25000   0.00000  Uiso   1.00
N308   N     0.50000   0.38093   0.25000   0.00000  Uiso   1.00
O309   O     0.43892   0.53821   0.25000   0.00000  Uiso   1.00
O310   O     0.56108   0.46179   0.25001   0.00000  Uiso   1.00
O311   O     0.56108   0.53821   0.25001   0.00000  Uiso   1.00
O312   O     0.43892   0.46179   0.25000   0.00000  Uiso   1.00
O313   O     0.50000   0.53822   0.18453   0.00000  Uiso   1.00
O314   O     0.50000   0.46178   0.31547   0.00000  Uiso   1.00
O315   O     0.50000   0.53822   0.31547   0.00000  Uiso   1.00
O316   O     0.50000   0.46178   0.18453   0.00000  Uiso   1.00
Zn317  Zn    0.50000   0.55104   0.25000   0.00000  Uiso   1.00
Zn318  Zn    0.50000   0.44896   0.25000   0.00000  Uiso   1.00
H319   H     0.54283   0.37432   0.30289   0.00000  Uiso   1.00
H320   H     0.45749   0.62579   0.19685   0.00000  Uiso   1.00
H321   H     0.45719   0.37677   0.19709   0.00000  Uiso   1.00
H322   H     0.54289   0.62328   0.30283   0.00000  Uiso   1.00
H323   H     0.43856   0.51957   0.02753   0.00000  Uiso   1.00
H324   H     0.46064   0.45211   0.47876   0.00000  Uiso   1.00
H325   H     0.55229   0.55631   0.46663   0.00000  Uiso   1.00
H326   H     0.56949   0.49432   0.02902   0.00000  Uiso   1.00
C327   C     0.42314   0.50749   0.11514   0.00000  Uiso   1.00
H328   H     0.42008   0.49449   0.14912   0.00000  Uiso   1.00
O329   O     0.39191   0.52009   0.09577   0.00000  Uiso   1.00
C330   C     0.45205   0.43267   0.39360   0.00000  Uiso   1.00
H331   H     0.45500   0.42104   0.35989   0.00000  Uiso   1.00
O332   O     0.42551   0.41444   0.41723   0.00000  Uiso   1.00
C333   C     0.56406   0.55507   0.37796   0.00000  Uiso   1.00
H334   H     0.57162   0.54621   0.34393   0.00000  Uiso   1.00
O335   O     0.58261   0.58668   0.39420   0.00000  Uiso   1.00
C336   C     0.57801   0.48099   0.11755   0.00000  Uiso   1.00
H337   H     0.57741   0.47460   0.15327   0.00000  Uiso   1.00
O338   O     0.61082   0.47587   0.09748   0.00000  Uiso   1.00
C339   C     0.37706   0.44539   0.31354   0.00000  Uiso   1.00
H340   H     0.39174   0.46330   0.34021   0.00000  Uiso   1.00
O341   O     0.38049   0.40428   0.31117   0.00000  Uiso   1.00
C342   C     0.62310   0.55298   0.18013   0.00000  Uiso   1.00
H343   H     0.59089   0.56284   0.18270   0.00000  Uiso   1.00
O344   O     0.64057   0.56039   0.14435   0.00000  Uiso   1.00
C345   C     0.62028   0.44814   0.31647   0.00000  Uiso   1.00
H346   H     0.59215   0.46299   0.33003   0.00000  Uiso   1.00
O347   O     0.63067   0.41065   0.33030   0.00000  Uiso   1.00
C348   C     0.37731   0.57003   0.19703   0.00000  Uiso   1.00
H349   H     0.40742   0.56461   0.18184   0.00000  Uiso   1.00
O350   O     0.36275   0.60828   0.19539   0.00000  Uiso   1.00
C351   C     0.75333   0.50026   0.24942   0.00000  Uiso   1.00
C352   C     0.91316   0.50012   0.24870   0.00000  Uiso   1.00
C353   C     0.83358   0.50034   0.16406   0.00000  Uiso   1.00
C354   C     0.83385   0.49937   0.33625   0.00000  Uiso   1.00
C355   C     0.85714   0.35665   0.27941   0.00000  Uiso   1.00
C356   C     0.80963   0.64338   0.22053   0.00000  Uiso   1.00
C357   C     0.80955   0.35802   0.22059   0.00000  Uiso   1.00
C358   C     0.85715   0.64200   0.27939   0.00000  Uiso   1.00
C359   C     0.68748   0.47168   0.27920   0.00000  Uiso   1.00
C360   C     0.97850   0.52910   0.21774   0.00000  Uiso   1.00
C361   C     0.97767   0.47290   0.28050   0.00000  Uiso   1.00
C362   C     0.68812   0.53245   0.22115   0.00000  Uiso   1.00
C363   C     0.79994   0.51411   0.04656   0.00000  Uiso   1.00
C364   C     0.81295   0.47393   0.45726   0.00000  Uiso   1.00
C365   C     0.86503   0.53285   0.45052   0.00000  Uiso   1.00
C366   C     0.87417   0.49994   0.04741   0.00000  Uiso   1.00
C367   C     0.79773   0.50880   0.09262   0.00000  Uiso   1.00
C368   C     0.81255   0.46881   0.41138   0.00000  Uiso   1.00
C369   C     0.86582   0.52880   0.40437   0.00000  Uiso   1.00
C370   C     0.87306   0.49495   0.09365   0.00000  Uiso   1.00
C371   C     0.83478   0.50108   0.11616   0.00000  Uiso   1.00
C372   C     0.83785   0.49820   0.38445   0.00000  Uiso   1.00
C373   C     0.83783   0.50930   0.02428   0.00000  Uiso   1.00
C374   C     0.83809   0.50628   0.47636   0.00000  Uiso   1.00
C375   C     0.95720   0.50062   0.24880   0.00000  Uiso   1.00
C376   C     0.70894   0.50113   0.24942   0.00000  Uiso   1.00
N377   N     0.83333   0.61907   0.25000   0.00000  Uiso   1.00
N378   N     0.83333   0.38093   0.25000   0.00000  Uiso   1.00
O379   O     0.77226   0.53821   0.25000   0.00000  Uiso   1.00
O380   O     0.89441   0.46179   0.25001   0.00000  Uiso   1.00
O381   O     0.89441   0.53821   0.25001   0.00000  Uiso   1.00
O382   O     0.77226   0.46179   0.25000   0.00000  Uiso   1.00
O383   O     0.83333   0.53822   0.18453   0.00000  Uiso   1.00
O384   O     0.83334   0.46178   0.31547   0.00000  Uiso   1.00
O385   O     0.83334   0.53822   0.31547   0.00000  Uiso   1.00
O386   O     0.83333   0.46178   0.18453   0.00000  Uiso   1.00
Zn387  Zn    0.83333   0.55104   0.25000   0.00000  Uiso   1.00
Zn388  Zn    0.83333   0.44896   0.25000   0.00000  Uiso   1.00
H389   H     0.87616   0.37432   0.30289   0.00000  Uiso   1.00
H390   H     0.79082   0.62579   0.19685   0.00000  Uiso   1.00
H391   H     0.79052   0.37677   0.19709   0.00000  Uiso   1.00
H392   H     0.87623   0.62328   0.30283   0.00000  Uiso   1.00
H393   H     0.77189   0.51957   0.02753   0.00000  Uiso   1.00
H394   H     0.79397   0.45211   0.47876   0.00000  Uiso   1.00
H395   H     0.88562   0.55631   0.46663   0.00000  Uiso   1.00
H396   H     0.90282   0.49432   0.02902   0.00000  Uiso   1.00
C397   C     0.75647   0.50749   0.11514   0.00000  Uiso   1.00
H398   H     0.75341   0.49449   0.14912   0.00000  Uiso   1.00
O399   O     0.72524   0.52009   0.09577   0.00000  Uiso   1.00
C400   C     0.78539   0.43267   0.39360   0.00000  Uiso   1.00
H401   H     0.78834   0.42104   0.35989   0.00000  Uiso   1.00
O402   O     0.75885   0.41444   0.41723   0.00000  Uiso   1.00
C403   C     0.89740   0.55507   0.37796   0.00000  Uiso   1.00
H404   H     0.90495   0.54621   0.34393   0.00000  Uiso   1.00
O405   O     0.91594   0.58668   0.39420   0.00000  Uiso   1.00
C406   C     0.91134   0.48099   0.11755   0.00000  Uiso   1.00
H407   H     0.91074   0.47460   0.15327   0.00000  Uiso   1.00
O408   O     0.94415   0.47587   0.09748   0.00000  Uiso   1.00
C409   C     0.71039   0.44539   0.31354   0.00000  Uiso   1.00
H410   H     0.72508   0.46330   0.34021   0.00000  Uiso   1.00
O411   O     0.71383   0.40428   0.31117   0.00000  Uiso   1.00
C412   C     0.95643   0.55298   0.18013   0.00000  Uiso   1.00
H413   H     0.92422   0.56284   0.18270   0.00000  Uiso   1.00
O414   O     0.97390   0.56039   0.14435   0.00000  Uiso   1.00
C415   C     0.95361   0.44814   0.31647   0.00000  Uiso   1.00
H416   H     0.92549   0.46299   0.33003   0.00000  Uiso   1.00
O417   O     0.96400   0.41065   0.33030   0.00000  Uiso   1.00
C418   C     0.71064   0.57003   0.19703   0.00000  Uiso   1.00
H419   H     0.74075   0.56461   0.18184   0.00000  Uiso   1.00
O420   O     0.69608   0.60828   0.19539   0.00000  Uiso   1.00
C421   C     0.08666   0.83359   0.24942   0.00000  Uiso   1.00
C422   C     0.24649   0.83345   0.24870   0.00000  Uiso   1.00
C423   C     0.16692   0.83367   0.16406   0.00000  Uiso   1.00
C424   C     0.16718   0.83271   0.33625   0.00000  Uiso   1.00
C425   C     0.19047   0.68999   0.27941   0.00000  Uiso   1.00
C426   C     0.14296   0.97672   0.22053   0.00000  Uiso   1.00
C427   C     0.14288   0.69135   0.22059   0.00000  Uiso   1.00
C428   C     0.19048   0.97533   0.27939   0.00000  Uiso   1.00
C429   C     0.02081   0.80501   0.27920   0.00000  Uiso   1.00
C430   C     0.31184   0.86244   0.21774   0.00000  Uiso   1.00
C431   C     0.31101   0.80623   0.28050   0.00000  Uiso   1.00
C432   C     0.02145   0.86578   0.22115   0.00000  Uiso   1.00
C433   C     0.13327   0.84745   0.04656   0.00000  Uiso   1.00
C434   C     0.14628   0.80726   0.45726   0.00000  Uiso   1.00
C435   C     0.19836   0.86619   0.45052   0.00000  Uiso   1.00
C436   C     0.20751   0.83327   0.04741   0.00000  Uiso   1.00
C437   C     0.13106   0.84213   0.09262   0.00000  Uiso   1.00
C438   C     0.14588   0.80215   0.41138   0.00000  Uiso   1.00
C439   C     0.19915   0.86213   0.40437   0.00000  Uiso   1.00
C440   C     0.20640   0.82828   0.09365   0.00000  Uiso   1.00
C441   C     0.16811   0.83442   0.11616   0.00000  Uiso   1.00
C442   C     0.17118   0.83153   0.38445   0.00000  Uiso   1.00
C443   C     0.17116   0.84263   0.02428   0.00000  Uiso   1.00
C444   C     0.17142   0.83961   0.47636   0.00000  Uiso   1.00
C445   C     0.29053   0.83395   0.24880   0.00000  Uiso   1.00
C446   C     0.04227   0.83447   0.24942   0.00000  Uiso   1.00
N447   N     0.16667   0.95240   0.25000   0.00000  Uiso   1.00
N448   N     0.16667   0.71427   0.25000   0.00000  Uiso   1.00
O449   O     0.10559   0.87154   0.25000   0.00000  Uiso   1.00
O450   O     0.22774   0.79513   0.25001   0.00000  Uiso   1.00
O451   O     0.22774   0.87154   0.25001   0.00000  Uiso   1.00
O452   O     0.10559   0.79513   0.25000   0.00000  Uiso   1.00
O453   O     0.16666   0.87155   0.18453   0.00000  Uiso   1.00
O454   O     0.16667   0.79511   0.31547   0.00000  Uiso   1.00
O455   O     0.16667   0.87155   0.31547   0.00000  Uiso   1.00
O456   O     0.16666   0.79511   0.18453   0.00000  Uiso   1.00
Zn457  Zn    0.16667   0.88437   0.25000   0.00000  Uiso   1.00
Zn458  Zn    0.16667   0.78229   0.25000   0.00000  Uiso   1.00
H459   H     0.20949   0.70766   0.30289   0.00000  Uiso   1.00
H460   H     0.12415   0.95913   0.19685   0.00000  Uiso   1.00
H461   H     0.12386   0.71010   0.19709   0.00000  Uiso   1.00
H462   H     0.20956   0.95661   0.30283   0.00000  Uiso   1.00
H463   H     0.10523   0.85290   0.02753   0.00000  Uiso   1.00
H464   H     0.12730   0.78545   0.47876   0.00000  Uiso   1.00
H465   H     0.21895   0.88964   0.46663   0.00000  Uiso   1.00
H466   H     0.23616   0.82766   0.02902   0.00000  Uiso   1.00
C467   C     0.08981   0.84083   0.11514   0.00000  Uiso   1.00
H468   H     0.08675   0.82782   0.14912   0.00000  Uiso   1.00
O469   O     0.05858   0.85342   0.09577   0.00000  Uiso   1.00
C470   C     0.11872   0.76601   0.39360   0.00000  Uiso   1.00
H471   H     0.12167   0.75438   0.35989   0.00000  Uiso   1.00
O472   O     0.09218   0.74777   0.41723   0.00000  Uiso   1.00
C473   C     0.23073   0.88840   0.37796   0.00000  Uiso   1.00
H474   H     0.23829   0.87955   0.34393   0.00000  Uiso   1.00
O475   O     0.24927   0.92001   0.39420   0.00000  Uiso   1.00
C476   C     0.24467   0.81432   0.11755   0.00000  Uiso   1.00
H477   H     0.24408   0.80793   0.15327   0.00000  Uiso   1.00
O478   O     0.27748   0.80920   0.09748   0.00000  Uiso   1.00
C479   C     0.04372   0.77872   0.31354   0.00000  Uiso   1.00
H480   H     0.05841   0.79663   0.34021   0.00000  Uiso   1.00
O481   O     0.04716   0.73762   0.31117   0.00000  Uiso   1.00
C482   C     0.28976   0.88631   0.18013   0.00000  Uiso   1.00
H483   H     0.25755   0.89617   0.18270   0.00000  Uiso   1.00
O484   O     0.30724   0.89373   0.14435   0.00000  Uiso   1.00
C485   C     0.28694   0.78147   0.31647   0.00000  Uiso   1.00
H486   H     0.25882   0.79632   0.33003   0.00000  Uiso   1.00
O487   O     0.29734   0.74398   0.33030   0.00000  Uiso   1.00
C488   C     0.04398   0.90337   0.19703   0.00000  Uiso   1.00
H489   H     0.07409   0.89794   0.18184   0.00000  Uiso   1.00
O490   O     0.02941   0.94161   0.19539   0.00000  Uiso   1.00
C491   C     0.41999   0.83359   0.24942   0.00000  Uiso   1.00
C492   C     0.57983   0.83345   0.24870   0.00000  Uiso   1.00
C493   C     0.50025   0.83367   0.16406   0.00000  Uiso   1.00
C494   C     0.50052   0.83271   0.33625   0.00000  Uiso   1.00
C495   C     0.52380   0.68999   0.27941   0.00000  Uiso   1.00
C496   C     0.47629   0.97672   0.22053   0.00000  Uiso   1.00
C497   C     0.47622   0.69135   0.22059   0.00000  Uiso   1.00
C498   C     0.52381   0.97533   0.27939   0.00000  Uiso   1.00
C499   C     0.35415   0.80501   0.27920   0.00000  Uiso   1.00
C500   C     0.64517   0.86244   0.21774   0.00000  Uiso   1.00
C501   C     0.64434   0.80623   0.28050   0.00000  Uiso   1.00
C502   C     0.35478   0.86578   0.22115   0.00000  Uiso   1.00
C503   C     0.46661   0.84745   0.04656   0.00000  Uiso   1.00
C504   C     0.47961   0.80726   0.45726   0.00000  Uiso   1.00
C505   C     0.53170   0.86619   0.45052   0.00000  Uiso   1.00
C506   C     0.54084   0.83327   0.04741   0.00000  Uiso   1.00
C507   C     0.46440   0.84213   0.09262   0.00000  Uiso   1.00
C508   C     0.47922   0.80215   0.41138   0.00000  Uiso   1.00
C509   C     0.53249   0.86213   0.40437   0.00000  Uiso   1.00
C510   C     0.53973   0.82828   0.09365   0.00000  Uiso   1.00
C511   C     0.50144   0.83442   0.11616   0.00000  Uiso   1.00
C512   C     0.50452   0.83153   0.38445   0.00000  Uiso   1.00
C513   C     0.50450   0.84263   0.02428   0.00000  Uiso   1.00
C514   C     0.50475   0.83961   0.47636   0.00000  Uiso   1.00
C515   C     0.62386   0.83395   0.24880   0.00000  Uiso   1.00
C516   C     0.37560   0.83447   0.24942   0.00000  Uiso   1.00
N517   N     0.50000   0.95240   0.25000   0.00000  Uiso   1.00
N518   N     0.50000   0.71427   0.25000   0.00000  Uiso   1.00
O519   O     0.43892   0.87154   0.25000   0.00000  Uiso   1.00
O520   O     0.56108   0.79513   0.25001   0.00000  Uiso   1.00
O521   O     0.56108   0.87154   0.25001   0.00000  Uiso   1.00
O522   O     0.43892   0.79513   0.25000   0.00000  Uiso   1.00
O523   O     0.50000   0.87155   0.18453   0.00000  Uiso   1.00
O524   O     0.50000   0.79511   0.31547   0.00000  Uiso   1.00
O525   O     0.50000   0.87155   0.31547   0.00000  Uiso   1.00
O526   O     0.50000   0.79511   0.18453   0.00000  Uiso   1.00
Zn527  Zn    0.50000   0.88437   0.25000   0.00000  Uiso   1.00
Zn528  Zn    0.50000   0.78229   0.25000   0.00000  Uiso   1.00
H529   H     0.54283   0.70766   0.30289   0.00000  Uiso   1.00
H530   H     0.45749   0.95913   0.19685   0.00000  Uiso   1.00
H531   H     0.45719   0.71010   0.19709   0.00000  Uiso   1.00
H532   H     0.54289   0.95661   0.30283   0.00000  Uiso   1.00
H533   H     0.43856   0.85290   0.02753   0.00000  Uiso   1.00
H534   H     0.46064   0.78545   0.47876   0.00000  Uiso   1.00
H535   H     0.55229   0.88964   0.46663   0.00000  Uiso   1.00
H536   H     0.56949   0.82766   0.02902   0.00000  Uiso   1.00
C537   C     0.42314   0.84083   0.11514   0.00000  Uiso   1.00
H538   H     0.42008   0.82782   0.14912   0.00000  Uiso   1.00
O539   O     0.39191   0.85342   0.09577   0.00000  Uiso   1.00
C540   C     0.45205   0.76601   0.39360   0.00000  Uiso   1.00
H541   H     0.45500   0.75438   0.35989   0.00000  Uiso   1.00
O542   O     0.42551   0.74777   0.41723   0.00000  Uiso   1.00
C543   C     0.56406   0.88840   0.37796   0.00000  Uiso   1.00
H544   H     0.57162   0.87955   0.34393   0.00000  Uiso   1.00
O545   O     0.58261   0.92001   0.39420   0.00000  Uiso   1.00
C546   C     0.57801   0.81432   0.11755   0.00000  Uiso   1.00
H547   H     0.57741   0.80793   0.15327   0.00000  Uiso   1.00
O548   O     0.61082   0.80920   0.09748   0.00000  Uiso   1.00
C549   C     0.37706   0.77872   0.31354   0.00000  Uiso   1.00
H550   H     0.39174   0.79663   0.34021   0.00000  Uiso   1.00
O551   O     0.38049   0.73762   0.31117   0.00000  Uiso   1.00
C552   C     0.62310   0.88631   0.18013   0.00000  Uiso   1.00
H553   H     0.59089   0.89617   0.18270   0.00000  Uiso   1.00
O554   O     0.64057   0.89373   0.14435   0.00000  Uiso   1.00
C555   C     0.62028   0.78147   0.31647   0.00000  Uiso   1.00
H556   H     0.59215   0.79632   0.33003   0.00000  Uiso   1.00
O557   O     0.63067   0.74398   0.33030   0.00000  Uiso   1.00
C558   C     0.37731   0.90337   0.19703   0.00000  Uiso   1.00
H559   H     0.40742   0.89794   0.18184   0.00000  Uiso   1.00
O560   O     0.36275   0.94161   0.19539   0.00000  Uiso   1.00
C561   C     0.75333   0.83359   0.24942   0.00000  Uiso   1.00
C562   C     0.91316   0.83345   0.24870   0.00000  Uiso   1.00
C563   C     0.83358   0.83367   0.16406   0.00000  Uiso   1.00
C564   C     0.83385   0.83271   0.33625   0.00000  Uiso   1.00
C565   C     0.85714   0.68999   0.27941   0.00000  Uiso   1.00
C566   C     0.80963   0.97672   0.22053   0.00000  Uiso   1.00
C567   C     0.80955   0.69135   0.22059   0.00000  Uiso   1.00
C568   C     0.85715   0.97533   0.27939   0.00000  Uiso   1.00
C569   C     0.68748   0.80501   0.27920   0.00000  Uiso   1.00
C570   C     0.97850   0.86244   0.21774   0.00000  Uiso   1.00
C571   C     0.97767   0.80623   0.28050   0.00000  Uiso   1.00
C572   C     0.68812   0.86578   0.22115   0.00000  Uiso   1.00
C573   C     0.79994   0.84745   0.04656   0.00000  Uiso   1.00
C574   C     0.81295   0.80726   0.45726   0.00000  Uiso   1.00
C575   C     0.86503   0.86619   0.45052   0.00000  Uiso   1.00
C576   C     0.87417   0.83327   0.04741   0.00000  Uiso   1.00
C577   C     0.79773   0.84213   0.09262   0.00000  Uiso   1.00
C578   C     0.81255   0.80215   0.41138   0.00000  Uiso   1.00
C579   C     0.86582   0.86213   0.40437   0.00000  Uiso   1.00
C580   C     0.87306   0.82828   0.09365   0.00000  Uiso   1.00
C581   C     0.83478   0.83442   0.11616   0.00000  Uiso   1.00
C582   C     0.83785   0.83153   0.38445   0.00000  Uiso   1.00
C583   C     0.83783   0.84263   0.02428   0.00000  Uiso   1.00
C584   C     0.83809   0.83961   0.47636   0.00000  Uiso   1.00
C585   C     0.95720   0.83395   0.24880   0.00000  Uiso   1.00
C586   C     0.70894   0.83447   0.24942   0.00000  Uiso   1.00
N587   N     0.83333   0.95240   0.25000   0.00000  Uiso   1.00
N588   N     0.83333   0.71427   0.25000   0.00000  Uiso   1.00
O589   O     0.77226   0.87154   0.25000   0.00000  Uiso   1.00
O590   O     0.89441   0.79513   0.25001   0.00000  Uiso   1.00
O591   O     0.89441   0.87154   0.25001   0.00000  Uiso   1.00
O592   O     0.77226   0.79513   0.25000   0.00000  Uiso   1.00
O593   O     0.83333   0.87155   0.18453   0.00000  Uiso   1.00
O594   O     0.83334   0.79511   0.31547   0.00000  Uiso   1.00
O595   O     0.83334   0.87155   0.31547   0.00000  Uiso   1.00
O596   O     0.83333   0.79511   0.18453   0.00000  Uiso   1.00
Zn597  Zn    0.83333   0.88437   0.25000   0.00000  Uiso   1.00
Zn598  Zn    0.83333   0.78229   0.25000   0.00000  Uiso   1.00
H599   H     0.87616   0.70766   0.30289   0.00000  Uiso   1.00
H600   H     0.79082   0.95913   0.19685   0.00000  Uiso   1.00
H601   H     0.79052   0.71010   0.19709   0.00000  Uiso   1.00
H602   H     0.87623   0.95661   0.30283   0.00000  Uiso   1.00
H603   H     0.77189   0.85290   0.02753   0.00000  Uiso   1.00
H604   H     0.79397   0.78545   0.47876   0.00000  Uiso   1.00
H605   H     0.88562   0.88964   0.46663   0.00000  Uiso   1.00
H606   H     0.90282   0.82766   0.02902   0.00000  Uiso   1.00
C607   C     0.75647   0.84083   0.11514   0.00000  Uiso   1.00
H608   H     0.75341   0.82782   0.14912   0.00000  Uiso   1.00
O609   O     0.72524   0.85342   0.09577   0.00000  Uiso   1.00
C610   C     0.78539   0.76601   0.39360   0.00000  Uiso   1.00
H611   H     0.78834   0.75438   0.35989   0.00000  Uiso   1.00
O612   O     0.75885   0.74777   0.41723   0.00000  Uiso   1.00
C613   C     0.89740   0.88840   0.37796   0.00000  Uiso   1.00
H614   H     0.90495   0.87955   0.34393   0.00000  Uiso   1.00
O615   O     0.91594   0.92001   0.39420   0.00000  Uiso   1.00
C616   C     0.91134   0.81432   0.11755   0.00000  Uiso   1.00
H617   H     0.91074   0.80793   0.15327   0.00000  Uiso   1.00
O618   O     0.94415   0.80920   0.09748   0.00000  Uiso   1.00
C619   C     0.71039   0.77872   0.31354   0.00000  Uiso   1.00
H620   H     0.72508   0.79663   0.34021   0.00000  Uiso   1.00
O621   O     0.71383   0.73762   0.31117   0.00000  Uiso   1.00
C622   C     0.95643   0.88631   0.18013   0.00000  Uiso   1.00
H623   H     0.92422   0.89617   0.18270   0.00000  Uiso   1.00
O624   O     0.97390   0.89373   0.14435   0.00000  Uiso   1.00
C625   C     0.95361   0.78147   0.31647   0.00000  Uiso   1.00
H626   H     0.92549   0.79632   0.33003   0.00000  Uiso   1.00
O627   O     0.96400   0.74398   0.33030   0.00000  Uiso   1.00
C628   C     0.71064   0.90337   0.19703   0.00000  Uiso   1.00
H629   H     0.74075   0.89794   0.18184   0.00000  Uiso   1.00
O630   O     0.69608   0.94161   0.19539   0.00000  Uiso   1.00
C631   C     0.08666   0.16692   0.74942   0.00000  Uiso   1.00
C632   C     0.24649   0.16679   0.74870   0.00000  Uiso   1.00
C633   C     0.16692   0.16701   0.66406   0.00000  Uiso   1.00
C634   C     0.16718   0.16604   0.83625   0.00000  Uiso   1.00
C635   C     0.19047   0.02332   0.77941   0.00000  Uiso   1.00
C636   C     0.14296   0.31005   0.72053   0.00000  Uiso   1.00
C637   C     0.14288   0.02469   0.72059   0.00000  Uiso   1.00
C638   C     0.19048   0.30867   0.77939   0.00000  Uiso   1.00
C639   C     0.02081   0.13835   0.77920   0.00000  Uiso   1.00
C640   C     0.31184   0.19577   0.71774   0.00000  Uiso   1.00
C641   C     0.31101   0.13957   0.78050   0.00000  Uiso   1.00
C642   C     0.02145   0.19912   0.72115   0.00000  Uiso   1.00
C643   C     0.13327   0.18078   0.54656   0.00000  Uiso   1.00
C644   C     0.14628   0.14059   0.95726   0.00000  Uiso   1.00
C645   C     0.19836   0.19952   0.95052   0.00000  Uiso   1.00
C646   C     0.20751   0.16660   0.54741   0.00000  Uiso   1.00
C647   C     0.13106   0.17547   0.59262   0.00000  Uiso   1.00
C648   C     0.14588   0.13548   0.91138   0.00000  Uiso   1.00
C649   C     0.19915   0.19546   0.90437   0.00000  Uiso   1.00
C650   C     0.20640   0.16161   0.59365   0.00000  Uiso   1.00
C651   C     0.16811   0.16775   0.61616   0.00000  Uiso   1.00
C652   C     0.17118   0.16486   0.88445   0.00000  Uiso   1.00
C653   C     0.17116   0.17597   0.52428   0.00000  Uiso   1.00
C654   C     0.17142   0.17294   0.97636   0.00000  Uiso   1.00
C655   C     0.29053   0.16728   0.74880   0.00000  Uiso   1.00
C656   C     0.04227   0.16780   0.74942   0.00000  Uiso   1.00
N657   N     0.16667   0.28573   0.75000   0.00000  Uiso   1.00
N658   N     0.16667   0.04760   0.75000   0.00000  Uiso   1.00
O659   O     0.10559   0.20487   0.75000   0.00000  Uiso   1.00
O660   O     0.22774   0.12846   0.75001   0.00000  Uiso   1.00
O661   O     0.22774   0.20487   0.75001   0.00000  Uiso   1.00
O662   O     0.10559   0.12846   0.75000   0.00000  Uiso   1.00
O663   O     0.16666   0.20489   0.68453   0.00000  Uiso   1.00
O664   O     0.16667   0.12845   0.81547   0.00000  Uiso   1.00
O665   O     0.16667   0.20489   0.81547   0.00000  Uiso   1.00
O666   O     0.16666   0.12845   0.68453   0.00000  Uiso   1.00
Zn667  Zn    0.16667   0.21771   0.75000   0.00000  Uiso   1.00
Zn668  Zn    0.16667   0.11563   0.75000   0.00000  Uiso   1.00
H669   H     0.20949   0.04099   0.80289   0.00000  Uiso   1.00
H670   H     0.12415   0.29246   0.69685   0.00000  Uiso   1.00
H671   H     0.12386   0.04343   0.69709   0.00000  Uiso   1.00
H672   H     0.20956   0.28995   0.80283   0.00000  Uiso   1.00
H673   H     0.10523   0.18624   0.52753   0.00000  Uiso   1.00
H674   H     0.12730   0.11878   0.97876   0.00000  Uiso   1.00
H675   H     0.21895   0.22297   0.96663   0.00000  Uiso   1.00
H676   H     0.23616   0.16099   0.52902   0.00000  Uiso   1.00
C677   C     0.08981   0.17416   0.61514   0.00000  Uiso   1.00
H678   H     0.08675   0.16116   0.64912   0.00000  Uiso   1.00
O679   O     0.05858   0.18676   0.59577   0.00000  Uiso   1.00
C680   C     0.11872   0.09934   0.89360   0.00000  Uiso   1.00
H681   H     0.12167   0.08771   0.85989   0.00000  Uiso   1.00
O682   O     0.09218   0.08111   0.91723   0.00000  Uiso   1.00
C683   C     0.23073   0.22173   0.87796   0.00000  Uiso   1.00
H684   H     0.23829   0.21288   0.84393   0.00000  Uiso   1.00
O685   O     0.24927   0.25334   0.89420   0.00000  Uiso   1.00
C686   C     0.24467   0.14765   0.61755   0.00000  Uiso   1.00
H687   H     0.24408   0.14127   0.65327   0.00000  Uiso   1.00
O688   O     0.27748   0.14253   0.59748   0.00000  Uiso   1.00
C689   C     0.04372   0.11205   0.81354   0.00000  Uiso   1.00
H690   H     0.05841   0.12996   0.84021   0.00000  Uiso   1.00
O691   O     0.04716   0.07095   0.81117   0.00000  Uiso   1.00
C692   C     0.28976   0.21964   0.68013   0.00000  Uiso   1.00
H693   H     0.25755   0.22950   0.68270   0.00000  Uiso   1.00
O694   O     0.30724   0.22706   0.64435   0.00000  Uiso   1.00
C695   C     0.28694   0.11481   0.81647   0.00000  Uiso   1.00
H696   H     0.25882   0.12965   0.83003   0.00000  Uiso   1.00
O697   O     0.29734   0.07731   0.83030   0.00000  Uiso   1.00
C698   C     0.04398   0.23670   0.69703   0.00000  Uiso   1.00
H699   H     0.07409   0.23128   0.68184   0.00000  Uiso   1.00
O700   O     0.02941   0.27495   0.69539   0.00000  Uiso   1.00
C701   C     0.41999   0.16692   0.74942   0.00000  Uiso   1.00
C702   C     0.57983   0.16679   0.74870   0.00000  Uiso   1.00
C703   C     0.50025   0.16701   0.66406   0.00000  Uiso   1.00
C704   C     0.50052   0.16604   0.83625   0.00000  Uiso   1.00
C705   C     0.52380   0.02332   0.77941   0.00000  Uiso   1.00
C706   C     0.47629   0.31005   0.72053   0.00000  Uiso   1.00
C707   C     0.47622   0.02469   0.72059   0.00000  Uiso   1.00
C708   C     0.52381   0.30867   0.77939   0.00000  Uiso   1.00
C709   C     0.35415   0.13835   0.77920   0.00000  Uiso   1.00
C710   C     0.64517   0.19577   0.71774   0.00000  Uiso   1.00
C711   C     0.64434   0.13957   0.78050   0.00000  Uiso   1.00
C712   C     0.35478   0.19912   0.72115   0.00000  Uiso   1.00
C713   C     0.46661   0.18078   0.54656   0.00000  Uiso   1.00
C714   C     0.47961   0.14059   0.95726   0.00000  Uiso   1.00
C715   C     0.53170   0.19952   0.95052   0.00000  Uiso   1.00
C716   C     0.54084   0.16660   0.54741   0.00000  Uiso   1.00
C717   C     0.46440   0.17547   0.59262   0.00000  Uiso   1.00
C718   C     0.47922   0.13548   0.91138   0.00000  Uiso   1.00
C719   C     0.53249   0.19546   0.90437   0.00000  Uiso   1.00
C720   C     0.53973   0.16161   0.59365   0.00000  Uiso   1.00
C721   C     0.50144   0.16775   0.61616   0.00000  Uiso   1.00
C722   C     0.50452   0.16486   0.88445   0.00000  Uiso   1.00
C723   C     0.50450   0.17597   0.52428   0.00000  Uiso   1.00
C724   C     0.50475   0.17294   0.97636   0.00000  Uiso   1.00
C725   C     0.62386   0.16728   0.74880   0.00000  Uiso   1.00
C726   C     0.37560   0.16780   0.74942   0.00000  Uiso   1.00
N727   N     0.50000   0.28573   0.75000   0.00000  Uiso   1.00
N728   N     0.50000   0.04760   0.75000   0.00000  Uiso   1.00
O729   O     0.43892   0.20487   0.75000   0.00000  Uiso   1.00
O730   O     0.56108   0.12846   0.75001   0.00000  Uiso   1.00
O731   O     0.56108   0.20487   0.75001   0.00000  Uiso   1.00
O732   O     0.43892   0.12846   0.75000   0.00000  Uiso   1.00
O733   O     0.50000   0.20489   0.68453   0.00000  Uiso   1.00
O734   O     0.50000   0.12845   0.81547   0.00000  Uiso   1.00
O735   O     0.50000   0.20489   0.81547   0.00000  Uiso   1.00
O736   O     0.50000   0.12845   0.68453   0.00000  Uiso   1.00
Zn737  Zn    0.50000   0.21771   0.75000   0.00000  Uiso   1.00
Zn738  Zn    0.50000   0.11563   0.75000   0.00000  Uiso   1.00
H739   H     0.54283   0.04099   0.80289   0.00000  Uiso   1.00
H740   H     0.45749   0.29246   0.69685   0.00000  Uiso   1.00
H741   H     0.45719   0.04343   0.69709   0.00000  Uiso   1.00
H742   H     0.54289   0.28995   0.80283   0.00000  Uiso   1.00
H743   H     0.43856   0.18624   0.52753   0.00000  Uiso   1.00
H744   H     0.46064   0.11878   0.97876   0.00000  Uiso   1.00
H745   H     0.55229   0.22297   0.96663   0.00000  Uiso   1.00
H746   H     0.56949   0.16099   0.52902   0.00000  Uiso   1.00
C747   C     0.42314   0.17416   0.61514   0.00000  Uiso   1.00
H748   H     0.42008   0.16116   0.64912   0.00000  Uiso   1.00
O749   O     0.39191   0.18676   0.59577   0.00000  Uiso   1.00
C750   C     0.45205   0.09934   0.89360   0.00000  Uiso   1.00
H751   H     0.45500   0.08771   0.85989   0.00000  Uiso   1.00
O752   O     0.42551   0.08111   0.91723   0.00000  Uiso   1.00
C753   C     0.56406   0.22173   0.87796   0.00000  Uiso   1.00
H754   H     0.57162   0.21288   0.84393   0.00000  Uiso   1.00
O755   O     0.58261   0.25334   0.89420   0.00000  Uiso   1.00
C756   C     0.57801   0.14765   0.61755   0.00000  Uiso   1.00
H757   H     0.57741   0.14127   0.65327   0.00000  Uiso   1.00
O758   O     0.61082   0.14253   0.59748   0.00000  Uiso   1.00
C759   C     0.37706   0.11205   0.81354   0.00000  Uiso   1.00
H760   H     0.39174   0.12996   0.84021   0.00000  Uiso   1.00
O761   O     0.38049   0.07095   0.81117   0.00000  Uiso   1.00
C762   C     0.62310   0.21964   0.68013   0.00000  Uiso   1.00
H763   H     0.59089   0.22950   0.68270   0.00000  Uiso   1.00
O764   O     0.64057   0.22706   0.64435   0.00000  Uiso   1.00
C765   C     0.62028   0.11481   0.81647   0.00000  Uiso   1.00
H766   H     0.59215   0.12965   0.83003   0.00000  Uiso   1.00
O767   O     0.63067   0.07731   0.83030   0.00000  Uiso   1.00
C768   C     0.37731   0.23670   0.69703   0.00000  Uiso   1.00
H769   H     0.40742   0.23128   0.68184   0.00000  Uiso   1.00
O770   O     0.36275   0.27495   0.69539   0.00000  Uiso   1.00
C771   C     0.75333   0.16692   0.74942   0.00000  Uiso   1.00
C772   C     0.91316   0.16679   0.74870   0.00000  Uiso   1.00
C773   C     0.83358   0.16701   0.66406   0.00000  Uiso   1.00
C774   C     0.83385   0.16604   0.83625   0.00000  Uiso   1.00
C775   C     0.85714   0.02332   0.77941   0.00000  Uiso   1.00
C776   C     0.80963   0.31005   0.72053   0.00000  Uiso   1.00
C777   C     0.80955   0.02469   0.72059   0.00000  Uiso   1.00
C778   C     0.85715   0.30867   0.77939   0.00000  Uiso   1.00
C779   C     0.68748   0.13835   0.77920   0.00000  Uiso   1.00
C780   C     0.97850   0.19577   0.71774   0.00000  Uiso   1.00
C781   C     0.97767   0.13957   0.78050   0.00000  Uiso   1.00
C782   C     0.68812   0.19912   0.72115   0.00000  Uiso   1.00
C783   C     0.79994   0.18078   0.54656   0.00000  Uiso   1.00
C784   C     0.81295   0.14059   0.95726   0.00000  Uiso   1.00
C785   C     0.86503   0.19952   0.95052   0.00000  Uiso   1.00
C786   C     0.87417   0.16660   0.54741   0.00000  Uiso   1.00
C787   C     0.79773   0.17547   0.59262   0.00000  Uiso   1.00
C788   C     0.81255   0.13548   0.91138   0.00000  Uiso   1.00
C789   C     0.86582   0.19546   0.90437   0.00000  Uiso   1.00
C790   C     0.87306   0.16161   0.59365   0.00000  Uiso   1.00
C791   C     0.83478   0.16775   0.61616   0.00000  Uiso   1.00
C792   C     0.83785   0.16486   0.88445   0.00000  Uiso   1.00
C793   C     0.83783   0.17597   0.52428   0.00000  Uiso   1.00
C794   C     0.83809   0.17294   0.97636   0.00000  Uiso   1.00
C795   C     0.95720   0.16728   0.74880   0.00000  Uiso   1.00
C796   C     0.70894   0.16780   0.74942   0.00000  Uiso   1.00
N797   N     0.83333   0.28573   0.75000   0.00000  Uiso   1.00
N798   N     0.83333   0.04760   0.75000   0.00000  Uiso   1.00
O799   O     0.77226   0.20487   0.75000   0.00000  Uiso   1.00
O800   O     0.89441   0.12846   0.75001   0.00000  Uiso   1.00
O801   O     0.89441   0.20487   0.75001   0.00000  Uiso   1.00
O802   O     0.77226   0.12846   0.75000   0.00000  Uiso   1.00
O803   O     0.83333   0.20489   0.68453   0.00000  Uiso   1.00
O804   O     0.83334   0.12845   0.81547   0.00000  Uiso   1.00
O805   O     0.83334   0.20489   0.81547   0.00000  Uiso   1.00
O806   O     0.83333   0.12845   0.68453   0.00000  Uiso   1.00
Zn807  Zn    0.83333   0.21771   0.75000   0.00000  Uiso   1.00
Zn808  Zn    0.83333   0.11563   0.75000   0.00000  Uiso   1.00
H809   H     0.87616   0.04099   0.80289   0.00000  Uiso   1.00
H810   H     0.79082   0.29246   0.69685   0.00000  Uiso   1.00
H811   H     0.79052   0.04343   0.69709   0.00000  Uiso   1.00
H812   H     0.87623   0.28995   0.80283   0.00000  Uiso   1.00
H813   H     0.77189   0.18624   0.52753   0.00000  Uiso   1.00
H814   H     0.79397   0.11878   0.97876   0.00000  Uiso   1.00
H815   H     0.88562   0.22297   0.96663   0.00000  Uiso   1.00
H816   H     0.90282   0.16099   0.52902   0.00000  Uiso   1.00
C817   C     0.75647   0.17416   0.61514   0.00000  Uiso   1.00
H818   H     0.75341   0.16116   0.64912   0.00000  Uiso   1.00
O819   O     0.72524   0.18676   0.59577   0.00000  Uiso   1.00
C820   C     0.78539   0.09934   0.89360   0.00000  Uiso   1.00
H821   H     0.78834   0.08771   0.85989   0.00000  Uiso   1.00
O822   O     0.75885   0.08111   0.91723   0.00000  Uiso   1.00
C823   C     0.89740   0.22173   0.87796   0.00000  Uiso   1.00
H824   H     0.90495   0.21288   0.84393   0.00000  Uiso   1.00
O825   O     0.91594   0.25334   0.89420   0.00000  Uiso   1.00
C826   C     0.91134   0.14765   0.61755   0.00000  Uiso   1.00
H827   H     0.91074   0.14127   0.65327   0.00000  Uiso   1.00
O828   O     0.94415   0.14253   0.59748   0.00000  Uiso   1.00
C829   C     0.71039   0.11205   0.81354   0.00000  Uiso   1.00
H830   H     0.72508   0.12996   0.84021   0.00000  Uiso   1.00
O831   O     0.71383   0.07095   0.81117   0.00000  Uiso   1.00
C832   C     0.95643   0.21964   0.68013   0.00000  Uiso   1.00
H833   H     0.92422   0.22950   0.68270   0.00000  Uiso   1.00
O834   O     0.97390   0.22706   0.64435   0.00000  Uiso   1.00
C835   C     0.95361   0.11481   0.81647   0.00000  Uiso   1.00
H836   H     0.92549   0.12965   0.83003   0.00000  Uiso   1.00
O837   O     0.96400   0.07731   0.83030   0.00000  Uiso   1.00
C838   C     0.71064   0.23670   0.69703   0.00000  Uiso   1.00
H839   H     0.74075   0.23128   0.68184   0.00000  Uiso   1.00
O840   O     0.69608   0.27495   0.69539   0.00000  Uiso   1.00
C841   C     0.08666   0.50026   0.74942   0.00000  Uiso   1.00
C842   C     0.24649   0.50012   0.74870   0.00000  Uiso   1.00
C843   C     0.16692   0.50034   0.66406   0.00000  Uiso   1.00
C844   C     0.16718   0.49937   0.83625   0.00000  Uiso   1.00
C845   C     0.19047   0.35665   0.77941   0.00000  Uiso   1.00
C846   C     0.14296   0.64338   0.72053   0.00000  Uiso   1.00
C847   C     0.14288   0.35802   0.72059   0.00000  Uiso   1.00
C848   C     0.19048   0.64200   0.77939   0.00000  Uiso   1.00
C849   C     0.02081   0.47168   0.77920   0.00000  Uiso   1.00
C850   C     0.31184   0.52910   0.71774   0.00000  Uiso   1.00
C851   C     0.31101   0.47290   0.78050   0.00000  Uiso   1.00
C852   C     0.02145   0.53245   0.72115   0.00000  Uiso   1.00
C853   C     0.13327   0.51411   0.54656   0.00000  Uiso   1.00
C854   C     0.14628   0.47393   0.95726   0.00000  Uiso   1.00
C855   C     0.19836   0.53285   0.95052   0.00000  Uiso   1.00
C856   C     0.20751   0.49994   0.54741   0.00000  Uiso   1.00
C857   C     0.13106   0.50880   0.59262   0.00000  Uiso   1.00
C858   C     0.14588   0.46881   0.91138   0.00000  Uiso   1.00
C859   C     0.19915   0.52880   0.90437   0.00000  Uiso   1.00
C860   C     0.20640   0.49495   0.59365   0.00000  Uiso   1.00
C861   C     0.16811   0.50108   0.61616   0.00000  Uiso   1.00
C862   C     0.17118   0.49820   0.88445   0.00000  Uiso   1.00
C863   C     0.17116   0.50930   0.52428   0.00000  Uiso   1.00
C864   C     0.17142   0.50628   0.97636   0.00000  Uiso   1.00
C865   C     0.29053   0.50062   0.74880   0.00000  Uiso   1.00
C866   C     0.04227   0.50113   0.74942   0.00000  Uiso   1.00
N867   N     0.16667   0.61907   0.75000   0.00000  Uiso   1.00
N868   N     0.16667   0.38093   0.75000   0.00000  Uiso   1.00
O869   O     0.10559   0.53821   0.75000   0.00000  Uiso   1.00
O870   O     0.22774   0.46179   0.75001   0.00000  Uiso   1.00
O871   O     0.22774   0.53821   0.75001   0.00000  Uiso   1.00
O872   O     0.10559   0.46179   0.75000   0.00000  Uiso   1.00
O873   O     0.16666   0.53822   0.68453   0.00000  Uiso   1.00
O874   O     0.16667   0.46178   0.81547   0.00000  Uiso   1.00
O875   O     0.16667   0.53822   0.81547   0.00000  Uiso   1.00
O876   O     0.16666   0.46178   0.68453   0.00000  Uiso   1.00
Zn877  Zn    0.16667   0.55104   0.75000   0.00000  Uiso   1.00
Zn878  Zn    0.16667   0.44896   0.75000   0.00000  Uiso   1.00
H879   H     0.20949   0.37432   0.80289   0.00000  Uiso   1.00
H880   H     0.12415   0.62579   0.69685   0.00000  Uiso   1.00
H881   H     0.12386   0.37677   0.69709   0.00000  Uiso   1.00
H882   H     0.20956   0.62328   0.80283   0.00000  Uiso   1.00
H883   H     0.10523   0.51957   0.52753   0.00000  Uiso   1.00
H884   H     0.12730   0.45211   0.97876   0.00000  Uiso   1.00
H885   H     0.21895   0.55631   0.96663   0.00000  Uiso   1.00
H886   H     0.23616   0.49432   0.52902   0.00000  Uiso   1.00
C887   C     0.08981   0.50749   0.61514   0.00000  Uiso   1.00
H888   H     0.08675   0.49449   0.64912   0.00000  Uiso   1.00
O889   O     0.05858   0.52009   0.59577   0.00000  Uiso   1.00
C890   C     0.11872   0.43267   0.89360   0.00000  Uiso   1.00
H891   H     0.12167   0.42104   0.85989   0.00000  Uiso   1.00
O892   O     0.09218   0.41444   0.91723   0.00000  Uiso   1.00
C893   C     0.23073   0.55507   0.87796   0.00000  Uiso   1.00
H894   H     0.23829   0.54621   0.84393   0.00000  Uiso   1.00
O895   O     0.24927   0.58668   0.89420   0.00000  Uiso   1.00
C896   C     0.24467   0.48099   0.61755   0.00000  Uiso   1.00
H897   H     0.24408   0.47460   0.65327   0.00000  Uiso   1.00
O898   O     0.27748   0.47587   0.59748   0.00000  Uiso   1.00
C899   C     0.04372   0.44539   0.81354   0.00000  Uiso   1.00
H900   H     0.05841   0.46330   0.84021   0.00000  Uiso   1.00
O901   O     0.04716   0.40428   0.81117   0.00000  Uiso   1.00
C902   C     0.28976   0.55298   0.68013   0.00000  Uiso   1.00
H903   H     0.25755   0.56284   0.68270   0.00000  Uiso   1.00
O904   O     0.30724   0.56039   0.64435   0.00000  Uiso   1.00
C905   C     0.28694   0.44814   0.81647   0.00000  Uiso   1.00
H906   H     0.25882   0.46299   0.83003   0.00000  Uiso   1.00
O907   O     0.29734   0.41065   0.83030   0.00000  Uiso   1.00
C908   C     0.04398   0.57003   0.69703   0.00000  Uiso   1.00
H909   H     0.07409   0.56461   0.68184   0.00000  Uiso   1.00
O910   O     0.02941   0.60828   0.69539   0.00000  Uiso   1.00
C911   C     0.41999   0.50026   0.74942   0.00000  Uiso   1.00
C912   C     0.57983   0.50012   0.74870   0.00000  Uiso   1.00
C913   C     0.50025   0.50034   0.66406   0.00000  Uiso   1.00
C914   C     0.50052   0.49937   0.83625   0.00000  Uiso   1.00
C915   C     0.52380   0.35665   0.77941   0.00000  Uiso   1.00
C916   C     0.47629   0.64338   0.72053   0.00000  Uiso   1.00
C917   C     0.47622   0.35802   0.72059   0.00000  Uiso   1.00
C918   C     0.52381   0.64200   0.77939   0.00000  Uiso   1.00
C919   C     0.35415   0.47168   0.77920   0.00000  Uiso   1.00
C920   C     0.64517   0.52910   0.71774   0.00000  Uiso   1.00
C921   C     0.64434   0.47290   0.78050   0.00000  Uiso   1.00
C922   C     0.35478   0.53245   0.72115   0.00000  Uiso   1.00
C923   C     0.46661   0.51411   0.54656   0.00000  Uiso   1.00
C924   C     0.47961   0.47393   0.95726   0.00000  Uiso   1.00
C925   C     0.53170   0.53285   0.95052   0.00000  Uiso   1.00
C926   C     0.54084   0.49994   0.54741   0.00000  Uiso   1.00
C927   C     0.46440   0.50880   0.59262   0.00000  Uiso   1.00
C928   C     0.47922   0.46881   0.91138   0.00000  Uiso   1.00
C929   C     0.53249   0.52880   0.90437   0.00000  Uiso   1.00
C930   C     0.53973   0.49495   0.59365   0.00000  Uiso   1.00
C931   C     0.50144   0.50108   0.61616   0.00000  Uiso   1.00
C932   C     0.50452   0.49820   0.88445   0.00000  Uiso   1.00
C933   C     0.50450   0.50930   0.52428   0.00000  Uiso   1.00
C934   C     0.50475   0.50628   0.97636   0.00000  Uiso   1.00
C935   C     0.62386   0.50062   0.74880   0.00000  Uiso   1.00
C936   C     0.37560   0.50113   0.74942   0.00000  Uiso   1.00
N937   N     0.50000   0.61907   0.75000   0.00000  Uiso   1.00
N938   N     0.50000   0.38093   0.75000   0.00000  Uiso   1.00
O939   O     0.43892   0.53821   0.75000   0.00000  Uiso   1.00
O940   O     0.56108   0.46179   0.75001   0.00000  Uiso   1.00
O941   O     0.56108   0.53821   0.75001   0.00000  Uiso   1.00
O942   O     0.43892   0.46179   0.75000   0.00000  Uiso   1.00
O943   O     0.50000   0.53822   0.68453   0.00000  Uiso   1.00
O944   O     0.50000   0.46178   0.81547   0.00000  Uiso   1.00
O945   O     0.50000   0.53822   0.81547   0.00000  Uiso   1.00
O946   O     0.50000   0.46178   0.68453   0.00000  Uiso   1.00
Zn947  Zn    0.50000   0.55104   0.75000   0.00000  Uiso   1.00
Zn948  Zn    0.50000   0.44896   0.75000   0.00000  Uiso   1.00
H949   H     0.54283   0.37432   0.80289   0.00000  Uiso   1.00
H950   H     0.45749   0.62579   0.69685   0.00000  Uiso   1.00
H951   H     0.45719   0.37677   0.69709   0.00000  Uiso   1.00
H952   H     0.54289   0.62328   0.80283   0.00000  Uiso   1.00
H953   H     0.43856   0.51957   0.52753   0.00000  Uiso   1.00
H954   H     0.46064   0.45211   0.97876   0.00000  Uiso   1.00
H955   H     0.55229   0.55631   0.96663   0.00000  Uiso   1.00
H956   H     0.56949   0.49432   0.52902   0.00000  Uiso   1.00
C957   C     0.42314   0.50749   0.61514   0.00000  Uiso   1.00
H958   H     0.42008   0.49449   0.64912   0.00000  Uiso   1.00
O959   O     0.39191   0.52009   0.59577   0.00000  Uiso   1.00
C960   C     0.45205   0.43267   0.89360   0.00000  Uiso   1.00
H961   H     0.45500   0.42104   0.85989   0.00000  Uiso   1.00
O962   O     0.42551   0.41444   0.91723   0.00000  Uiso   1.00
C963   C     0.56406   0.55507   0.87796   0.00000  Uiso   1.00
H964   H     0.57162   0.54621   0.84393   0.00000  Uiso   1.00
O965   O     0.58261   0.58668   0.89420   0.00000  Uiso   1.00
C966   C     0.57801   0.48099   0.61755   0.00000  Uiso   1.00
H967   H     0.57741   0.47460   0.65327   0.00000  Uiso   1.00
O968   O     0.61082   0.47587   0.59748   0.00000  Uiso   1.00
C969   C     0.37706   0.44539   0.81354   0.00000  Uiso   1.00
H970   H     0.39174   0.46330   0.84021   0.00000  Uiso   1.00
O971   O     0.38049   0.40428   0.81117   0.00000  Uiso   1.00
C972   C     0.62310   0.55298   0.68013   0.00000  Uiso   1.00
H973   H     0.59089   0.56284   0.68270   0.00000  Uiso   1.00
O974   O     0.64057   0.56039   0.64435   0.00000  Uiso   1.00
C975   C     0.62028   0.44814   0.81647   0.00000  Uiso   1.00
H976   H     0.59215   0.46299   0.83003   0.00000  Uiso   1.00
O977   O     0.63067   0.41065   0.83030   0.00000  Uiso   1.00
C978   C     0.37731   0.57003   0.69703   0.00000  Uiso   1.00
H979   H     0.40742   0.56461   0.68184   0.00000  Uiso   1.00
O980   O     0.36275   0.60828   0.69539   0.00000  Uiso   1.00
C981   C     0.75333   0.50026   0.74942   0.00000  Uiso   1.00
C982   C     0.91316   0.50012   0.74870   0.00000  Uiso   1.00
C983   C     0.83358   0.50034   0.66406   0.00000  Uiso   1.00
C984   C     0.83385   0.49937   0.83625   0.00000  Uiso   1.00
C985   C     0.85714   0.35665   0.77941   0.00000  Uiso   1.00
C986   C     0.80963   0.64338   0.72053   0.00000  Uiso   1.00
C987   C     0.80955   0.35802   0.72059   0.00000  Uiso   1.00
C988   C     0.85715   0.64200   0.77939   0.00000  Uiso   1.00
C989   C     0.68748   0.47168   0.77920   0.00000  Uiso   1.00
C990   C     0.97850   0.52910   0.71774   0.00000  Uiso   1.00
C991   C     0.97767   0.47290   0.78050   0.00000  Uiso   1.00
C992   C     0.68812   0.53245   0.72115   0.00000  Uiso   1.00
C993   C     0.79994   0.51411   0.54656   0.00000  Uiso   1.00
C994   C     0.81295   0.47393   0.95726   0.00000  Uiso   1.00
C995   C     0.86503   0.53285   0.95052   0.00000  Uiso   1.00
C996   C     0.87417   0.49994   0.54741   0.00000  Uiso   1.00
C997   C     0.79773   0.50880   0.59262   0.00000  Uiso   1.00
C998   C     0.81255   0.46881   0.91138   0.00000  Uiso   1.00
C999   C     0.86582   0.52880   0.90437   0.00000  Uiso   1.00
C1000  C     0.87306   0.49495   0.59365   0.00000  Uiso   1.00
C1001  C     0.83478   0.50108   0.61616   0.00000  Uiso   1.00
C1002  C     0.83785   0.49820   0.88445   0.00000  Uiso   1.00
C1003  C     0.83783   0.50930   0.52428   0.00000  Uiso   1.00
C1004  C     0.83809   0.50628   0.97636   0.00000  Uiso   1.00
C1005  C     0.95720   0.50062   0.74880   0.00000  Uiso   1.00
C1006  C     0.70894   0.50113   0.74942   0.00000  Uiso   1.00
N1007  N     0.83333   0.61907   0.75000   0.00000  Uiso   1.00
N1008  N     0.83333   0.38093   0.75000   0.00000  Uiso   1.00
O1009  O     0.77226   0.53821   0.75000   0.00000  Uiso   1.00
O1010  O     0.89441   0.46179   0.75001   0.00000  Uiso   1.00
O1011  O     0.89441   0.53821   0.75001   0.00000  Uiso   1.00
O1012  O     0.77226   0.46179   0.75000   0.00000  Uiso   1.00
O1013  O     0.83333   0.53822   0.68453   0.00000  Uiso   1.00
O1014  O     0.83334   0.46178   0.81547   0.00000  Uiso   1.00
O1015  O     0.83334   0.53822   0.81547   0.00000  Uiso   1.00
O1016  O     0.83333   0.46178   0.68453   0.00000  Uiso   1.00
Zn1017 Zn    0.83333   0.55104   0.75000   0.00000  Uiso   1.00
Zn1018 Zn    0.83333   0.44896   0.75000   0.00000  Uiso   1.00
H1019  H     0.87616   0.37432   0.80289   0.00000  Uiso   1.00
H1020  H     0.79082   0.62579   0.69685   0.00000  Uiso   1.00
H1021  H     0.79052   0.37677   0.69709   0.00000  Uiso   1.00
H1022  H     0.87623   0.62328   0.80283   0.00000  Uiso   1.00
H1023  H     0.77189   0.51957   0.52753   0.00000  Uiso   1.00
H1024  H     0.79397   0.45211   0.97876   0.00000  Uiso   1.00
H1025  H     0.88562   0.55631   0.96663   0.00000  Uiso   1.00
H1026  H     0.90282   0.49432   0.52902   0.00000  Uiso   1.00
C1027  C     0.75647   0.50749   0.61514   0.00000  Uiso   1.00
H1028  H     0.75341   0.49449   0.64912   0.00000  Uiso   1.00
O1029  O     0.72524   0.52009   0.59577   0.00000  Uiso   1.00
C1030  C     0.78539   0.43267   0.89360   0.00000  Uiso   1.00
H1031  H     0.78834   0.42104   0.85989   0.00000  Uiso   1.00
O1032  O     0.75885   0.41444   0.91723   0.00000  Uiso   1.00
C1033  C     0.89740   0.55507   0.87796   0.00000  Uiso   1.00
H1034  H     0.90495   0.54621   0.84393   0.00000  Uiso   1.00
O1035  O     0.91594   0.58668   0.89420   0.00000  Uiso   1.00
C1036  C     0.91134   0.48099   0.61755   0.00000  Uiso   1.00
H1037  H     0.91074   0.47460   0.65327   0.00000  Uiso   1.00
O1038  O     0.94415   0.47587   0.59748   0.00000  Uiso   1.00
C1039  C     0.71039   0.44539   0.81354   0.00000  Uiso   1.00
H1040  H     0.72508   0.46330   0.84021   0.00000  Uiso   1.00
O1041  O     0.71383   0.40428   0.81117   0.00000  Uiso   1.00
C1042  C     0.95643   0.55298   0.68013   0.00000  Uiso   1.00
H1043  H     0.92422   0.56284   0.68270   0.00000  Uiso   1.00
O1044  O     0.97390   0.56039   0.64435   0.00000  Uiso   1.00
C1045  C     0.95361   0.44814   0.81647   0.00000  Uiso   1.00
H1046  H     0.92549   0.46299   0.83003   0.00000  Uiso   1.00
O1047  O     0.96400   0.41065   0.83030   0.00000  Uiso   1.00
C1048  C     0.71064   0.57003   0.69703   0.00000  Uiso   1.00
H1049  H     0.74075   0.56461   0.68184   0.00000  Uiso   1.00
O1050  O     0.69608   0.60828   0.69539   0.00000  Uiso   1.00
C1051  C     0.08666   0.83359   0.74942   0.00000  Uiso   1.00
C1052  C     0.24649   0.83345   0.74870   0.00000  Uiso   1.00
C1053  C     0.16692   0.83367   0.66406   0.00000  Uiso   1.00
C1054  C     0.16718   0.83271   0.83625   0.00000  Uiso   1.00
C1055  C     0.19047   0.68999   0.77941   0.00000  Uiso   1.00
C1056  C     0.14296   0.97672   0.72053   0.00000  Uiso   1.00
C1057  C     0.14288   0.69135   0.72059   0.00000  Uiso   1.00
C1058  C     0.19048   0.97533   0.77939   0.00000  Uiso   1.00
C1059  C     0.02081   0.80501   0.77920   0.00000  Uiso   1.00
C1060  C     0.31184   0.86244   0.71774   0.00000  Uiso   1.00
C1061  C     0.31101   0.80623   0.78050   0.00000  Uiso   1.00
C1062  C     0.02145   0.86578   0.72115   0.00000  Uiso   1.00
C1063  C     0.13327   0.84745   0.54656   0.00000  Uiso   1.00
C1064  C     0.14628   0.80726   0.95726   0.00000  Uiso   1.00
C1065  C     0.19836   0.86619   0.95052   0.00000  Uiso   1.00
C1066  C     0.20751   0.83327   0.54741   0.00000  Uiso   1.00
C1067  C     0.13106   0.84213   0.59262   0.00000  Uiso   1.00
C1068  C     0.14588   0.80215   0.91138   0.00000  Uiso   1.00
C1069  C     0.19915   0.86213   0.90437   0.00000  Uiso   1.00
C1070  C     0.20640   0.82828   0.59365   0.00000  Uiso   1.00
C1071  C     0.16811   0.83442   0.61616   0.00000  Uiso   1.00
C1072  C     0.17118   0.83153   0.88445   0.00000  Uiso   1.00
C1073  C     0.17116   0.84263   0.52428   0.00000  Uiso   1.00
C1074  C     0.17142   0.83961   0.97636   0.00000  Uiso   1.00
C1075  C     0.29053   0.83395   0.74880   0.00000  Uiso   1.00
C1076  C     0.04227   0.83447   0.74942   0.00000  Uiso   1.00
N1077  N     0.16667   0.95240   0.75000   0.00000  Uiso   1.00
N1078  N     0.16667   0.71427   0.75000   0.00000  Uiso   1.00
O1079  O     0.10559   0.87154   0.75000   0.00000  Uiso   1.00
O1080  O     0.22774   0.79513   0.75001   0.00000  Uiso   1.00
O1081  O     0.22774   0.87154   0.75001   0.00000  Uiso   1.00
O1082  O     0.10559   0.79513   0.75000   0.00000  Uiso   1.00
O1083  O     0.16666   0.87155   0.68453   0.00000  Uiso   1.00
O1084  O     0.16667   0.79511   0.81547   0.00000  Uiso   1.00
O1085  O     0.16667   0.87155   0.81547   0.00000  Uiso   1.00
O1086  O     0.16666   0.79511   0.68453   0.00000  Uiso   1.00
Zn1087 Zn    0.16667   0.88437   0.75000   0.00000  Uiso   1.00
Zn1088 Zn    0.16667   0.78229   0.75000   0.00000  Uiso   1.00
H1089  H     0.20949   0.70766   0.80289   0.00000  Uiso   1.00
H1090  H     0.12415   0.95913   0.69685   0.00000  Uiso   1.00
H1091  H     0.12386   0.71010   0.69709   0.00000  Uiso   1.00
H1092  H     0.20956   0.95661   0.80283   0.00000  Uiso   1.00
H1093  H     0.10523   0.85290   0.52753   0.00000  Uiso   1.00
H1094  H     0.12730   0.78545   0.97876   0.00000  Uiso   1.00
H1095  H     0.21895   0.88964   0.96663   0.00000  Uiso   1.00
H1096  H     0.23616   0.82766   0.52902   0.00000  Uiso   1.00
C1097  C     0.08981   0.84083   0.61514   0.00000  Uiso   1.00
H1098  H     0.08675   0.82782   0.64912   0.00000  Uiso   1.00
O1099  O     0.05858   0.85342   0.59577   0.00000  Uiso   1.00
C1100  C     0.11872   0.76601   0.89360   0.00000  Uiso   1.00
H1101  H     0.12167   0.75438   0.85989   0.00000  Uiso   1.00
O1102  O     0.09218   0.74777   0.91723   0.00000  Uiso   1.00
C1103  C     0.23073   0.88840   0.87796   0.00000  Uiso   1.00
H1104  H     0.23829   0.87955   0.84393   0.00000  Uiso   1.00
O1105  O     0.24927   0.92001   0.89420   0.00000  Uiso   1.00
C1106  C     0.24467   0.81432   0.61755   0.00000  Uiso   1.00
H1107  H     0.24408   0.80793   0.65327   0.00000  Uiso   1.00
O1108  O     0.27748   0.80920   0.59748   0.00000  Uiso   1.00
C1109  C     0.04372   0.77872   0.81354   0.00000  Uiso   1.00
H1110  H     0.05841   0.79663   0.84021   0.00000  Uiso   1.00
O1111  O     0.04716   0.73762   0.81117   0.00000  Uiso   1.00
C1112  C     0.28976   0.88631   0.68013   0.00000  Uiso   1.00
H1113  H     0.25755   0.89617   0.68270   0.00000  Uiso   1.00
O1114  O     0.30724   0.89373   0.64435   0.00000  Uiso   1.00
C1115  C     0.28694   0.78147   0.81647   0.00000  Uiso   1.00
H1116  H     0.25882   0.79632   0.83003   0.00000  Uiso   1.00
O1117  O     0.29734   0.74398   0.83030   0.00000  Uiso   1.00
C1118  C     0.04398   0.90337   0.69703   0.00000  Uiso   1.00
H1119  H     0.07409   0.89794   0.68184   0.00000  Uiso   1.00
O1120  O     0.02941   0.94161   0.69539   0.00000  Uiso   1.00
C1121  C     0.41999   0.83359   0.74942   0.00000  Uiso   1.00
C1122  C     0.57983   0.83345   0.74870   0.00000  Uiso   1.00
C1123  C     0.50025   0.83367   0.66406   0.00000  Uiso   1.00
C1124  C     0.50052   0.83271   0.83625   0.00000  Uiso   1.00
C1125  C     0.52380   0.68999   0.77941   0.00000  Uiso   1.00
C1126  C     0.47629   0.97672   0.72053   0.00000  Uiso   1.00
C1127  C     0.47622   0.69135   0.72059   0.00000  Uiso   1.00
C1128  C     0.52381   0.97533   0.77939   0.00000  Uiso   1.00
C1129  C     0.35415   0.80501   0.77920   0.00000  Uiso   1.00
C1130  C     0.64517   0.86244   0.71774   0.00000  Uiso   1.00
C1131  C     0.64434   0.80623   0.78050   0.00000  Uiso   1.00
C1132  C     0.35478   0.86578   0.72115   0.00000  Uiso   1.00
C1133  C     0.46661   0.84745   0.54656   0.00000  Uiso   1.00
C1134  C     0.47961   0.80726   0.95726   0.00000  Uiso   1.00
C1135  C     0.53170   0.86619   0.95052   0.00000  Uiso   1.00
C1136  C     0.54084   0.83327   0.54741   0.00000  Uiso   1.00
C1137  C     0.46440   0.84213   0.59262   0.00000  Uiso   1.00
C1138  C     0.47922   0.80215   0.91138   0.00000  Uiso   1.00
C1139  C     0.53249   0.86213   0.90437   0.00000  Uiso   1.00
C1140  C     0.53973   0.82828   0.59365   0.00000  Uiso   1.00
C1141  C     0.50144   0.83442   0.61616   0.00000  Uiso   1.00
C1142  C     0.50452   0.83153   0.88445   0.00000  Uiso   1.00
C1143  C     0.50450   0.84263   0.52428   0.00000  Uiso   1.00
C1144  C     0.50475   0.83961   0.97636   0.00000  Uiso   1.00
C1145  C     0.62386   0.83395   0.74880   0.00000  Uiso   1.00
C1146  C     0.37560   0.83447   0.74942   0.00000  Uiso   1.00
N1147  N     0.50000   0.95240   0.75000   0.00000  Uiso   1.00
N1148  N     0.50000   0.71427   0.75000   0.00000  Uiso   1.00
O1149  O     0.43892   0.87154   0.75000   0.00000  Uiso   1.00
O1150  O     0.56108   0.79513   0.75001   0.00000  Uiso   1.00
O1151  O     0.56108   0.87154   0.75001   0.00000  Uiso   1.00
O1152  O     0.43892   0.79513   0.75000   0.00000  Uiso   1.00
O1153  O     0.50000   0.87155   0.68453   0.00000  Uiso   1.00
O1154  O     0.50000   0.79511   0.81547   0.00000  Uiso   1.00
O1155  O     0.50000   0.87155   0.81547   0.00000  Uiso   1.00
O1156  O     0.50000   0.79511   0.68453   0.00000  Uiso   1.00
Zn1157 Zn    0.50000   0.88437   0.75000   0.00000  Uiso   1.00
Zn1158 Zn    0.50000   0.78229   0.75000   0.00000  Uiso   1.00
H1159  H     0.54283   0.70766   0.80289   0.00000  Uiso   1.00
H1160  H     0.45749   0.95913   0.69685   0.00000  Uiso   1.00
H1161  H     0.45719   0.71010   0.69709   0.00000  Uiso   1.00
H1162  H     0.54289   0.95661   0.80283   0.00000  Uiso   1.00
H1163  H     0.43856   0.85290   0.52753   0.00000  Uiso   1.00
H1164  H     0.46064   0.78545   0.97876   0.00000  Uiso   1.00
H1165  H     0.55229   0.88964   0.96663   0.00000  Uiso   1.00
H1166  H     0.56949   0.82766   0.52902   0.00000  Uiso   1.00
C1167  C     0.42314   0.84083   0.61514   0.00000  Uiso   1.00
H1168  H     0.42008   0.82782   0.64912   0.00000  Uiso   1.00
O1169  O     0.39191   0.85342   0.59577   0.00000  Uiso   1.00
C1170  C     0.45205   0.76601   0.89360   0.00000  Uiso   1.00
H1171  H     0.45500   0.75438   0.85989   0.00000  Uiso   1.00
O1172  O     0.42551   0.74777   0.91723   0.00000  Uiso   1.00
C1173  C     0.56406   0.88840   0.87796   0.00000  Uiso   1.00
H1174  H     0.57162   0.87955   0.84393   0.00000  Uiso   1.00
O1175  O     0.58261   0.92001   0.89420   0.00000  Uiso   1.00
C1176  C     0.57801   0.81432   0.61755   0.00000  Uiso   1.00
H1177  H     0.57741   0.80793   0.65327   0.00000  Uiso   1.00
O1178  O     0.61082   0.80920   0.59748   0.00000  Uiso   1.00
C1179  C     0.37706   0.77872   0.81354   0.00000  Uiso   1.00
H1180  H     0.39174   0.79663   0.84021   0.00000  Uiso   1.00
O1181  O     0.38049   0.73762   0.81117   0.00000  Uiso   1.00
C1182  C     0.62310   0.88631   0.68013   0.00000  Uiso   1.00
H1183  H     0.59089   0.89617   0.68270   0.00000  Uiso   1.00
O1184  O     0.64057   0.89373   0.64435   0.00000  Uiso   1.00
C1185  C     0.62028   0.78147   0.81647   0.00000  Uiso   1.00
H1186  H     0.59215   0.79632   0.83003   0.00000  Uiso   1.00
O1187  O     0.63067   0.74398   0.83030   0.00000  Uiso   1.00
C1188  C     0.37731   0.90337   0.69703   0.00000  Uiso   1.00
H1189  H     0.40742   0.89794   0.68184   0.00000  Uiso   1.00
O1190  O     0.36275   0.94161   0.69539   0.00000  Uiso   1.00
C1191  C     0.75333   0.83359   0.74942   0.00000  Uiso   1.00
C1192  C     0.91316   0.83345   0.74870   0.00000  Uiso   1.00
C1193  C     0.83358   0.83367   0.66406   0.00000  Uiso   1.00
C1194  C     0.83385   0.83271   0.83625   0.00000  Uiso   1.00
C1195  C     0.85714   0.68999   0.77941   0.00000  Uiso   1.00
C1196  C     0.80963   0.97672   0.72053   0.00000  Uiso   1.00
C1197  C     0.80955   0.69135   0.72059   0.00000  Uiso   1.00
C1198  C     0.85715   0.97533   0.77939   0.00000  Uiso   1.00
C1199  C     0.68748   0.80501   0.77920   0.00000  Uiso   1.00
C1200  C     0.97850   0.86244   0.71774   0.00000  Uiso   1.00
C1201  C     0.97767   0.80623   0.78050   0.00000  Uiso   1.00
C1202  C     0.68812   0.86578   0.72115   0.00000  Uiso   1.00
C1203  C     0.79994   0.84745   0.54656   0.00000  Uiso   1.00
C1204  C     0.81295   0.80726   0.95726   0.00000  Uiso   1.00
C1205  C     0.86503   0.86619   0.95052   0.00000  Uiso   1.00
C1206  C     0.87417   0.83327   0.54741   0.00000  Uiso   1.00
C1207  C     0.79773   0.84213   0.59262   0.00000  Uiso   1.00
C1208  C     0.81255   0.80215   0.91138   0.00000  Uiso   1.00
C1209  C     0.86582   0.86213   0.90437   0.00000  Uiso   1.00
C1210  C     0.87306   0.82828   0.59365   0.00000  Uiso   1.00
C1211  C     0.83478   0.83442   0.61616   0.00000  Uiso   1.00
C1212  C     0.83785   0.83153   0.88445   0.00000  Uiso   1.00
C1213  C     0.83783   0.84263   0.52428   0.00000  Uiso   1.00
C1214  C     0.83809   0.83961   0.97636   0.00000  Uiso   1.00
C1215  C     0.95720   0.83395   0.74880   0.00000  Uiso   1.00
C1216  C     0.70894   0.83447   0.74942   0.00000  Uiso   1.00
N1217  N     0.83333   0.95240   0.75000   0.00000  Uiso   1.00
N1218  N     0.83333   0.71427   0.75000   0.00000  Uiso   1.00
O1219  O     0.77226   0.87154   0.75000   0.00000  Uiso   1.00
O1220  O     0.89441   0.79513   0.75001   0.00000  Uiso   1.00
O1221  O     0.89441   0.87154   0.75001   0.00000  Uiso   1.00
O1222  O     0.77226   0.79513   0.75000   0.00000  Uiso   1.00
O1223  O     0.83333   0.87155   0.68453   0.00000  Uiso   1.00
O1224  O     0.83334   0.79511   0.81547   0.00000  Uiso   1.00
O1225  O     0.83334   0.87155   0.81547   0.00000  Uiso   1.00
O1226  O     0.83333   0.79511   0.68453   0.00000  Uiso   1.00
Zn1227 Zn    0.83333   0.88437   0.75000   0.00000  Uiso   1.00
Zn1228 Zn    0.83333   0.78229   0.75000   0.00000  Uiso   1.00
H1229  H     0.87616   0.70766   0.80289   0.00000  Uiso   1.00
H1230  H     0.79082   0.95913   0.69685   0.00000  Uiso   1.00
H1231  H     0.79052   0.71010   0.69709   0.00000  Uiso   1.00
H1232  H     0.87623   0.95661   0.80283   0.00000  Uiso   1.00
H1233  H     0.77189   0.85290   0.52753   0.00000  Uiso   1.00
H1234  H     0.79397   0.78545   0.97876   0.00000  Uiso   1.00
H1235  H     0.88562   0.88964   0.96663   0.00000  Uiso   1.00
H1236  H     0.90282   0.82766   0.52902   0.00000  Uiso   1.00
C1237  C     0.75647   0.84083   0.61514   0.00000  Uiso   1.00
H1238  H     0.75341   0.82782   0.64912   0.00000  Uiso   1.00
O1239  O     0.72524   0.85342   0.59577   0.00000  Uiso   1.00
C1240  C     0.78539   0.76601   0.89360   0.00000  Uiso   1.00
H1241  H     0.78834   0.75438   0.85989   0.00000  Uiso   1.00
O1242  O     0.75885   0.74777   0.91723   0.00000  Uiso   1.00
C1243  C     0.89740   0.88840   0.87796   0.00000  Uiso   1.00
H1244  H     0.90495   0.87955   0.84393   0.00000  Uiso   1.00
O1245  O     0.91594   0.92001   0.89420   0.00000  Uiso   1.00
C1246  C     0.91134   0.81432   0.61755   0.00000  Uiso   1.00
H1247  H     0.91074   0.80793   0.65327   0.00000  Uiso   1.00
O1248  O     0.94415   0.80920   0.59748   0.00000  Uiso   1.00
C1249  C     0.71039   0.77872   0.81354   0.00000  Uiso   1.00
H1250  H     0.72508   0.79663   0.84021   0.00000  Uiso   1.00
O1251  O     0.71383   0.73762   0.81117   0.00000  Uiso   1.00
C1252  C     0.95643   0.88631   0.68013   0.00000  Uiso   1.00
H1253  H     0.92422   0.89617   0.68270   0.00000  Uiso   1.00
O1254  O     0.97390   0.89373   0.64435   0.00000  Uiso   1.00
C1255  C     0.95361   0.78147   0.81647   0.00000  Uiso   1.00
H1256  H     0.92549   0.79632   0.83003   0.00000  Uiso   1.00
O1257  O     0.96400   0.74398   0.83030   0.00000  Uiso   1.00
C1258  C     0.71064   0.90337   0.69703   0.00000  Uiso   1.00
H1259  H     0.74075   0.89794   0.68184   0.00000  Uiso   1.00
O1260  O     0.69608   0.94161   0.69539   0.00000  Uiso   1.00
loop_
_geom_bond_atom_site_label_1
_geom_bond_atom_site_label_2
_geom_bond_distance
_geom_bond_site_symmetry_2
_ccdc_geom_bond_type
C1     O29     1.276   .     A
C1     C26     1.431   .     S
C1     O32     1.287   .     A
C2     C25     1.420   .     S
C2     O30     1.282   .     A
C2     O31     1.276   .     A
C3     O36     1.280   .     A
C3     C21     1.436   .     S
C3     O33     1.287   .     A
C4     C22     1.452   .     S
C4     O35     1.292   .     A
C4     O34     1.284   .     A
C5     N28     1.366   .     A
C5     H39     1.082   .     S
C5     C428    1.415   1_545 S
C6     N27     1.366   .     A
C6     H40     1.081   .     S
C6     C217    1.415   .     S
C7     N28     1.366   .     A
C7     H41     1.082   .     S
C7     C426    1.415   1_545 S
C8     H42     1.081   .     S
C8     N27     1.366   .     A
C8     C215    1.415   .     S
C9     C26     1.408   .     A
C9     C59     1.479   .     S
C9     C151    1.391   1_455 S
C10    C62     1.502   .     S
C10    C25     1.413   .     A
C10    C82     1.393   .     S
C11    C65     1.498   .     S
C11    C25     1.409   .     A
C11    C79     1.391   .     S
C12    C26     1.414   .     A
C12    C68     1.494   .     S
C12    C150    1.393   1_455 S
C13    C17     1.387   .     A
C13    C23     1.394   .     A
C13    H43     1.085   .     S
C14    C18     1.387   .     A
C14    C24     1.390   .     A
C14    H44     1.085   .     S
C15    C19     1.391   .     A
C15    C24     1.389   .     A
C15    H45     1.084   .     S
C16    C23     1.393   .     A
C16    C20     1.391   .     A
C16    H46     1.084   .     S
C17    C47     1.485   .     S
C17    C21     1.410   .     A
C18    C50     1.492   .     S
C18    C22     1.422   .     A
C19    C53     1.490   .     S
C19    C22     1.422   .     A
C20    C56     1.487   .     S
C20    C21     1.413   .     A
C23    C654    1.441   1_554 S
C24    C653    1.441   .     S
N27    Zn37    2.006   .     S
N28    Zn38    2.006   .     S
O29    Zn37    2.005   .     S
O30    Zn38    2.005   .     S
O31    Zn37    2.004   .     S
O32    Zn38    2.004   .     S
O33    Zn37    2.007   .     S
O34    Zn38    2.007   .     S
O35    Zn37    1.991   .     S
O36    Zn38    1.991   .     S
C47    O49     1.221   .     D
C47    H48     1.084   .     S
C50    O52     1.222   .     D
C50    H51     1.077   .     S
C53    O55     1.221   .     D
C53    H54     1.084   .     S
C56    H57     1.083   .     S
C56    O58     1.222   .     D
C59    H60     1.082   .     S
C59    O61     1.221   .     D
C62    H63     1.080   .     S
C62    O64     1.221   .     D
C65    H66     1.085   .     S
C65    O67     1.220   .     D
C68    O70     1.222   .     D
C68    H69     1.080   .     S
C71    O99     1.276   .     A
C71    C96     1.431   .     S
C71    O102    1.287   .     A
C72    C95     1.420   .     S
C72    O100    1.282   .     A
C72    O101    1.276   .     A
C73    O106    1.280   .     A
C73    C91     1.436   .     S
C73    O103    1.287   .     A
C74    C92     1.452   .     S
C74    O105    1.292   .     A
C74    O104    1.284   .     A
C75    N98     1.366   .     A
C75    H109    1.082   .     S
C75    C498    1.415   1_545 S
C76    N97     1.366   .     A
C76    H110    1.081   .     S
C76    C287    1.415   .     S
C77    N98     1.366   .     A
C77    H111    1.082   .     S
C77    C496    1.415   1_545 S
C78    H112    1.081   .     S
C78    N97     1.366   .     A
C78    C285    1.415   .     S
C79    C96     1.408   .     A
C79    C129    1.479   .     S
C80    C132    1.502   .     S
C80    C95     1.413   .     A
C80    C152    1.393   .     S
C81    C135    1.498   .     S
C81    C95     1.409   .     A
C81    C149    1.391   .     S
C82    C96     1.414   .     A
C82    C138    1.494   .     S
C83    C87     1.387   .     A
C83    C93     1.394   .     A
C83    H113    1.085   .     S
C84    C88     1.387   .     A
C84    C94     1.390   .     A
C84    H114    1.085   .     S
C85    C89     1.391   .     A
C85    C94     1.389   .     A
C85    H115    1.084   .     S
C86    C93     1.393   .     A
C86    C90     1.391   .     A
C86    H116    1.084   .     S
C87    C117    1.485   .     S
C87    C91     1.410   .     A
C88    C120    1.492   .     S
C88    C92     1.422   .     A
C89    C123    1.490   .     S
C89    C92     1.422   .     A
C90    C126    1.487   .     S
C90    C91     1.413   .     A
C93    C724    1.441   1_554 S
C94    C723    1.441   .     S
N97    Zn107   2.006   .     S
N98    Zn108   2.006   .     S
O99    Zn107   2.005   .     S
O100   Zn108   2.005   .     S
O101   Zn107   2.004   .     S
O102   Zn108   2.004   .     S
O103   Zn107   2.007   .     S
O104   Zn108   2.007   .     S
O105   Zn107   1.991   .     S
O106   Zn108   1.991   .     S
C117   O119    1.221   .     D
C117   H118    1.084   .     S
C120   O122    1.222   .     D
C120   H121    1.077   .     S
C123   O125    1.221   .     D
C123   H124    1.084   .     S
C126   H127    1.083   .     S
C126   O128    1.222   .     D
C129   H130    1.082   .     S
C129   O131    1.221   .     D
C132   H133    1.080   .     S
C132   O134    1.221   .     D
C135   H136    1.085   .     S
C135   O137    1.220   .     D
C138   O140    1.222   .     D
C138   H139    1.080   .     S
C141   O169    1.276   .     A
C141   C166    1.431   .     S
C141   O172    1.287   .     A
C142   C165    1.420   .     S
C142   O170    1.282   .     A
C142   O171    1.276   .     A
C143   O176    1.280   .     A
C143   C161    1.436   .     S
C143   O173    1.287   .     A
C144   C162    1.452   .     S
C144   O175    1.292   .     A
C144   O174    1.284   .     A
C145   N168    1.366   .     A
C145   H179    1.082   .     S
C145   C568    1.415   1_545 S
C146   N167    1.366   .     A
C146   H180    1.081   .     S
C146   C357    1.415   .     S
C147   N168    1.366   .     A
C147   H181    1.082   .     S
C147   C566    1.415   1_545 S
C148   H182    1.081   .     S
C148   N167    1.366   .     A
C148   C355    1.415   .     S
C149   C166    1.408   .     A
C149   C199    1.479   .     S
C150   C202    1.502   .     S
C150   C165    1.413   .     A
C150   C12     1.393   1_655 S
C151   C205    1.498   .     S
C151   C165    1.409   .     A
C151   C9      1.391   1_655 S
C152   C166    1.414   .     A
C152   C208    1.494   .     S
C153   C157    1.387   .     A
C153   C163    1.394   .     A
C153   H183    1.085   .     S
C154   C158    1.387   .     A
C154   C164    1.390   .     A
C154   H184    1.085   .     S
C155   C159    1.391   .     A
C155   C164    1.389   .     A
C155   H185    1.084   .     S
C156   C163    1.393   .     A
C156   C160    1.391   .     A
C156   H186    1.084   .     S
C157   C187    1.485   .     S
C157   C161    1.410   .     A
C158   C190    1.492   .     S
C158   C162    1.422   .     A
C159   C193    1.490   .     S
C159   C162    1.422   .     A
C160   C196    1.487   .     S
C160   C161    1.413   .     A
C163   C794    1.441   1_554 S
C164   C793    1.441   .     S
N167   Zn177   2.006   .     S
N168   Zn178   2.006   .     S
O169   Zn177   2.005   .     S
O170   Zn178   2.005   .     S
O171   Zn177   2.004   .     S
O172   Zn178   2.004   .     S
O173   Zn177   2.007   .     S
O174   Zn178   2.007   .     S
O175   Zn177   1.991   .     S
O176   Zn178   1.991   .     S
C187   O189    1.221   .     D
C187   H188    1.084   .     S
C190   O192    1.222   .     D
C190   H191    1.077   .     S
C193   O195    1.221   .     D
C193   H194    1.084   .     S
C196   H197    1.083   .     S
C196   O198    1.222   .     D
C199   H200    1.082   .     S
C199   O201    1.221   .     D
C202   H203    1.080   .     S
C202   O204    1.221   .     D
C205   H206    1.085   .     S
C205   O207    1.220   .     D
C208   O210    1.222   .     D
C208   H209    1.080   .     S
C211   O239    1.276   .     A
C211   C236    1.431   .     S
C211   O242    1.287   .     A
C212   C235    1.420   .     S
C212   O240    1.282   .     A
C212   O241    1.276   .     A
C213   O246    1.280   .     A
C213   C231    1.436   .     S
C213   O243    1.287   .     A
C214   C232    1.452   .     S
C214   O245    1.292   .     A
C214   O244    1.284   .     A
C215   N238    1.366   .     A
C215   H249    1.082   .     S
C216   N237    1.366   .     A
C216   H250    1.081   .     S
C216   C427    1.415   .     S
C217   N238    1.366   .     A
C217   H251    1.082   .     S
C218   H252    1.081   .     S
C218   N237    1.366   .     A
C218   C425    1.415   .     S
C219   C236    1.408   .     A
C219   C269    1.479   .     S
C219   C361    1.391   1_455 S
C220   C272    1.502   .     S
C220   C235    1.413   .     A
C220   C292    1.393   .     S
C221   C275    1.498   .     S
C221   C235    1.409   .     A
C221   C289    1.391   .     S
C222   C236    1.414   .     A
C222   C278    1.494   .     S
C222   C360    1.393   1_455 S
C223   C227    1.387   .     A
C223   C233    1.394   .     A
C223   H253    1.085   .     S
C224   C228    1.387   .     A
C224   C234    1.390   .     A
C224   H254    1.085   .     S
C225   C229    1.391   .     A
C225   C234    1.389   .     A
C225   H255    1.084   .     S
C226   C233    1.393   .     A
C226   C230    1.391   .     A
C226   H256    1.084   .     S
C227   C257    1.485   .     S
C227   C231    1.410   .     A
C228   C260    1.492   .     S
C228   C232    1.422   .     A
C229   C263    1.490   .     S
C229   C232    1.422   .     A
C230   C266    1.487   .     S
C230   C231    1.413   .     A
C233   C864    1.441   1_554 S
C234   C863    1.441   .     S
N237   Zn247   2.006   .     S
N238   Zn248   2.006   .     S
O239   Zn247   2.005   .     S
O240   Zn248   2.005   .     S
O241   Zn247   2.004   .     S
O242   Zn248   2.004   .     S
O243   Zn247   2.007   .     S
O244   Zn248   2.007   .     S
O245   Zn247   1.991   .     S
O246   Zn248   1.991   .     S
C257   O259    1.221   .     D
C257   H258    1.084   .     S
C260   O262    1.222   .     D
C260   H261    1.077   .     S
C263   O265    1.221   .     D
C263   H264    1.084   .     S
C266   H267    1.083   .     S
C266   O268    1.222   .     D
C269   H270    1.082   .     S
C269   O271    1.221   .     D
C272   H273    1.080   .     S
C272   O274    1.221   .     D
C275   H276    1.085   .     S
C275   O277    1.220   .     D
C278   O280    1.222   .     D
C278   H279    1.080   .     S
C281   O309    1.276   .     A
C281   C306    1.431   .     S
C281   O312    1.287   .     A
C282   C305    1.420   .     S
C282   O310    1.282   .     A
C282   O311    1.276   .     A
C283   O316    1.280   .     A
C283   C301    1.436   .     S
C283   O313    1.287   .     A
C284   C302    1.452   .     S
C284   O315    1.292   .     A
C284   O314    1.284   .     A
C285   N308    1.366   .     A
C285   H319    1.082   .     S
C286   N307    1.366   .     A
C286   H320    1.081   .     S
C286   C497    1.415   .     S
C287   N308    1.366   .     A
C287   H321    1.082   .     S
C288   H322    1.081   .     S
C288   N307    1.366   .     A
C288   C495    1.415   .     S
C289   C306    1.408   .     A
C289   C339    1.479   .     S
C290   C342    1.502   .     S
C290   C305    1.413   .     A
C290   C362    1.393   .     S
C291   C345    1.498   .     S
C291   C305    1.409   .     A
C291   C359    1.391   .     S
C292   C306    1.414   .     A
C292   C348    1.494   .     S
C293   C297    1.387   .     A
C293   C303    1.394   .     A
C293   H323    1.085   .     S
C294   C298    1.387   .     A
C294   C304    1.390   .     A
C294   H324    1.085   .     S
C295   C299    1.391   .     A
C295   C304    1.389   .     A
C295   H325    1.084   .     S
C296   C303    1.393   .     A
C296   C300    1.391   .     A
C296   H326    1.084   .     S
C297   C327    1.485   .     S
C297   C301    1.410   .     A
C298   C330    1.492   .     S
C298   C302    1.422   .     A
C299   C333    1.490   .     S
C299   C302    1.422   .     A
C300   C336    1.487   .     S
C300   C301    1.413   .     A
C303   C934    1.441   1_554 S
C304   C933    1.441   .     S
N307   Zn317   2.006   .     S
N308   Zn318   2.006   .     S
O309   Zn317   2.005   .     S
O310   Zn318   2.005   .     S
O311   Zn317   2.004   .     S
O312   Zn318   2.004   .     S
O313   Zn317   2.007   .     S
O314   Zn318   2.007   .     S
O315   Zn317   1.991   .     S
O316   Zn318   1.991   .     S
C327   O329    1.221   .     D
C327   H328    1.084   .     S
C330   O332    1.222   .     D
C330   H331    1.077   .     S
C333   O335    1.221   .     D
C333   H334    1.084   .     S
C336   H337    1.083   .     S
C336   O338    1.222   .     D
C339   H340    1.082   .     S
C339   O341    1.221   .     D
C342   H343    1.080   .     S
C342   O344    1.221   .     D
C345   H346    1.085   .     S
C345   O347    1.220   .     D
C348   O350    1.222   .     D
C348   H349    1.080   .     S
C351   O379    1.276   .     A
C351   C376    1.431   .     S
C351   O382    1.287   .     A
C352   C375    1.420   .     S
C352   O380    1.282   .     A
C352   O381    1.276   .     A
C353   O386    1.280   .     A
C353   C371    1.436   .     S
C353   O383    1.287   .     A
C354   C372    1.452   .     S
C354   O385    1.292   .     A
C354   O384    1.284   .     A
C355   N378    1.366   .     A
C355   H389    1.082   .     S
C356   N377    1.366   .     A
C356   H390    1.081   .     S
C356   C567    1.415   .     S
C357   N378    1.366   .     A
C357   H391    1.082   .     S
C358   H392    1.081   .     S
C358   N377    1.366   .     A
C358   C565    1.415   .     S
C359   C376    1.408   .     A
C359   C409    1.479   .     S
C360   C412    1.502   .     S
C360   C375    1.413   .     A
C360   C222    1.393   1_655 S
C361   C415    1.498   .     S
C361   C375    1.409   .     A
C361   C219    1.391   1_655 S
C362   C376    1.414   .     A
C362   C418    1.494   .     S
C363   C367    1.387   .     A
C363   C373    1.394   .     A
C363   H393    1.085   .     S
C364   C368    1.387   .     A
C364   C374    1.390   .     A
C364   H394    1.085   .     S
C365   C369    1.391   .     A
C365   C374    1.389   .     A
C365   H395    1.084   .     S
C366   C373    1.393   .     A
C366   C370    1.391   .     A
C366   H396    1.084   .     S
C367   C397    1.485   .     S
C367   C371    1.410   .     A
C368   C400    1.492   .     S
C368   C372    1.422   .     A
C369   C403    1.490   .     S
C369   C372    1.422   .     A
C370   C406    1.487   .     S
C370   C371    1.413   .     A
C373   C1004   1.441   1_554 S
C374   C1003   1.441   .     S
N377   Zn387   2.006   .     S
N378   Zn388   2.006   .     S
O379   Zn387   2.005   .     S
O380   Zn388   2.005   .     S
O381   Zn387   2.004   .     S
O382   Zn388   2.004   .     S
O383   Zn387   2.007   .     S
O384   Zn388   2.007   .     S
O385   Zn387   1.991   .     S
O386   Zn388   1.991   .     S
C397   O399    1.221   .     D
C397   H398    1.084   .     S
C400   O402    1.222   .     D
C400   H401    1.077   .     S
C403   O405    1.221   .     D
C403   H404    1.084   .     S
C406   H407    1.083   .     S
C406   O408    1.222   .     D
C409   H410    1.082   .     S
C409   O411    1.221   .     D
C412   H413    1.080   .     S
C412   O414    1.221   .     D
C415   H416    1.085   .     S
C415   O417    1.220   .     D
C418   O420    1.222   .     D
C418   H419    1.080   .     S
C421   O449    1.276   .     A
C421   C446    1.431   .     S
C421   O452    1.287   .     A
C422   C445    1.420   .     S
C422   O450    1.282   .     A
C422   O451    1.276   .     A
C423   O456    1.280   .     A
C423   C441    1.436   .     S
C423   O453    1.287   .     A
C424   C442    1.452   .     S
C424   O455    1.292   .     A
C424   O454    1.284   .     A
C425   N448    1.366   .     A
C425   H459    1.082   .     S
C426   N447    1.366   .     A
C426   H460    1.081   .     S
C426   C7      1.415   1_565 S
C427   N448    1.366   .     A
C427   H461    1.082   .     S
C428   H462    1.081   .     S
C428   N447    1.366   .     A
C428   C5      1.415   1_565 S
C429   C446    1.408   .     A
C429   C479    1.479   .     S
C429   C571    1.391   1_455 S
C430   C482    1.502   .     S
C430   C445    1.413   .     A
C430   C502    1.393   .     S
C431   C485    1.498   .     S
C431   C445    1.409   .     A
C431   C499    1.391   .     S
C432   C446    1.414   .     A
C432   C488    1.494   .     S
C432   C570    1.393   1_455 S
C433   C437    1.387   .     A
C433   C443    1.394   .     A
C433   H463    1.085   .     S
C434   C438    1.387   .     A
C434   C444    1.390   .     A
C434   H464    1.085   .     S
C435   C439    1.391   .     A
C435   C444    1.389   .     A
C435   H465    1.084   .     S
C436   C443    1.393   .     A
C436   C440    1.391   .     A
C436   H466    1.084   .     S
C437   C467    1.485   .     S
C437   C441    1.410   .     A
C438   C470    1.492   .     S
C438   C442    1.422   .     A
C439   C473    1.490   .     S
C439   C442    1.422   .     A
C440   C476    1.487   .     S
C440   C441    1.413   .     A
C443   C1074   1.441   1_554 S
C444   C1073   1.441   .     S
N447   Zn457   2.006   .     S
N448   Zn458   2.006   .     S
O449   Zn457   2.005   .     S
O450   Zn458   2.005   .     S
O451   Zn457   2.004   .     S
O452   Zn458   2.004   .     S
O453   Zn457   2.007   .     S
O454   Zn458   2.007   .     S
O455   Zn457   1.991   .     S
O456   Zn458   1.991   .     S
C467   O469    1.221   .     D
C467   H468    1.084   .     S
C470   O472    1.222   .     D
C470   H471    1.077   .     S
C473   O475    1.221   .     D
C473   H474    1.084   .     S
C476   H477    1.083   .     S
C476   O478    1.222   .     D
C479   H480    1.082   .     S
C479   O481    1.221   .     D
C482   H483    1.080   .     S
C482   O484    1.221   .     D
C485   H486    1.085   .     S
C485   O487    1.220   .     D
C488   O490    1.222   .     D
C488   H489    1.080   .     S
C491   O519    1.276   .     A
C491   C516    1.431   .     S
C491   O522    1.287   .     A
C492   C515    1.420   .     S
C492   O520    1.282   .     A
C492   O521    1.276   .     A
C493   O526    1.280   .     A
C493   C511    1.436   .     S
C493   O523    1.287   .     A
C494   C512    1.452   .     S
C494   O525    1.292   .     A
C494   O524    1.284   .     A
C495   N518    1.366   .     A
C495   H529    1.082   .     S
C496   N517    1.366   .     A
C496   H530    1.081   .     S
C496   C77     1.415   1_565 S
C497   N518    1.366   .     A
C497   H531    1.082   .     S
C498   H532    1.081   .     S
C498   N517    1.366   .     A
C498   C75     1.415   1_565 S
C499   C516    1.408   .     A
C499   C549    1.479   .     S
C500   C552    1.502   .     S
C500   C515    1.413   .     A
C500   C572    1.393   .     S
C501   C555    1.498   .     S
C501   C515    1.409   .     A
C501   C569    1.391   .     S
C502   C516    1.414   .     A
C502   C558    1.494   .     S
C503   C507    1.387   .     A
C503   C513    1.394   .     A
C503   H533    1.085   .     S
C504   C508    1.387   .     A
C504   C514    1.390   .     A
C504   H534    1.085   .     S
C505   C509    1.391   .     A
C505   C514    1.389   .     A
C505   H535    1.084   .     S
C506   C513    1.393   .     A
C506   C510    1.391   .     A
C506   H536    1.084   .     S
C507   C537    1.485   .     S
C507   C511    1.410   .     A
C508   C540    1.492   .     S
C508   C512    1.422   .     A
C509   C543    1.490   .     S
C509   C512    1.422   .     A
C510   C546    1.487   .     S
C510   C511    1.413   .     A
C513   C1144   1.441   1_554 S
C514   C1143   1.441   .     S
N517   Zn527   2.006   .     S
N518   Zn528   2.006   .     S
O519   Zn527   2.005   .     S
O520   Zn528   2.005   .     S
O521   Zn527   2.004   .     S
O522   Zn528   2.004   .     S
O523   Zn527   2.007   .     S
O524   Zn528   2.007   .     S
O525   Zn527   1.991   .     S
O526   Zn528   1.991   .     S
C537   O539    1.221   .     D
C537   H538    1.084   .     S
C540   O542    1.222   .     D
C540   H541    1.077   .     S
C543   O545    1.221   .     D
C543   H544    1.084   .     S
C546   H547    1.083   .     S
C546   O548    1.222   .     D
C549   H550    1.082   .     S
C549   O551    1.221   .     D
C552   H553    1.080   .     S
C552   O554    1.221   .     D
C555   H556    1.085   .     S
C555   O557    1.220   .     D
C558   O560    1.222   .     D
C558   H559    1.080   .     S
C561   O589    1.276   .     A
C561   C586    1.431   .     S
C561   O592    1.287   .     A
C562   C585    1.420   .     S
C562   O590    1.282   .     A
C562   O591    1.276   .     A
C563   O596    1.280   .     A
C563   C581    1.436   .     S
C563   O593    1.287   .     A
C564   C582    1.452   .     S
C564   O595    1.292   .     A
C564   O594    1.284   .     A
C565   N588    1.366   .     A
C565   H599    1.082   .     S
C566   N587    1.366   .     A
C566   H600    1.081   .     S
C566   C147    1.415   1_565 S
C567   N588    1.366   .     A
C567   H601    1.082   .     S
C568   H602    1.081   .     S
C568   N587    1.366   .     A
C568   C145    1.415   1_565 S
C569   C586    1.408   .     A
C569   C619    1.479   .     S
C570   C622    1.502   .     S
C570   C585    1.413   .     A
C570   C432    1.393   1_655 S
C571   C625    1.498   .     S
C571   C585    1.409   .     A
C571   C429    1.391   1_655 S
C572   C586    1.414   .     A
C572   C628    1.494   .     S
C573   C577    1.387   .     A
C573   C583    1.394   .     A
C573   H603    1.085   .     S
C574   C578    1.387   .     A
C574   C584    1.390   .     A
C574   H604    1.085   .     S
C575   C579    1.391   .     A
C575   C584    1.389   .     A
C575   H605    1.084   .     S
C576   C583    1.393   .     A
C576   C580    1.391   .     A
C576   H606    1.084   .     S
C577   C607    1.485   .     S
C577   C581    1.410   .     A
C578   C610    1.492   .     S
C578   C582    1.422   .     A
C579   C613    1.490   .     S
C579   C582    1.422   .     A
C580   C616    1.487   .     S
C580   C581    1.413   .     A
C583   C1214   1.441   1_554 S
C584   C1213   1.441   .     S
N587   Zn597   2.006   .     S
N588   Zn598   2.006   .     S
O589   Zn597   2.005   .     S
O590   Zn598   2.005   .     S
O591   Zn597   2.004   .     S
O592   Zn598   2.004   .     S
O593   Zn597   2.007   .     S
O594   Zn598   2.007   .     S
O595   Zn597   1.991   .     S
O596   Zn598   1.991   .     S
C607   O609    1.221   .     D
C607   H608    1.084   .     S
C610   O612    1.222   .     D
C610   H611    1.077   .     S
C613   O615    1.221   .     D
C613   H614    1.084   .     S
C616   H617    1.083   .     S
C616   O618    1.222   .     D
C619   H620    1.082   .     S
C619   O621    1.221   .     D
C622   H623    1.080   .     S
C622   O624    1.221   .     D
C625   H626    1.085   .     S
C625   O627    1.220   .     D
C628   O630    1.222   .     D
C628   H629    1.080   .     S
C631   O659    1.276   .     A
C631   C656    1.431   .     S
C631   O662    1.287   .     A
C632   C655    1.420   .     S
C632   O660    1.282   .     A
C632   O661    1.276   .     A
C633   O666    1.280   .     A
C633   C651    1.436   .     S
C633   O663    1.287   .     A
C634   C652    1.452   .     S
C634   O665    1.292   .     A
C634   O664    1.284   .     A
C635   N658    1.366   .     A
C635   H669    1.082   .     S
C635   C1058   1.415   1_545 S
C636   N657    1.366   .     A
C636   H670    1.081   .     S
C636   C847    1.415   .     S
C637   N658    1.366   .     A
C637   H671    1.082   .     S
C637   C1056   1.415   1_545 S
C638   H672    1.081   .     S
C638   N657    1.366   .     A
C638   C845    1.415   .     S
C639   C656    1.408   .     A
C639   C689    1.479   .     S
C639   C781    1.391   1_455 S
C640   C692    1.502   .     S
C640   C655    1.413   .     A
C640   C712    1.393   .     S
C641   C695    1.498   .     S
C641   C655    1.409   .     A
C641   C709    1.391   .     S
C642   C656    1.414   .     A
C642   C698    1.494   .     S
C642   C780    1.393   1_455 S
C643   C647    1.387   .     A
C643   C653    1.394   .     A
C643   H673    1.085   .     S
C644   C648    1.387   .     A
C644   C654    1.390   .     A
C644   H674    1.085   .     S
C645   C649    1.391   .     A
C645   C654    1.389   .     A
C645   H675    1.084   .     S
C646   C653    1.393   .     A
C646   C650    1.391   .     A
C646   H676    1.084   .     S
C647   C677    1.485   .     S
C647   C651    1.410   .     A
C648   C680    1.492   .     S
C648   C652    1.422   .     A
C649   C683    1.490   .     S
C649   C652    1.422   .     A
C650   C686    1.487   .     S
C650   C651    1.413   .     A
C654   C23     1.441   1_556 S
N657   Zn667   2.006   .     S
N658   Zn668   2.006   .     S
O659   Zn667   2.005   .     S
O660   Zn668   2.005   .     S
O661   Zn667   2.004   .     S
O662   Zn668   2.004   .     S
O663   Zn667   2.007   .     S
O664   Zn668   2.007   .     S
O665   Zn667   1.991   .     S
O666   Zn668   1.991   .     S
C677   O679    1.221   .     D
C677   H678    1.084   .     S
C680   O682    1.222   .     D
C680   H681    1.077   .     S
C683   O685    1.221   .     D
C683   H684    1.084   .     S
C686   H687    1.083   .     S
C686   O688    1.222   .     D
C689   H690    1.082   .     S
C689   O691    1.221   .     D
C692   H693    1.080   .     S
C692   O694    1.221   .     D
C695   H696    1.085   .     S
C695   O697    1.220   .     D
C698   O700    1.222   .     D
C698   H699    1.080   .     S
C701   O729    1.276   .     A
C701   C726    1.431   .     S
C701   O732    1.287   .     A
C702   C725    1.420   .     S
C702   O730    1.282   .     A
C702   O731    1.276   .     A
C703   O736    1.280   .     A
C703   C721    1.436   .     S
C703   O733    1.287   .     A
C704   C722    1.452   .     S
C704   O735    1.292   .     A
C704   O734    1.284   .     A
C705   N728    1.366   .     A
C705   H739    1.082   .     S
C705   C1128   1.415   1_545 S
C706   N727    1.366   .     A
C706   H740    1.081   .     S
C706   C917    1.415   .     S
C707   N728    1.366   .     A
C707   H741    1.082   .     S
C707   C1126   1.415   1_545 S
C708   H742    1.081   .     S
C708   N727    1.366   .     A
C708   C915    1.415   .     S
C709   C726    1.408   .     A
C709   C759    1.479   .     S
C710   C762    1.502   .     S
C710   C725    1.413   .     A
C710   C782    1.393   .     S
C711   C765    1.498   .     S
C711   C725    1.409   .     A
C711   C779    1.391   .     S
C712   C726    1.414   .     A
C712   C768    1.494   .     S
C713   C717    1.387   .     A
C713   C723    1.394   .     A
C713   H743    1.085   .     S
C714   C718    1.387   .     A
C714   C724    1.390   .     A
C714   H744    1.085   .     S
C715   C719    1.391   .     A
C715   C724    1.389   .     A
C715   H745    1.084   .     S
C716   C723    1.393   .     A
C716   C720    1.391   .     A
C716   H746    1.084   .     S
C717   C747    1.485   .     S
C717   C721    1.410   .     A
C718   C750    1.492   .     S
C718   C722    1.422   .     A
C719   C753    1.490   .     S
C719   C722    1.422   .     A
C720   C756    1.487   .     S
C720   C721    1.413   .     A
C724   C93     1.441   1_556 S
N727   Zn737   2.006   .     S
N728   Zn738   2.006   .     S
O729   Zn737   2.005   .     S
O730   Zn738   2.005   .     S
O731   Zn737   2.004   .     S
O732   Zn738   2.004   .     S
O733   Zn737   2.007   .     S
O734   Zn738   2.007   .     S
O735   Zn737   1.991   .     S
O736   Zn738   1.991   .     S
C747   O749    1.221   .     D
C747   H748    1.084   .     S
C750   O752    1.222   .     D
C750   H751    1.077   .     S
C753   O755    1.221   .     D
C753   H754    1.084   .     S
C756   H757    1.083   .     S
C756   O758    1.222   .     D
C759   H760    1.082   .     S
C759   O761    1.221   .     D
C762   H763    1.080   .     S
C762   O764    1.221   .     D
C765   H766    1.085   .     S
C765   O767    1.220   .     D
C768   O770    1.222   .     D
C768   H769    1.080   .     S
C771   O799    1.276   .     A
C771   C796    1.431   .     S
C771   O802    1.287   .     A
C772   C795    1.420   .     S
C772   O800    1.282   .     A
C772   O801    1.276   .     A
C773   O806    1.280   .     A
C773   C791    1.436   .     S
C773   O803    1.287   .     A
C774   C792    1.452   .     S
C774   O805    1.292   .     A
C774   O804    1.284   .     A
C775   N798    1.366   .     A
C775   H809    1.082   .     S
C775   C1198   1.415   1_545 S
C776   N797    1.366   .     A
C776   H810    1.081   .     S
C776   C987    1.415   .     S
C777   N798    1.366   .     A
C777   H811    1.082   .     S
C777   C1196   1.415   1_545 S
C778   H812    1.081   .     S
C778   N797    1.366   .     A
C778   C985    1.415   .     S
C779   C796    1.408   .     A
C779   C829    1.479   .     S
C780   C832    1.502   .     S
C780   C795    1.413   .     A
C780   C642    1.393   1_655 S
C781   C835    1.498   .     S
C781   C795    1.409   .     A
C781   C639    1.391   1_655 S
C782   C796    1.414   .     A
C782   C838    1.494   .     S
C783   C787    1.387   .     A
C783   C793    1.394   .     A
C783   H813    1.085   .     S
C784   C788    1.387   .     A
C784   C794    1.390   .     A
C784   H814    1.085   .     S
C785   C789    1.391   .     A
C785   C794    1.389   .     A
C785   H815    1.084   .     S
C786   C793    1.393   .     A
C786   C790    1.391   .     A
C786   H816    1.084   .     S
C787   C817    1.485   .     S
C787   C791    1.410   .     A
C788   C820    1.492   .     S
C788   C792    1.422   .     A
C789   C823    1.490   .     S
C789   C792    1.422   .     A
C790   C826    1.487   .     S
C790   C791    1.413   .     A
C794   C163    1.441   1_556 S
N797   Zn807   2.006   .     S
N798   Zn808   2.006   .     S
O799   Zn807   2.005   .     S
O800   Zn808   2.005   .     S
O801   Zn807   2.004   .     S
O802   Zn808   2.004   .     S
O803   Zn807   2.007   .     S
O804   Zn808   2.007   .     S
O805   Zn807   1.991   .     S
O806   Zn808   1.991   .     S
C817   O819    1.221   .     D
C817   H818    1.084   .     S
C820   O822    1.222   .     D
C820   H821    1.077   .     S
C823   O825    1.221   .     D
C823   H824    1.084   .     S
C826   H827    1.083   .     S
C826   O828    1.222   .     D
C829   H830    1.082   .     S
C829   O831    1.221   .     D
C832   H833    1.080   .     S
C832   O834    1.221   .     D
C835   H836    1.085   .     S
C835   O837    1.220   .     D
C838   O840    1.222   .     D
C838   H839    1.080   .     S
C841   O869    1.276   .     A
C841   C866    1.431   .     S
C841   O872    1.287   .     A
C842   C865    1.420   .     S
C842   O870    1.282   .     A
C842   O871    1.276   .     A
C843   O876    1.280   .     A
C843   C861    1.436   .     S
C843   O873    1.287   .     A
C844   C862    1.452   .     S
C844   O875    1.292   .     A
C844   O874    1.284   .     A
C845   N868    1.366   .     A
C845   H879    1.082   .     S
C846   N867    1.366   .     A
C846   H880    1.081   .     S
C846   C1057   1.415   .     S
C847   N868    1.366   .     A
C847   H881    1.082   .     S
C848   H882    1.081   .     S
C848   N867    1.366   .     A
C848   C1055   1.415   .     S
C849   C866    1.408   .     A
C849   C899    1.479   .     S
C849   C991    1.391   1_455 S
C850   C902    1.502   .     S
C850   C865    1.413   .     A
C850   C922    1.393   .     S
C851   C905    1.498   .     S
C851   C865    1.409   .     A
C851   C919    1.391   .     S
C852   C866    1.414   .     A
C852   C908    1.494   .     S
C852   C990    1.393   1_455 S
C853   C857    1.387   .     A
C853   C863    1.394   .     A
C853   H883    1.085   .     S
C854   C858    1.387   .     A
C854   C864    1.390   .     A
C854   H884    1.085   .     S
C855   C859    1.391   .     A
C855   C864    1.389   .     A
C855   H885    1.084   .     S
C856   C863    1.393   .     A
C856   C860    1.391   .     A
C856   H886    1.084   .     S
C857   C887    1.485   .     S
C857   C861    1.410   .     A
C858   C890    1.492   .     S
C858   C862    1.422   .     A
C859   C893    1.490   .     S
C859   C862    1.422   .     A
C860   C896    1.487   .     S
C860   C861    1.413   .     A
C864   C233    1.441   1_556 S
N867   Zn877   2.006   .     S
N868   Zn878   2.006   .     S
O869   Zn877   2.005   .     S
O870   Zn878   2.005   .     S
O871   Zn877   2.004   .     S
O872   Zn878   2.004   .     S
O873   Zn877   2.007   .     S
O874   Zn878   2.007   .     S
O875   Zn877   1.991   .     S
O876   Zn878   1.991   .     S
C887   O889    1.221   .     D
C887   H888    1.084   .     S
C890   O892    1.222   .     D
C890   H891    1.077   .     S
C893   O895    1.221   .     D
C893   H894    1.084   .     S
C896   H897    1.083   .     S
C896   O898    1.222   .     D
C899   H900    1.082   .     S
C899   O901    1.221   .     D
C902   H903    1.080   .     S
C902   O904    1.221   .     D
C905   H906    1.085   .     S
C905   O907    1.220   .     D
C908   O910    1.222   .     D
C908   H909    1.080   .     S
C911   O939    1.276   .     A
C911   C936    1.431   .     S
C911   O942    1.287   .     A
C912   C935    1.420   .     S
C912   O940    1.282   .     A
C912   O941    1.276   .     A
C913   O946    1.280   .     A
C913   C931    1.436   .     S
C913   O943    1.287   .     A
C914   C932    1.452   .     S
C914   O945    1.292   .     A
C914   O944    1.284   .     A
C915   N938    1.366   .     A
C915   H949    1.082   .     S
C916   N937    1.366   .     A
C916   H950    1.081   .     S
C916   C1127   1.415   .     S
C917   N938    1.366   .     A
C917   H951    1.082   .     S
C918   H952    1.081   .     S
C918   N937    1.366   .     A
C918   C1125   1.415   .     S
C919   C936    1.408   .     A
C919   C969    1.479   .     S
C920   C972    1.502   .     S
C920   C935    1.413   .     A
C920   C992    1.393   .     S
C921   C975    1.498   .     S
C921   C935    1.409   .     A
C921   C989    1.391   .     S
C922   C936    1.414   .     A
C922   C978    1.494   .     S
C923   C927    1.387   .     A
C923   C933    1.394   .     A
C923   H953    1.085   .     S
C924   C928    1.387   .     A
C924   C934    1.390   .     A
C924   H954    1.085   .     S
C925   C929    1.391   .     A
C925   C934    1.389   .     A
C925   H955    1.084   .     S
C926   C933    1.393   .     A
C926   C930    1.391   .     A
C926   H956    1.084   .     S
C927   C957    1.485   .     S
C927   C931    1.410   .     A
C928   C960    1.492   .     S
C928   C932    1.422   .     A
C929   C963    1.490   .     S
C929   C932    1.422   .     A
C930   C966    1.487   .     S
C930   C931    1.413   .     A
C934   C303    1.441   1_556 S
N937   Zn947   2.006   .     S
N938   Zn948   2.006   .     S
O939   Zn947   2.005   .     S
O940   Zn948   2.005   .     S
O941   Zn947   2.004   .     S
O942   Zn948   2.004   .     S
O943   Zn947   2.007   .     S
O944   Zn948   2.007   .     S
O945   Zn947   1.991   .     S
O946   Zn948   1.991   .     S
C957   O959    1.221   .     D
C957   H958    1.084   .     S
C960   O962    1.222   .     D
C960   H961    1.077   .     S
C963   O965    1.221   .     D
C963   H964    1.084   .     S
C966   H967    1.083   .     S
C966   O968    1.222   .     D
C969   H970    1.082   .     S
C969   O971    1.221   .     D
C972   H973    1.080   .     S
C972   O974    1.221   .     D
C975   H976    1.085   .     S
C975   O977    1.220   .     D
C978   O980    1.222   .     D
C978   H979    1.080   .     S
C981   O1009   1.276   .     A
C981   C1006   1.431   .     S
C981   O1012   1.287   .     A
C982   C1005   1.420   .     S
C982   O1010   1.282   .     A
C982   O1011   1.276   .     A
C983   O1016   1.280   .     A
C983   C1001   1.436   .     S
C983   O1013   1.287   .     A
C984   C1002   1.452   .     S
C984   O1015   1.292   .     A
C984   O1014   1.284   .     A
C985   N1008   1.366   .     A
C985   H1019   1.082   .     S
C986   N1007   1.366   .     A
C986   H1020   1.081   .     S
C986   C1197   1.415   .     S
C987   N1008   1.366   .     A
C987   H1021   1.082   .     S
C988   H1022   1.081   .     S
C988   N1007   1.366   .     A
C988   C1195   1.415   .     S
C989   C1006   1.408   .     A
C989   C1039   1.479   .     S
C990   C1042   1.502   .     S
C990   C1005   1.413   .     A
C990   C852    1.393   1_655 S
C991   C1045   1.498   .     S
C991   C1005   1.409   .     A
C991   C849    1.391   1_655 S
C992   C1006   1.414   .     A
C992   C1048   1.494   .     S
C993   C997    1.387   .     A
C993   C1003   1.394   .     A
C993   H1023   1.085   .     S
C994   C998    1.387   .     A
C994   C1004   1.390   .     A
C994   H1024   1.085   .     S
C995   C999    1.391   .     A
C995   C1004   1.389   .     A
C995   H1025   1.084   .     S
C996   C1003   1.393   .     A
C996   C1000   1.391   .     A
C996   H1026   1.084   .     S
C997   C1027   1.485   .     S
C997   C1001   1.410   .     A
C998   C1030   1.492   .     S
C998   C1002   1.422   .     A
C999   C1033   1.490   .     S
C999   C1002   1.422   .     A
C1000  C1036   1.487   .     S
C1000  C1001   1.413   .     A
C1004  C373    1.441   1_556 S
N1007  Zn1017  2.006   .     S
N1008  Zn1018  2.006   .     S
O1009  Zn1017  2.005   .     S
O1010  Zn1018  2.005   .     S
O1011  Zn1017  2.004   .     S
O1012  Zn1018  2.004   .     S
O1013  Zn1017  2.007   .     S
O1014  Zn1018  2.007   .     S
O1015  Zn1017  1.991   .     S
O1016  Zn1018  1.991   .     S
C1027  O1029   1.221   .     D
C1027  H1028   1.084   .     S
C1030  O1032   1.222   .     D
C1030  H1031   1.077   .     S
C1033  O1035   1.221   .     D
C1033  H1034   1.084   .     S
C1036  H1037   1.083   .     S
C1036  O1038   1.222   .     D
C1039  H1040   1.082   .     S
C1039  O1041   1.221   .     D
C1042  H1043   1.080   .     S
C1042  O1044   1.221   .     D
C1045  H1046   1.085   .     S
C1045  O1047   1.220   .     D
C1048  O1050   1.222   .     D
C1048  H1049   1.080   .     S
C1051  O1079   1.276   .     A
C1051  C1076   1.431   .     S
C1051  O1082   1.287   .     A
C1052  C1075   1.420   .     S
C1052  O1080   1.282   .     A
C1052  O1081   1.276   .     A
C1053  O1086   1.280   .     A
C1053  C1071   1.436   .     S
C1053  O1083   1.287   .     A
C1054  C1072   1.452   .     S
C1054  O1085   1.292   .     A
C1054  O1084   1.284   .     A
C1055  N1078   1.366   .     A
C1055  H1089   1.082   .     S
C1056  N1077   1.366   .     A
C1056  H1090   1.081   .     S
C1056  C637    1.415   1_565 S
C1057  N1078   1.366   .     A
C1057  H1091   1.082   .     S
C1058  H1092   1.081   .     S
C1058  N1077   1.366   .     A
C1058  C635    1.415   1_565 S
C1059  C1076   1.408   .     A
C1059  C1109   1.479   .     S
C1059  C1201   1.391   1_455 S
C1060  C1112   1.502   .     S
C1060  C1075   1.413   .     A
C1060  C1132   1.393   .     S
C1061  C1115   1.498   .     S
C1061  C1075   1.409   .     A
C1061  C1129   1.391   .     S
C1062  C1076   1.414   .     A
C1062  C1118   1.494   .     S
C1062  C1200   1.393   1_455 S
C1063  C1067   1.387   .     A
C1063  C1073   1.394   .     A
C1063  H1093   1.085   .     S
C1064  C1068   1.387   .     A
C1064  C1074   1.390   .     A
C1064  H1094   1.085   .     S
C1065  C1069   1.391   .     A
C1065  C1074   1.389   .     A
C1065  H1095   1.084   .     S
C1066  C1073   1.393   .     A
C1066  C1070   1.391   .     A
C1066  H1096   1.084   .     S
C1067  C1097   1.485   .     S
C1067  C1071   1.410   .     A
C1068  C1100   1.492   .     S
C1068  C1072   1.422   .     A
C1069  C1103   1.490   .     S
C1069  C1072   1.422   .     A
C1070  C1106   1.487   .     S
C1070  C1071   1.413   .     A
C1074  C443    1.441   1_556 S
N1077  Zn1087  2.006   .     S
N1078  Zn1088  2.006   .     S
O1079  Zn1087  2.005   .     S
O1080  Zn1088  2.005   .     S
O1081  Zn1087  2.004   .     S
O1082  Zn1088  2.004   .     S
O1083  Zn1087  2.007   .     S
O1084  Zn1088  2.007   .     S
O1085  Zn1087  1.991   .     S
O1086  Zn1088  1.991   .     S
C1097  O1099   1.221   .     D
C1097  H1098   1.084   .     S
C1100  O1102   1.222   .     D
C1100  H1101   1.077   .     S
C1103  O1105   1.221   .     D
C1103  H1104   1.084   .     S
C1106  H1107   1.083   .     S
C1106  O1108   1.222   .     D
C1109  H1110   1.082   .     S
C1109  O1111   1.221   .     D
C1112  H1113   1.080   .     S
C1112  O1114   1.221   .     D
C1115  H1116   1.085   .     S
C1115  O1117   1.220   .     D
C1118  O1120   1.222   .     D
C1118  H1119   1.080   .     S
C1121  O1149   1.276   .     A
C1121  C1146   1.431   .     S
C1121  O1152   1.287   .     A
C1122  C1145   1.420   .     S
C1122  O1150   1.282   .     A
C1122  O1151   1.276   .     A
C1123  O1156   1.280   .     A
C1123  C1141   1.436   .     S
C1123  O1153   1.287   .     A
C1124  C1142   1.452   .     S
C1124  O1155   1.292   .     A
C1124  O1154   1.284   .     A
C1125  N1148   1.366   .     A
C1125  H1159   1.082   .     S
C1126  N1147   1.366   .     A
C1126  H1160   1.081   .     S
C1126  C707    1.415   1_565 S
C1127  N1148   1.366   .     A
C1127  H1161   1.082   .     S
C1128  H1162   1.081   .     S
C1128  N1147   1.366   .     A
C1128  C705    1.415   1_565 S
C1129  C1146   1.408   .     A
C1129  C1179   1.479   .     S
C1130  C1182   1.502   .     S
C1130  C1145   1.413   .     A
C1130  C1202   1.393   .     S
C1131  C1185   1.498   .     S
C1131  C1145   1.409   .     A
C1131  C1199   1.391   .     S
C1132  C1146   1.414   .     A
C1132  C1188   1.494   .     S
C1133  C1137   1.387   .     A
C1133  C1143   1.394   .     A
C1133  H1163   1.085   .     S
C1134  C1138   1.387   .     A
C1134  C1144   1.390   .     A
C1134  H1164   1.085   .     S
C1135  C1139   1.391   .     A
C1135  C1144   1.389   .     A
C1135  H1165   1.084   .     S
C1136  C1143   1.393   .     A
C1136  C1140   1.391   .     A
C1136  H1166   1.084   .     S
C1137  C1167   1.485   .     S
C1137  C1141   1.410   .     A
C1138  C1170   1.492   .     S
C1138  C1142   1.422   .     A
C1139  C1173   1.490   .     S
C1139  C1142   1.422   .     A
C1140  C1176   1.487   .     S
C1140  C1141   1.413   .     A
C1144  C513    1.441   1_556 S
N1147  Zn1157  2.006   .     S
N1148  Zn1158  2.006   .     S
O1149  Zn1157  2.005   .     S
O1150  Zn1158  2.005   .     S
O1151  Zn1157  2.004   .     S
O1152  Zn1158  2.004   .     S
O1153  Zn1157  2.007   .     S
O1154  Zn1158  2.007   .     S
O1155  Zn1157  1.991   .     S
O1156  Zn1158  1.991   .     S
C1167  O1169   1.221   .     D
C1167  H1168   1.084   .     S
C1170  O1172   1.222   .     D
C1170  H1171   1.077   .     S
C1173  O1175   1.221   .     D
C1173  H1174   1.084   .     S
C1176  H1177   1.083   .     S
C1176  O1178   1.222   .     D
C1179  H1180   1.082   .     S
C1179  O1181   1.221   .     D
C1182  H1183   1.080   .     S
C1182  O1184   1.221   .     D
C1185  H1186   1.085   .     S
C1185  O1187   1.220   .     D
C1188  O1190   1.222   .     D
C1188  H1189   1.080   .     S
C1191  O1219   1.276   .     A
C1191  C1216   1.431   .     S
C1191  O1222   1.287   .     A
C1192  C1215   1.420   .     S
C1192  O1220   1.282   .     A
C1192  O1221   1.276   .     A
C1193  O1226   1.280   .     A
C1193  C1211   1.436   .     S
C1193  O1223   1.287   .     A
C1194  C1212   1.452   .     S
C1194  O1225   1.292   .     A
C1194  O1224   1.284   .     A
C1195  N1218   1.366   .     A
C1195  H1229   1.082   .     S
C1196  N1217   1.366   .     A
C1196  H1230   1.081   .     S
C1196  C777    1.415   1_565 S
C1197  N1218   1.366   .     A
C1197  H1231   1.082   .     S
C1198  H1232   1.081   .     S
C1198  N1217   1.366   .     A
C1198  C775    1.415   1_565 S
C1199  C1216   1.408   .     A
C1199  C1249   1.479   .     S
C1200  C1252   1.502   .     S
C1200  C1215   1.413   .     A
C1200  C1062   1.393   1_655 S
C1201  C1255   1.498   .     S
C1201  C1215   1.409   .     A
C1201  C1059   1.391   1_655 S
C1202  C1216   1.414   .     A
C1202  C1258   1.494   .     S
C1203  C1207   1.387   .     A
C1203  C1213   1.394   .     A
C1203  H1233   1.085   .     S
C1204  C1208   1.387   .     A
C1204  C1214   1.390   .     A
C1204  H1234   1.085   .     S
C1205  C1209   1.391   .     A
C1205  C1214   1.389   .     A
C1205  H1235   1.084   .     S
C1206  C1213   1.393   .     A
C1206  C1210   1.391   .     A
C1206  H1236   1.084   .     S
C1207  C1237   1.485   .     S
C1207  C1211   1.410   .     A
C1208  C1240   1.492   .     S
C1208  C1212   1.422   .     A
C1209  C1243   1.490   .     S
C1209  C1212   1.422   .     A
C1210  C1246   1.487   .     S
C1210  C1211   1.413   .     A
C1214  C583    1.441   1_556 S
N1217  Zn1227  2.006   .     S
N1218  Zn1228  2.006   .     S
O1219  Zn1227  2.005   .     S
O1220  Zn1228  2.005   .     S
O1221  Zn1227  2.004   .     S
O1222  Zn1228  2.004   .     S
O1223  Zn1227  2.007   .     S
O1224  Zn1228  2.007   .     S
O1225  Zn1227  1.991   .     S
O1226  Zn1228  1.991   .     S
C1237  O1239   1.221   .     D
C1237  H1238   1.084   .     S
C1240  O1242   1.222   .     D
C1240  H1241   1.077   .     S
C1243  O1245   1.221   .     D
C1243  H1244   1.084   .     S
C1246  H1247   1.083   .     S
C1246  O1248   1.222   .     D
C1249  H1250   1.082   .     S
C1249  O1251   1.221   .     D
C1252  H1253   1.080   .     S
C1252  O1254   1.221   .     D
C1255  H1256   1.085   .     S
C1255  O1257   1.220   .     D
C1258  O1260   1.222   .     D
C1258  H1259   1.080   .     S
