data_str_m3_o1_o17_pcu_sym.24
_audit_creation_date              2020-01-03
_audit_creation_method            'Materials Studio'
_symmetry_space_group_name_H-M    'P1'
_symmetry_Int_Tables_number       1
_symmetry_cell_setting            triclinic
loop_
_symmetry_equiv_pos_as_xyz
  x,y,z
_cell_length_a                    32.0465
_cell_length_b                    29.5499
_cell_length_c                    29.8538
_cell_angle_alpha                 90.0208
_cell_angle_beta                  90.0829
_cell_angle_gamma                 89.9388
loop_
_atom_site_label
_atom_site_type_symbol
_atom_site_fract_x
_atom_site_fract_y
_atom_site_fract_z
_atom_site_U_iso_or_equiv
_atom_site_adp_type
_atom_site_occupancy
O1     O     0.10559   0.20487   0.25000   0.00000  Uiso   1.00
O2     O     0.22774   0.12846   0.25001   0.00000  Uiso   1.00
O3     O     0.22774   0.20487   0.25001   0.00000  Uiso   1.00
O4     O     0.10559   0.12846   0.25000   0.00000  Uiso   1.00
C5     C     0.08665   0.16669   0.24999   0.00000  Uiso   1.00
C6     C     0.24668   0.16665   0.25001   0.00000  Uiso   1.00
O7     O     0.16666   0.20489   0.18393   0.00000  Uiso   1.00
O8     O     0.16667   0.12844   0.31608   0.00000  Uiso   1.00
O9     O     0.16667   0.20489   0.31608   0.00000  Uiso   1.00
O10    O     0.16666   0.12844   0.18393   0.00000  Uiso   1.00
C11    C     0.16629   0.16665   0.16364   0.00000  Uiso   1.00
C12    C     0.16704   0.16668   0.33636   0.00000  Uiso   1.00
Zn13   Zn    0.16667   0.21771   0.25000   0.00000  Uiso   1.00
Zn14   Zn    0.16667   0.11563   0.25000   0.00000  Uiso   1.00
C15    C     0.20649   0.17027   0.40666   0.00000  Uiso   1.00
C16    C     0.12688   0.16286   0.09333   0.00000  Uiso   1.00
C17    C     0.16838   0.16676   0.38395   0.00000  Uiso   1.00
C18    C     0.16496   0.16654   0.11605   0.00000  Uiso   1.00
C19    C     0.13071   0.16167   0.40594   0.00000  Uiso   1.00
C20    C     0.20264   0.17160   0.09406   0.00000  Uiso   1.00
C21    C     0.12936   0.16065   0.45235   0.00000  Uiso   1.00
C22    C     0.20402   0.17240   0.04764   0.00000  Uiso   1.00
C23    C     0.16715   0.16617   0.47654   0.00000  Uiso   1.00
C24    C     0.16624   0.16683   0.02346   0.00000  Uiso   1.00
C25    C     0.20582   0.17126   0.45376   0.00000  Uiso   1.00
C26    C     0.12756   0.16172   0.04624   0.00000  Uiso   1.00
C27    C     0.09116   0.15424   0.47499   0.00000  Uiso   1.00
C28    C     0.24225   0.17861   0.02501   0.00000  Uiso   1.00
C29    C     0.09088   0.15425   0.02156   0.00000  Uiso   1.00
C30    C     0.24253   0.17856   0.47844   0.00000  Uiso   1.00
H31    H     0.10257   0.15831   0.38604   0.00000  Uiso   1.00
H32    H     0.23076   0.17508   0.11397   0.00000  Uiso   1.00
H33    H     0.06161   0.14764   0.03820   0.00000  Uiso   1.00
H34    H     0.27183   0.18507   0.46180   0.00000  Uiso   1.00
C35    C     0.02139   0.12797   0.23569   0.00000  Uiso   1.00
C36    C     0.31194   0.20536   0.26431   0.00000  Uiso   1.00
C37    C     0.31199   0.12792   0.23578   0.00000  Uiso   1.00
C38    C     0.02134   0.20541   0.26422   0.00000  Uiso   1.00
H39    H     0.03781   0.09807   0.22416   0.00000  Uiso   1.00
H40    H     0.29553   0.23526   0.27584   0.00000  Uiso   1.00
H41    H     0.29562   0.09799   0.22433   0.00000  Uiso   1.00
H42    H     0.03771   0.23534   0.27568   0.00000  Uiso   1.00
C43    C     0.29082   0.16663   0.25007   0.00000  Uiso   1.00
C44    C     0.04251   0.16671   0.24993   0.00000  Uiso   1.00
C45    C     0.19376   0.02395   0.27655   0.00000  Uiso   1.00
C46    C     0.13958   0.30938   0.22345   0.00000  Uiso   1.00
C47    C     0.13958   0.02400   0.22345   0.00000  Uiso   1.00
C48    C     0.19376   0.30934   0.27655   0.00000  Uiso   1.00
H49    H     0.21542   0.04208   0.29779   0.00000  Uiso   1.00
H50    H     0.11792   0.29125   0.20221   0.00000  Uiso   1.00
H51    H     0.11791   0.04217   0.20221   0.00000  Uiso   1.00
H52    H     0.21542   0.29116   0.29779   0.00000  Uiso   1.00
N53    N     0.16667   0.28573   0.25000   0.00000  Uiso   1.00
N54    N     0.16667   0.04760   0.25000   0.00000  Uiso   1.00
C55    C     0.24595   0.17197   0.38027   0.00000  Uiso   1.00
H56    H     0.24765   0.19255   0.35024   0.00000  Uiso   1.00
O57    O     0.27588   0.14846   0.39033   0.00000  Uiso   1.00
C58    C     0.08740   0.16117   0.11970   0.00000  Uiso   1.00
H59    H     0.08573   0.14074   0.14982   0.00000  Uiso   1.00
O60    O     0.05741   0.18453   0.10951   0.00000  Uiso   1.00
C61    C     0.05038   0.14699   0.45044   0.00000  Uiso   1.00
H62    H     0.05262   0.11648   0.42885   0.00000  Uiso   1.00
H63    H     0.02383   0.14183   0.47375   0.00000  Uiso   1.00
H64    H     0.04305   0.17705   0.42953   0.00000  Uiso   1.00
C65    C     0.28306   0.18568   0.04956   0.00000  Uiso   1.00
H66    H     0.29000   0.15582   0.07095   0.00000  Uiso   1.00
H67    H     0.30975   0.19008   0.02622   0.00000  Uiso   1.00
H68    H     0.28108   0.21657   0.07070   0.00000  Uiso   1.00
O69    O     0.43892   0.20487   0.25000   0.00000  Uiso   1.00
O70    O     0.56108   0.12846   0.25001   0.00000  Uiso   1.00
O71    O     0.56108   0.20487   0.25001   0.00000  Uiso   1.00
O72    O     0.43892   0.12846   0.25000   0.00000  Uiso   1.00
C73    C     0.41999   0.16669   0.24999   0.00000  Uiso   1.00
C74    C     0.58001   0.16665   0.25001   0.00000  Uiso   1.00
O75    O     0.49999   0.20489   0.18393   0.00000  Uiso   1.00
O76    O     0.50001   0.12844   0.31608   0.00000  Uiso   1.00
O77    O     0.50001   0.20489   0.31608   0.00000  Uiso   1.00
O78    O     0.49999   0.12844   0.18393   0.00000  Uiso   1.00
C79    C     0.49962   0.16665   0.16364   0.00000  Uiso   1.00
C80    C     0.50037   0.16668   0.33636   0.00000  Uiso   1.00
Zn81   Zn    0.50000   0.21771   0.25000   0.00000  Uiso   1.00
Zn82   Zn    0.50000   0.11563   0.25000   0.00000  Uiso   1.00
C83    C     0.53982   0.17027   0.40666   0.00000  Uiso   1.00
C84    C     0.46021   0.16286   0.09333   0.00000  Uiso   1.00
C85    C     0.50171   0.16676   0.38395   0.00000  Uiso   1.00
C86    C     0.49830   0.16654   0.11605   0.00000  Uiso   1.00
C87    C     0.46404   0.16167   0.40594   0.00000  Uiso   1.00
C88    C     0.53597   0.17160   0.09406   0.00000  Uiso   1.00
C89    C     0.46269   0.16065   0.45235   0.00000  Uiso   1.00
C90    C     0.53736   0.17240   0.04764   0.00000  Uiso   1.00
C91    C     0.50048   0.16617   0.47654   0.00000  Uiso   1.00
C92    C     0.49957   0.16683   0.02346   0.00000  Uiso   1.00
C93    C     0.53916   0.17126   0.45376   0.00000  Uiso   1.00
C94    C     0.46090   0.16172   0.04624   0.00000  Uiso   1.00
C95    C     0.42449   0.15424   0.47499   0.00000  Uiso   1.00
C96    C     0.57559   0.17861   0.02501   0.00000  Uiso   1.00
C97    C     0.42422   0.15425   0.02156   0.00000  Uiso   1.00
C98    C     0.57587   0.17856   0.47844   0.00000  Uiso   1.00
H99    H     0.43590   0.15831   0.38604   0.00000  Uiso   1.00
H100   H     0.56409   0.17508   0.11397   0.00000  Uiso   1.00
H101   H     0.39494   0.14764   0.03820   0.00000  Uiso   1.00
H102   H     0.60516   0.18507   0.46180   0.00000  Uiso   1.00
C103   C     0.35473   0.12797   0.23569   0.00000  Uiso   1.00
C104   C     0.64527   0.20536   0.26431   0.00000  Uiso   1.00
C105   C     0.64532   0.12792   0.23578   0.00000  Uiso   1.00
C106   C     0.35467   0.20541   0.26422   0.00000  Uiso   1.00
H107   H     0.37114   0.09807   0.22416   0.00000  Uiso   1.00
H108   H     0.62886   0.23526   0.27584   0.00000  Uiso   1.00
H109   H     0.62895   0.09799   0.22433   0.00000  Uiso   1.00
H110   H     0.37105   0.23534   0.27568   0.00000  Uiso   1.00
C111   C     0.62415   0.16663   0.25007   0.00000  Uiso   1.00
C112   C     0.37585   0.16671   0.24993   0.00000  Uiso   1.00
C113   C     0.52709   0.02395   0.27655   0.00000  Uiso   1.00
C114   C     0.47291   0.30938   0.22345   0.00000  Uiso   1.00
C115   C     0.47291   0.02400   0.22345   0.00000  Uiso   1.00
C116   C     0.52709   0.30934   0.27655   0.00000  Uiso   1.00
H117   H     0.54875   0.04208   0.29779   0.00000  Uiso   1.00
H118   H     0.45125   0.29125   0.20221   0.00000  Uiso   1.00
H119   H     0.45125   0.04217   0.20221   0.00000  Uiso   1.00
H120   H     0.54875   0.29116   0.29779   0.00000  Uiso   1.00
N121   N     0.50000   0.28573   0.25000   0.00000  Uiso   1.00
N122   N     0.50000   0.04760   0.25000   0.00000  Uiso   1.00
C123   C     0.57928   0.17197   0.38027   0.00000  Uiso   1.00
H124   H     0.58099   0.19255   0.35024   0.00000  Uiso   1.00
O125   O     0.60922   0.14846   0.39033   0.00000  Uiso   1.00
C126   C     0.42073   0.16117   0.11970   0.00000  Uiso   1.00
H127   H     0.41906   0.14074   0.14982   0.00000  Uiso   1.00
O128   O     0.39074   0.18453   0.10951   0.00000  Uiso   1.00
C129   C     0.38371   0.14699   0.45044   0.00000  Uiso   1.00
H130   H     0.38596   0.11648   0.42885   0.00000  Uiso   1.00
H131   H     0.35716   0.14183   0.47375   0.00000  Uiso   1.00
H132   H     0.37639   0.17705   0.42953   0.00000  Uiso   1.00
C133   C     0.61639   0.18568   0.04956   0.00000  Uiso   1.00
H134   H     0.62333   0.15582   0.07095   0.00000  Uiso   1.00
H135   H     0.64309   0.19008   0.02622   0.00000  Uiso   1.00
H136   H     0.61442   0.21657   0.07070   0.00000  Uiso   1.00
O137   O     0.77226   0.20487   0.25000   0.00000  Uiso   1.00
O138   O     0.89441   0.12846   0.25001   0.00000  Uiso   1.00
O139   O     0.89441   0.20487   0.25001   0.00000  Uiso   1.00
O140   O     0.77226   0.12846   0.25000   0.00000  Uiso   1.00
C141   C     0.75332   0.16669   0.24999   0.00000  Uiso   1.00
C142   C     0.91334   0.16665   0.25001   0.00000  Uiso   1.00
O143   O     0.83333   0.20489   0.18393   0.00000  Uiso   1.00
O144   O     0.83334   0.12844   0.31608   0.00000  Uiso   1.00
O145   O     0.83334   0.20489   0.31608   0.00000  Uiso   1.00
O146   O     0.83333   0.12844   0.18393   0.00000  Uiso   1.00
C147   C     0.83296   0.16665   0.16364   0.00000  Uiso   1.00
C148   C     0.83371   0.16668   0.33636   0.00000  Uiso   1.00
Zn149  Zn    0.83333   0.21771   0.25000   0.00000  Uiso   1.00
Zn150  Zn    0.83333   0.11563   0.25000   0.00000  Uiso   1.00
C151   C     0.87315   0.17027   0.40666   0.00000  Uiso   1.00
C152   C     0.79354   0.16286   0.09333   0.00000  Uiso   1.00
C153   C     0.83505   0.16676   0.38395   0.00000  Uiso   1.00
C154   C     0.83163   0.16654   0.11605   0.00000  Uiso   1.00
C155   C     0.79738   0.16167   0.40594   0.00000  Uiso   1.00
C156   C     0.86931   0.17160   0.09406   0.00000  Uiso   1.00
C157   C     0.79602   0.16065   0.45235   0.00000  Uiso   1.00
C158   C     0.87069   0.17240   0.04764   0.00000  Uiso   1.00
C159   C     0.83382   0.16617   0.47654   0.00000  Uiso   1.00
C160   C     0.83291   0.16683   0.02346   0.00000  Uiso   1.00
C161   C     0.87249   0.17126   0.45376   0.00000  Uiso   1.00
C162   C     0.79423   0.16172   0.04624   0.00000  Uiso   1.00
C163   C     0.75782   0.15424   0.47499   0.00000  Uiso   1.00
C164   C     0.90892   0.17861   0.02501   0.00000  Uiso   1.00
C165   C     0.75755   0.15425   0.02156   0.00000  Uiso   1.00
C166   C     0.90920   0.17856   0.47844   0.00000  Uiso   1.00
H167   H     0.76924   0.15831   0.38604   0.00000  Uiso   1.00
H168   H     0.89743   0.17508   0.11397   0.00000  Uiso   1.00
H169   H     0.72828   0.14764   0.03820   0.00000  Uiso   1.00
H170   H     0.93849   0.18507   0.46180   0.00000  Uiso   1.00
C171   C     0.68806   0.12797   0.23569   0.00000  Uiso   1.00
C172   C     0.97861   0.20536   0.26431   0.00000  Uiso   1.00
C173   C     0.97866   0.12792   0.23578   0.00000  Uiso   1.00
C174   C     0.68801   0.20541   0.26422   0.00000  Uiso   1.00
H175   H     0.70447   0.09807   0.22416   0.00000  Uiso   1.00
H176   H     0.96219   0.23526   0.27584   0.00000  Uiso   1.00
H177   H     0.96229   0.09799   0.22433   0.00000  Uiso   1.00
H178   H     0.70438   0.23534   0.27568   0.00000  Uiso   1.00
C179   C     0.95748   0.16663   0.25007   0.00000  Uiso   1.00
C180   C     0.70918   0.16671   0.24993   0.00000  Uiso   1.00
C181   C     0.86042   0.02395   0.27655   0.00000  Uiso   1.00
C182   C     0.80624   0.30938   0.22345   0.00000  Uiso   1.00
C183   C     0.80624   0.02400   0.22345   0.00000  Uiso   1.00
C184   C     0.86042   0.30934   0.27655   0.00000  Uiso   1.00
H185   H     0.88208   0.04208   0.29779   0.00000  Uiso   1.00
H186   H     0.78458   0.29125   0.20221   0.00000  Uiso   1.00
H187   H     0.78458   0.04217   0.20221   0.00000  Uiso   1.00
H188   H     0.88209   0.29116   0.29779   0.00000  Uiso   1.00
N189   N     0.83333   0.28573   0.25000   0.00000  Uiso   1.00
N190   N     0.83333   0.04760   0.25000   0.00000  Uiso   1.00
C191   C     0.91262   0.17197   0.38027   0.00000  Uiso   1.00
H192   H     0.91432   0.19255   0.35024   0.00000  Uiso   1.00
O193   O     0.94255   0.14846   0.39033   0.00000  Uiso   1.00
C194   C     0.75407   0.16117   0.11970   0.00000  Uiso   1.00
H195   H     0.75239   0.14074   0.14982   0.00000  Uiso   1.00
O196   O     0.72408   0.18453   0.10951   0.00000  Uiso   1.00
C197   C     0.71704   0.14699   0.45044   0.00000  Uiso   1.00
H198   H     0.71929   0.11648   0.42885   0.00000  Uiso   1.00
H199   H     0.69049   0.14183   0.47375   0.00000  Uiso   1.00
H200   H     0.70972   0.17705   0.42953   0.00000  Uiso   1.00
C201   C     0.94973   0.18568   0.04956   0.00000  Uiso   1.00
H202   H     0.95666   0.15582   0.07095   0.00000  Uiso   1.00
H203   H     0.97642   0.19008   0.02622   0.00000  Uiso   1.00
H204   H     0.94775   0.21657   0.07070   0.00000  Uiso   1.00
O205   O     0.10559   0.53821   0.25000   0.00000  Uiso   1.00
O206   O     0.22774   0.46179   0.25001   0.00000  Uiso   1.00
O207   O     0.22774   0.53821   0.25001   0.00000  Uiso   1.00
O208   O     0.10559   0.46179   0.25000   0.00000  Uiso   1.00
C209   C     0.08665   0.50002   0.24999   0.00000  Uiso   1.00
C210   C     0.24668   0.49998   0.25001   0.00000  Uiso   1.00
O211   O     0.16666   0.53823   0.18393   0.00000  Uiso   1.00
O212   O     0.16667   0.46177   0.31608   0.00000  Uiso   1.00
O213   O     0.16667   0.53823   0.31608   0.00000  Uiso   1.00
O214   O     0.16666   0.46177   0.18393   0.00000  Uiso   1.00
C215   C     0.16629   0.49998   0.16364   0.00000  Uiso   1.00
C216   C     0.16704   0.50002   0.33636   0.00000  Uiso   1.00
Zn217  Zn    0.16667   0.55104   0.25000   0.00000  Uiso   1.00
Zn218  Zn    0.16667   0.44896   0.25000   0.00000  Uiso   1.00
C219   C     0.20649   0.50360   0.40666   0.00000  Uiso   1.00
C220   C     0.12688   0.49619   0.09333   0.00000  Uiso   1.00
C221   C     0.16838   0.50009   0.38395   0.00000  Uiso   1.00
C222   C     0.16496   0.49988   0.11605   0.00000  Uiso   1.00
C223   C     0.13071   0.49500   0.40594   0.00000  Uiso   1.00
C224   C     0.20264   0.50493   0.09406   0.00000  Uiso   1.00
C225   C     0.12936   0.49399   0.45235   0.00000  Uiso   1.00
C226   C     0.20402   0.50573   0.04764   0.00000  Uiso   1.00
C227   C     0.16715   0.49950   0.47654   0.00000  Uiso   1.00
C228   C     0.16624   0.50016   0.02346   0.00000  Uiso   1.00
C229   C     0.20582   0.50459   0.45376   0.00000  Uiso   1.00
C230   C     0.12756   0.49506   0.04624   0.00000  Uiso   1.00
C231   C     0.09116   0.48757   0.47499   0.00000  Uiso   1.00
C232   C     0.24225   0.51194   0.02501   0.00000  Uiso   1.00
C233   C     0.09088   0.48758   0.02156   0.00000  Uiso   1.00
C234   C     0.24253   0.51189   0.47844   0.00000  Uiso   1.00
H235   H     0.10257   0.49165   0.38604   0.00000  Uiso   1.00
H236   H     0.23076   0.50841   0.11397   0.00000  Uiso   1.00
H237   H     0.06161   0.48097   0.03820   0.00000  Uiso   1.00
H238   H     0.27183   0.51840   0.46180   0.00000  Uiso   1.00
C239   C     0.02139   0.46130   0.23569   0.00000  Uiso   1.00
C240   C     0.31194   0.53870   0.26431   0.00000  Uiso   1.00
C241   C     0.31199   0.46126   0.23578   0.00000  Uiso   1.00
C242   C     0.02134   0.53874   0.26422   0.00000  Uiso   1.00
H243   H     0.03781   0.43141   0.22416   0.00000  Uiso   1.00
H244   H     0.29553   0.56859   0.27584   0.00000  Uiso   1.00
H245   H     0.29562   0.43133   0.22433   0.00000  Uiso   1.00
H246   H     0.03771   0.56867   0.27568   0.00000  Uiso   1.00
C247   C     0.29082   0.49996   0.25007   0.00000  Uiso   1.00
C248   C     0.04251   0.50004   0.24993   0.00000  Uiso   1.00
C249   C     0.19376   0.35728   0.27655   0.00000  Uiso   1.00
C250   C     0.13958   0.64272   0.22345   0.00000  Uiso   1.00
C251   C     0.13958   0.35733   0.22345   0.00000  Uiso   1.00
C252   C     0.19376   0.64267   0.27655   0.00000  Uiso   1.00
H253   H     0.21542   0.37542   0.29779   0.00000  Uiso   1.00
H254   H     0.11792   0.62458   0.20221   0.00000  Uiso   1.00
H255   H     0.11791   0.37550   0.20221   0.00000  Uiso   1.00
H256   H     0.21542   0.62450   0.29779   0.00000  Uiso   1.00
N257   N     0.16667   0.61907   0.25000   0.00000  Uiso   1.00
N258   N     0.16667   0.38093   0.25000   0.00000  Uiso   1.00
C259   C     0.24595   0.50530   0.38027   0.00000  Uiso   1.00
H260   H     0.24765   0.52588   0.35024   0.00000  Uiso   1.00
O261   O     0.27588   0.48179   0.39033   0.00000  Uiso   1.00
C262   C     0.08740   0.49450   0.11970   0.00000  Uiso   1.00
H263   H     0.08573   0.47407   0.14982   0.00000  Uiso   1.00
O264   O     0.05741   0.51787   0.10951   0.00000  Uiso   1.00
C265   C     0.05038   0.48033   0.45044   0.00000  Uiso   1.00
H266   H     0.05262   0.44981   0.42885   0.00000  Uiso   1.00
H267   H     0.02383   0.47516   0.47375   0.00000  Uiso   1.00
H268   H     0.04305   0.51038   0.42953   0.00000  Uiso   1.00
C269   C     0.28306   0.51901   0.04956   0.00000  Uiso   1.00
H270   H     0.29000   0.48916   0.07095   0.00000  Uiso   1.00
H271   H     0.30975   0.52342   0.02622   0.00000  Uiso   1.00
H272   H     0.28108   0.54990   0.07070   0.00000  Uiso   1.00
O273   O     0.43892   0.53821   0.25000   0.00000  Uiso   1.00
O274   O     0.56108   0.46179   0.25001   0.00000  Uiso   1.00
O275   O     0.56108   0.53821   0.25001   0.00000  Uiso   1.00
O276   O     0.43892   0.46179   0.25000   0.00000  Uiso   1.00
C277   C     0.41999   0.50002   0.24999   0.00000  Uiso   1.00
C278   C     0.58001   0.49998   0.25001   0.00000  Uiso   1.00
O279   O     0.49999   0.53823   0.18393   0.00000  Uiso   1.00
O280   O     0.50001   0.46177   0.31608   0.00000  Uiso   1.00
O281   O     0.50001   0.53823   0.31608   0.00000  Uiso   1.00
O282   O     0.49999   0.46177   0.18393   0.00000  Uiso   1.00
C283   C     0.49962   0.49998   0.16364   0.00000  Uiso   1.00
C284   C     0.50037   0.50002   0.33636   0.00000  Uiso   1.00
Zn285  Zn    0.50000   0.55104   0.25000   0.00000  Uiso   1.00
Zn286  Zn    0.50000   0.44896   0.25000   0.00000  Uiso   1.00
C287   C     0.53982   0.50360   0.40666   0.00000  Uiso   1.00
C288   C     0.46021   0.49619   0.09333   0.00000  Uiso   1.00
C289   C     0.50171   0.50009   0.38395   0.00000  Uiso   1.00
C290   C     0.49830   0.49988   0.11605   0.00000  Uiso   1.00
C291   C     0.46404   0.49500   0.40594   0.00000  Uiso   1.00
C292   C     0.53597   0.50493   0.09406   0.00000  Uiso   1.00
C293   C     0.46269   0.49399   0.45235   0.00000  Uiso   1.00
C294   C     0.53736   0.50573   0.04764   0.00000  Uiso   1.00
C295   C     0.50048   0.49950   0.47654   0.00000  Uiso   1.00
C296   C     0.49957   0.50016   0.02346   0.00000  Uiso   1.00
C297   C     0.53916   0.50459   0.45376   0.00000  Uiso   1.00
C298   C     0.46090   0.49506   0.04624   0.00000  Uiso   1.00
C299   C     0.42449   0.48757   0.47499   0.00000  Uiso   1.00
C300   C     0.57559   0.51194   0.02501   0.00000  Uiso   1.00
C301   C     0.42422   0.48758   0.02156   0.00000  Uiso   1.00
C302   C     0.57587   0.51189   0.47844   0.00000  Uiso   1.00
H303   H     0.43590   0.49165   0.38604   0.00000  Uiso   1.00
H304   H     0.56409   0.50841   0.11397   0.00000  Uiso   1.00
H305   H     0.39494   0.48097   0.03820   0.00000  Uiso   1.00
H306   H     0.60516   0.51840   0.46180   0.00000  Uiso   1.00
C307   C     0.35473   0.46130   0.23569   0.00000  Uiso   1.00
C308   C     0.64527   0.53870   0.26431   0.00000  Uiso   1.00
C309   C     0.64532   0.46126   0.23578   0.00000  Uiso   1.00
C310   C     0.35467   0.53874   0.26422   0.00000  Uiso   1.00
H311   H     0.37114   0.43141   0.22416   0.00000  Uiso   1.00
H312   H     0.62886   0.56859   0.27584   0.00000  Uiso   1.00
H313   H     0.62895   0.43133   0.22433   0.00000  Uiso   1.00
H314   H     0.37105   0.56867   0.27568   0.00000  Uiso   1.00
C315   C     0.62415   0.49996   0.25007   0.00000  Uiso   1.00
C316   C     0.37585   0.50004   0.24993   0.00000  Uiso   1.00
C317   C     0.52709   0.35728   0.27655   0.00000  Uiso   1.00
C318   C     0.47291   0.64272   0.22345   0.00000  Uiso   1.00
C319   C     0.47291   0.35733   0.22345   0.00000  Uiso   1.00
C320   C     0.52709   0.64267   0.27655   0.00000  Uiso   1.00
H321   H     0.54875   0.37542   0.29779   0.00000  Uiso   1.00
H322   H     0.45125   0.62458   0.20221   0.00000  Uiso   1.00
H323   H     0.45125   0.37550   0.20221   0.00000  Uiso   1.00
H324   H     0.54875   0.62450   0.29779   0.00000  Uiso   1.00
N325   N     0.50000   0.61907   0.25000   0.00000  Uiso   1.00
N326   N     0.50000   0.38093   0.25000   0.00000  Uiso   1.00
C327   C     0.57928   0.50530   0.38027   0.00000  Uiso   1.00
H328   H     0.58099   0.52588   0.35024   0.00000  Uiso   1.00
O329   O     0.60922   0.48179   0.39033   0.00000  Uiso   1.00
C330   C     0.42073   0.49450   0.11970   0.00000  Uiso   1.00
H331   H     0.41906   0.47407   0.14982   0.00000  Uiso   1.00
O332   O     0.39074   0.51787   0.10951   0.00000  Uiso   1.00
C333   C     0.38371   0.48033   0.45044   0.00000  Uiso   1.00
H334   H     0.38596   0.44981   0.42885   0.00000  Uiso   1.00
H335   H     0.35716   0.47516   0.47375   0.00000  Uiso   1.00
H336   H     0.37639   0.51038   0.42953   0.00000  Uiso   1.00
C337   C     0.61639   0.51901   0.04956   0.00000  Uiso   1.00
H338   H     0.62333   0.48916   0.07095   0.00000  Uiso   1.00
H339   H     0.64309   0.52342   0.02622   0.00000  Uiso   1.00
H340   H     0.61442   0.54990   0.07070   0.00000  Uiso   1.00
O341   O     0.77226   0.53821   0.25000   0.00000  Uiso   1.00
O342   O     0.89441   0.46179   0.25001   0.00000  Uiso   1.00
O343   O     0.89441   0.53821   0.25001   0.00000  Uiso   1.00
O344   O     0.77226   0.46179   0.25000   0.00000  Uiso   1.00
C345   C     0.75332   0.50002   0.24999   0.00000  Uiso   1.00
C346   C     0.91334   0.49998   0.25001   0.00000  Uiso   1.00
O347   O     0.83333   0.53823   0.18393   0.00000  Uiso   1.00
O348   O     0.83334   0.46177   0.31608   0.00000  Uiso   1.00
O349   O     0.83334   0.53823   0.31608   0.00000  Uiso   1.00
O350   O     0.83333   0.46177   0.18393   0.00000  Uiso   1.00
C351   C     0.83296   0.49998   0.16364   0.00000  Uiso   1.00
C352   C     0.83371   0.50002   0.33636   0.00000  Uiso   1.00
Zn353  Zn    0.83333   0.55104   0.25000   0.00000  Uiso   1.00
Zn354  Zn    0.83333   0.44896   0.25000   0.00000  Uiso   1.00
C355   C     0.87315   0.50360   0.40666   0.00000  Uiso   1.00
C356   C     0.79354   0.49619   0.09333   0.00000  Uiso   1.00
C357   C     0.83505   0.50009   0.38395   0.00000  Uiso   1.00
C358   C     0.83163   0.49988   0.11605   0.00000  Uiso   1.00
C359   C     0.79738   0.49500   0.40594   0.00000  Uiso   1.00
C360   C     0.86931   0.50493   0.09406   0.00000  Uiso   1.00
C361   C     0.79602   0.49399   0.45235   0.00000  Uiso   1.00
C362   C     0.87069   0.50573   0.04764   0.00000  Uiso   1.00
C363   C     0.83382   0.49950   0.47654   0.00000  Uiso   1.00
C364   C     0.83291   0.50016   0.02346   0.00000  Uiso   1.00
C365   C     0.87249   0.50459   0.45376   0.00000  Uiso   1.00
C366   C     0.79423   0.49506   0.04624   0.00000  Uiso   1.00
C367   C     0.75782   0.48757   0.47499   0.00000  Uiso   1.00
C368   C     0.90892   0.51194   0.02501   0.00000  Uiso   1.00
C369   C     0.75755   0.48758   0.02156   0.00000  Uiso   1.00
C370   C     0.90920   0.51189   0.47844   0.00000  Uiso   1.00
H371   H     0.76924   0.49165   0.38604   0.00000  Uiso   1.00
H372   H     0.89743   0.50841   0.11397   0.00000  Uiso   1.00
H373   H     0.72828   0.48097   0.03820   0.00000  Uiso   1.00
H374   H     0.93849   0.51840   0.46180   0.00000  Uiso   1.00
C375   C     0.68806   0.46130   0.23569   0.00000  Uiso   1.00
C376   C     0.97861   0.53870   0.26431   0.00000  Uiso   1.00
C377   C     0.97866   0.46126   0.23578   0.00000  Uiso   1.00
C378   C     0.68801   0.53874   0.26422   0.00000  Uiso   1.00
H379   H     0.70447   0.43141   0.22416   0.00000  Uiso   1.00
H380   H     0.96219   0.56859   0.27584   0.00000  Uiso   1.00
H381   H     0.96229   0.43133   0.22433   0.00000  Uiso   1.00
H382   H     0.70438   0.56867   0.27568   0.00000  Uiso   1.00
C383   C     0.95748   0.49996   0.25007   0.00000  Uiso   1.00
C384   C     0.70918   0.50004   0.24993   0.00000  Uiso   1.00
C385   C     0.86042   0.35728   0.27655   0.00000  Uiso   1.00
C386   C     0.80624   0.64272   0.22345   0.00000  Uiso   1.00
C387   C     0.80624   0.35733   0.22345   0.00000  Uiso   1.00
C388   C     0.86042   0.64267   0.27655   0.00000  Uiso   1.00
H389   H     0.88208   0.37542   0.29779   0.00000  Uiso   1.00
H390   H     0.78458   0.62458   0.20221   0.00000  Uiso   1.00
H391   H     0.78458   0.37550   0.20221   0.00000  Uiso   1.00
H392   H     0.88209   0.62450   0.29779   0.00000  Uiso   1.00
N393   N     0.83333   0.61907   0.25000   0.00000  Uiso   1.00
N394   N     0.83333   0.38093   0.25000   0.00000  Uiso   1.00
C395   C     0.91262   0.50530   0.38027   0.00000  Uiso   1.00
H396   H     0.91432   0.52588   0.35024   0.00000  Uiso   1.00
O397   O     0.94255   0.48179   0.39033   0.00000  Uiso   1.00
C398   C     0.75407   0.49450   0.11970   0.00000  Uiso   1.00
H399   H     0.75239   0.47407   0.14982   0.00000  Uiso   1.00
O400   O     0.72408   0.51787   0.10951   0.00000  Uiso   1.00
C401   C     0.71704   0.48033   0.45044   0.00000  Uiso   1.00
H402   H     0.71929   0.44981   0.42885   0.00000  Uiso   1.00
H403   H     0.69049   0.47516   0.47375   0.00000  Uiso   1.00
H404   H     0.70972   0.51038   0.42953   0.00000  Uiso   1.00
C405   C     0.94973   0.51901   0.04956   0.00000  Uiso   1.00
H406   H     0.95666   0.48916   0.07095   0.00000  Uiso   1.00
H407   H     0.97642   0.52342   0.02622   0.00000  Uiso   1.00
H408   H     0.94775   0.54990   0.07070   0.00000  Uiso   1.00
O409   O     0.10559   0.87154   0.25000   0.00000  Uiso   1.00
O410   O     0.22774   0.79513   0.25001   0.00000  Uiso   1.00
O411   O     0.22774   0.87154   0.25001   0.00000  Uiso   1.00
O412   O     0.10559   0.79513   0.25000   0.00000  Uiso   1.00
C413   C     0.08665   0.83335   0.24999   0.00000  Uiso   1.00
C414   C     0.24668   0.83331   0.25001   0.00000  Uiso   1.00
O415   O     0.16666   0.87156   0.18393   0.00000  Uiso   1.00
O416   O     0.16667   0.79511   0.31608   0.00000  Uiso   1.00
O417   O     0.16667   0.87156   0.31608   0.00000  Uiso   1.00
O418   O     0.16666   0.79511   0.18393   0.00000  Uiso   1.00
C419   C     0.16629   0.83331   0.16364   0.00000  Uiso   1.00
C420   C     0.16704   0.83335   0.33636   0.00000  Uiso   1.00
Zn421  Zn    0.16667   0.88437   0.25000   0.00000  Uiso   1.00
Zn422  Zn    0.16667   0.78229   0.25000   0.00000  Uiso   1.00
C423   C     0.20649   0.83693   0.40666   0.00000  Uiso   1.00
C424   C     0.12688   0.82953   0.09333   0.00000  Uiso   1.00
C425   C     0.16838   0.83343   0.38395   0.00000  Uiso   1.00
C426   C     0.16496   0.83321   0.11605   0.00000  Uiso   1.00
C427   C     0.13071   0.82833   0.40594   0.00000  Uiso   1.00
C428   C     0.20264   0.83827   0.09406   0.00000  Uiso   1.00
C429   C     0.12936   0.82732   0.45235   0.00000  Uiso   1.00
C430   C     0.20402   0.83906   0.04764   0.00000  Uiso   1.00
C431   C     0.16715   0.83284   0.47654   0.00000  Uiso   1.00
C432   C     0.16624   0.83350   0.02346   0.00000  Uiso   1.00
C433   C     0.20582   0.83793   0.45376   0.00000  Uiso   1.00
C434   C     0.12756   0.82839   0.04624   0.00000  Uiso   1.00
C435   C     0.09116   0.82091   0.47499   0.00000  Uiso   1.00
C436   C     0.24225   0.84527   0.02501   0.00000  Uiso   1.00
C437   C     0.09088   0.82092   0.02156   0.00000  Uiso   1.00
C438   C     0.24253   0.84523   0.47844   0.00000  Uiso   1.00
H439   H     0.10257   0.82498   0.38604   0.00000  Uiso   1.00
H440   H     0.23076   0.84175   0.11397   0.00000  Uiso   1.00
H441   H     0.06161   0.81431   0.03820   0.00000  Uiso   1.00
H442   H     0.27183   0.85173   0.46180   0.00000  Uiso   1.00
C443   C     0.02139   0.79464   0.23569   0.00000  Uiso   1.00
C444   C     0.31194   0.87203   0.26431   0.00000  Uiso   1.00
C445   C     0.31199   0.79459   0.23578   0.00000  Uiso   1.00
C446   C     0.02134   0.87208   0.26422   0.00000  Uiso   1.00
H447   H     0.03781   0.76474   0.22416   0.00000  Uiso   1.00
H448   H     0.29553   0.90193   0.27584   0.00000  Uiso   1.00
H449   H     0.29562   0.76466   0.22433   0.00000  Uiso   1.00
H450   H     0.03771   0.90201   0.27568   0.00000  Uiso   1.00
C451   C     0.29082   0.83329   0.25007   0.00000  Uiso   1.00
C452   C     0.04251   0.83337   0.24993   0.00000  Uiso   1.00
C453   C     0.19376   0.69062   0.27655   0.00000  Uiso   1.00
C454   C     0.13958   0.97605   0.22345   0.00000  Uiso   1.00
C455   C     0.13958   0.69066   0.22345   0.00000  Uiso   1.00
C456   C     0.19376   0.97600   0.27655   0.00000  Uiso   1.00
H457   H     0.21542   0.70875   0.29779   0.00000  Uiso   1.00
H458   H     0.11792   0.95792   0.20221   0.00000  Uiso   1.00
H459   H     0.11791   0.70884   0.20221   0.00000  Uiso   1.00
H460   H     0.21542   0.95783   0.29779   0.00000  Uiso   1.00
N461   N     0.16667   0.95240   0.25000   0.00000  Uiso   1.00
N462   N     0.16667   0.71427   0.25000   0.00000  Uiso   1.00
C463   C     0.24595   0.83863   0.38027   0.00000  Uiso   1.00
H464   H     0.24765   0.85921   0.35024   0.00000  Uiso   1.00
O465   O     0.27588   0.81512   0.39033   0.00000  Uiso   1.00
C466   C     0.08740   0.82784   0.11970   0.00000  Uiso   1.00
H467   H     0.08573   0.80741   0.14982   0.00000  Uiso   1.00
O468   O     0.05741   0.85120   0.10951   0.00000  Uiso   1.00
C469   C     0.05038   0.81366   0.45044   0.00000  Uiso   1.00
H470   H     0.05262   0.78315   0.42885   0.00000  Uiso   1.00
H471   H     0.02383   0.80850   0.47375   0.00000  Uiso   1.00
H472   H     0.04305   0.84371   0.42953   0.00000  Uiso   1.00
C473   C     0.28306   0.85234   0.04956   0.00000  Uiso   1.00
H474   H     0.29000   0.82249   0.07095   0.00000  Uiso   1.00
H475   H     0.30975   0.85675   0.02622   0.00000  Uiso   1.00
H476   H     0.28108   0.88323   0.07070   0.00000  Uiso   1.00
O477   O     0.43892   0.87154   0.25000   0.00000  Uiso   1.00
O478   O     0.56108   0.79513   0.25001   0.00000  Uiso   1.00
O479   O     0.56108   0.87154   0.25001   0.00000  Uiso   1.00
O480   O     0.43892   0.79513   0.25000   0.00000  Uiso   1.00
C481   C     0.41999   0.83335   0.24999   0.00000  Uiso   1.00
C482   C     0.58001   0.83331   0.25001   0.00000  Uiso   1.00
O483   O     0.49999   0.87156   0.18393   0.00000  Uiso   1.00
O484   O     0.50001   0.79511   0.31608   0.00000  Uiso   1.00
O485   O     0.50001   0.87156   0.31608   0.00000  Uiso   1.00
O486   O     0.49999   0.79511   0.18393   0.00000  Uiso   1.00
C487   C     0.49962   0.83331   0.16364   0.00000  Uiso   1.00
C488   C     0.50037   0.83335   0.33636   0.00000  Uiso   1.00
Zn489  Zn    0.50000   0.88437   0.25000   0.00000  Uiso   1.00
Zn490  Zn    0.50000   0.78229   0.25000   0.00000  Uiso   1.00
C491   C     0.53982   0.83693   0.40666   0.00000  Uiso   1.00
C492   C     0.46021   0.82953   0.09333   0.00000  Uiso   1.00
C493   C     0.50171   0.83343   0.38395   0.00000  Uiso   1.00
C494   C     0.49830   0.83321   0.11605   0.00000  Uiso   1.00
C495   C     0.46404   0.82833   0.40594   0.00000  Uiso   1.00
C496   C     0.53597   0.83827   0.09406   0.00000  Uiso   1.00
C497   C     0.46269   0.82732   0.45235   0.00000  Uiso   1.00
C498   C     0.53736   0.83906   0.04764   0.00000  Uiso   1.00
C499   C     0.50048   0.83284   0.47654   0.00000  Uiso   1.00
C500   C     0.49957   0.83350   0.02346   0.00000  Uiso   1.00
C501   C     0.53916   0.83793   0.45376   0.00000  Uiso   1.00
C502   C     0.46090   0.82839   0.04624   0.00000  Uiso   1.00
C503   C     0.42449   0.82091   0.47499   0.00000  Uiso   1.00
C504   C     0.57559   0.84527   0.02501   0.00000  Uiso   1.00
C505   C     0.42422   0.82092   0.02156   0.00000  Uiso   1.00
C506   C     0.57587   0.84523   0.47844   0.00000  Uiso   1.00
H507   H     0.43590   0.82498   0.38604   0.00000  Uiso   1.00
H508   H     0.56409   0.84175   0.11397   0.00000  Uiso   1.00
H509   H     0.39494   0.81431   0.03820   0.00000  Uiso   1.00
H510   H     0.60516   0.85173   0.46180   0.00000  Uiso   1.00
C511   C     0.35473   0.79464   0.23569   0.00000  Uiso   1.00
C512   C     0.64527   0.87203   0.26431   0.00000  Uiso   1.00
C513   C     0.64532   0.79459   0.23578   0.00000  Uiso   1.00
C514   C     0.35467   0.87208   0.26422   0.00000  Uiso   1.00
H515   H     0.37114   0.76474   0.22416   0.00000  Uiso   1.00
H516   H     0.62886   0.90193   0.27584   0.00000  Uiso   1.00
H517   H     0.62895   0.76466   0.22433   0.00000  Uiso   1.00
H518   H     0.37105   0.90201   0.27568   0.00000  Uiso   1.00
C519   C     0.62415   0.83329   0.25007   0.00000  Uiso   1.00
C520   C     0.37585   0.83337   0.24993   0.00000  Uiso   1.00
C521   C     0.52709   0.69062   0.27655   0.00000  Uiso   1.00
C522   C     0.47291   0.97605   0.22345   0.00000  Uiso   1.00
C523   C     0.47291   0.69066   0.22345   0.00000  Uiso   1.00
C524   C     0.52709   0.97600   0.27655   0.00000  Uiso   1.00
H525   H     0.54875   0.70875   0.29779   0.00000  Uiso   1.00
H526   H     0.45125   0.95792   0.20221   0.00000  Uiso   1.00
H527   H     0.45125   0.70884   0.20221   0.00000  Uiso   1.00
H528   H     0.54875   0.95783   0.29779   0.00000  Uiso   1.00
N529   N     0.50000   0.95240   0.25000   0.00000  Uiso   1.00
N530   N     0.50000   0.71427   0.25000   0.00000  Uiso   1.00
C531   C     0.57928   0.83863   0.38027   0.00000  Uiso   1.00
H532   H     0.58099   0.85921   0.35024   0.00000  Uiso   1.00
O533   O     0.60922   0.81512   0.39033   0.00000  Uiso   1.00
C534   C     0.42073   0.82784   0.11970   0.00000  Uiso   1.00
H535   H     0.41906   0.80741   0.14982   0.00000  Uiso   1.00
O536   O     0.39074   0.85120   0.10951   0.00000  Uiso   1.00
C537   C     0.38371   0.81366   0.45044   0.00000  Uiso   1.00
H538   H     0.38596   0.78315   0.42885   0.00000  Uiso   1.00
H539   H     0.35716   0.80850   0.47375   0.00000  Uiso   1.00
H540   H     0.37639   0.84371   0.42953   0.00000  Uiso   1.00
C541   C     0.61639   0.85234   0.04956   0.00000  Uiso   1.00
H542   H     0.62333   0.82249   0.07095   0.00000  Uiso   1.00
H543   H     0.64309   0.85675   0.02622   0.00000  Uiso   1.00
H544   H     0.61442   0.88323   0.07070   0.00000  Uiso   1.00
O545   O     0.77226   0.87154   0.25000   0.00000  Uiso   1.00
O546   O     0.89441   0.79513   0.25001   0.00000  Uiso   1.00
O547   O     0.89441   0.87154   0.25001   0.00000  Uiso   1.00
O548   O     0.77226   0.79513   0.25000   0.00000  Uiso   1.00
C549   C     0.75332   0.83335   0.24999   0.00000  Uiso   1.00
C550   C     0.91334   0.83331   0.25001   0.00000  Uiso   1.00
O551   O     0.83333   0.87156   0.18393   0.00000  Uiso   1.00
O552   O     0.83334   0.79511   0.31608   0.00000  Uiso   1.00
O553   O     0.83334   0.87156   0.31608   0.00000  Uiso   1.00
O554   O     0.83333   0.79511   0.18393   0.00000  Uiso   1.00
C555   C     0.83296   0.83331   0.16364   0.00000  Uiso   1.00
C556   C     0.83371   0.83335   0.33636   0.00000  Uiso   1.00
Zn557  Zn    0.83333   0.88437   0.25000   0.00000  Uiso   1.00
Zn558  Zn    0.83333   0.78229   0.25000   0.00000  Uiso   1.00
C559   C     0.87315   0.83693   0.40666   0.00000  Uiso   1.00
C560   C     0.79354   0.82953   0.09333   0.00000  Uiso   1.00
C561   C     0.83505   0.83343   0.38395   0.00000  Uiso   1.00
C562   C     0.83163   0.83321   0.11605   0.00000  Uiso   1.00
C563   C     0.79738   0.82833   0.40594   0.00000  Uiso   1.00
C564   C     0.86931   0.83827   0.09406   0.00000  Uiso   1.00
C565   C     0.79602   0.82732   0.45235   0.00000  Uiso   1.00
C566   C     0.87069   0.83906   0.04764   0.00000  Uiso   1.00
C567   C     0.83382   0.83284   0.47654   0.00000  Uiso   1.00
C568   C     0.83291   0.83350   0.02346   0.00000  Uiso   1.00
C569   C     0.87249   0.83793   0.45376   0.00000  Uiso   1.00
C570   C     0.79423   0.82839   0.04624   0.00000  Uiso   1.00
C571   C     0.75782   0.82091   0.47499   0.00000  Uiso   1.00
C572   C     0.90892   0.84527   0.02501   0.00000  Uiso   1.00
C573   C     0.75755   0.82092   0.02156   0.00000  Uiso   1.00
C574   C     0.90920   0.84523   0.47844   0.00000  Uiso   1.00
H575   H     0.76924   0.82498   0.38604   0.00000  Uiso   1.00
H576   H     0.89743   0.84175   0.11397   0.00000  Uiso   1.00
H577   H     0.72828   0.81431   0.03820   0.00000  Uiso   1.00
H578   H     0.93849   0.85173   0.46180   0.00000  Uiso   1.00
C579   C     0.68806   0.79464   0.23569   0.00000  Uiso   1.00
C580   C     0.97861   0.87203   0.26431   0.00000  Uiso   1.00
C581   C     0.97866   0.79459   0.23578   0.00000  Uiso   1.00
C582   C     0.68801   0.87208   0.26422   0.00000  Uiso   1.00
H583   H     0.70447   0.76474   0.22416   0.00000  Uiso   1.00
H584   H     0.96219   0.90193   0.27584   0.00000  Uiso   1.00
H585   H     0.96229   0.76466   0.22433   0.00000  Uiso   1.00
H586   H     0.70438   0.90201   0.27568   0.00000  Uiso   1.00
C587   C     0.95748   0.83329   0.25007   0.00000  Uiso   1.00
C588   C     0.70918   0.83337   0.24993   0.00000  Uiso   1.00
C589   C     0.86042   0.69062   0.27655   0.00000  Uiso   1.00
C590   C     0.80624   0.97605   0.22345   0.00000  Uiso   1.00
C591   C     0.80624   0.69066   0.22345   0.00000  Uiso   1.00
C592   C     0.86042   0.97600   0.27655   0.00000  Uiso   1.00
H593   H     0.88208   0.70875   0.29779   0.00000  Uiso   1.00
H594   H     0.78458   0.95792   0.20221   0.00000  Uiso   1.00
H595   H     0.78458   0.70884   0.20221   0.00000  Uiso   1.00
H596   H     0.88209   0.95783   0.29779   0.00000  Uiso   1.00
N597   N     0.83333   0.95240   0.25000   0.00000  Uiso   1.00
N598   N     0.83333   0.71427   0.25000   0.00000  Uiso   1.00
C599   C     0.91262   0.83863   0.38027   0.00000  Uiso   1.00
H600   H     0.91432   0.85921   0.35024   0.00000  Uiso   1.00
O601   O     0.94255   0.81512   0.39033   0.00000  Uiso   1.00
C602   C     0.75407   0.82784   0.11970   0.00000  Uiso   1.00
H603   H     0.75239   0.80741   0.14982   0.00000  Uiso   1.00
O604   O     0.72408   0.85120   0.10951   0.00000  Uiso   1.00
C605   C     0.71704   0.81366   0.45044   0.00000  Uiso   1.00
H606   H     0.71929   0.78315   0.42885   0.00000  Uiso   1.00
H607   H     0.69049   0.80850   0.47375   0.00000  Uiso   1.00
H608   H     0.70972   0.84371   0.42953   0.00000  Uiso   1.00
C609   C     0.94973   0.85234   0.04956   0.00000  Uiso   1.00
H610   H     0.95666   0.82249   0.07095   0.00000  Uiso   1.00
H611   H     0.97642   0.85675   0.02622   0.00000  Uiso   1.00
H612   H     0.94775   0.88323   0.07070   0.00000  Uiso   1.00
O613   O     0.10559   0.20487   0.75000   0.00000  Uiso   1.00
O614   O     0.22774   0.12846   0.75001   0.00000  Uiso   1.00
O615   O     0.22774   0.20487   0.75001   0.00000  Uiso   1.00
O616   O     0.10559   0.12846   0.75000   0.00000  Uiso   1.00
C617   C     0.08665   0.16669   0.74999   0.00000  Uiso   1.00
C618   C     0.24668   0.16665   0.75001   0.00000  Uiso   1.00
O619   O     0.16666   0.20489   0.68393   0.00000  Uiso   1.00
O620   O     0.16667   0.12844   0.81608   0.00000  Uiso   1.00
O621   O     0.16667   0.20489   0.81608   0.00000  Uiso   1.00
O622   O     0.16666   0.12844   0.68393   0.00000  Uiso   1.00
C623   C     0.16629   0.16665   0.66364   0.00000  Uiso   1.00
C624   C     0.16704   0.16668   0.83636   0.00000  Uiso   1.00
Zn625  Zn    0.16667   0.21771   0.75000   0.00000  Uiso   1.00
Zn626  Zn    0.16667   0.11563   0.75000   0.00000  Uiso   1.00
C627   C     0.20649   0.17027   0.90666   0.00000  Uiso   1.00
C628   C     0.12688   0.16286   0.59333   0.00000  Uiso   1.00
C629   C     0.16838   0.16676   0.88395   0.00000  Uiso   1.00
C630   C     0.16496   0.16654   0.61605   0.00000  Uiso   1.00
C631   C     0.13071   0.16167   0.90594   0.00000  Uiso   1.00
C632   C     0.20264   0.17160   0.59406   0.00000  Uiso   1.00
C633   C     0.12936   0.16065   0.95235   0.00000  Uiso   1.00
C634   C     0.20402   0.17240   0.54764   0.00000  Uiso   1.00
C635   C     0.16715   0.16617   0.97654   0.00000  Uiso   1.00
C636   C     0.16624   0.16683   0.52346   0.00000  Uiso   1.00
C637   C     0.20582   0.17126   0.95376   0.00000  Uiso   1.00
C638   C     0.12756   0.16172   0.54624   0.00000  Uiso   1.00
C639   C     0.09116   0.15424   0.97499   0.00000  Uiso   1.00
C640   C     0.24225   0.17861   0.52501   0.00000  Uiso   1.00
C641   C     0.09088   0.15425   0.52156   0.00000  Uiso   1.00
C642   C     0.24253   0.17856   0.97844   0.00000  Uiso   1.00
H643   H     0.10257   0.15831   0.88604   0.00000  Uiso   1.00
H644   H     0.23076   0.17508   0.61397   0.00000  Uiso   1.00
H645   H     0.06161   0.14764   0.53820   0.00000  Uiso   1.00
H646   H     0.27183   0.18507   0.96180   0.00000  Uiso   1.00
C647   C     0.02139   0.12797   0.73569   0.00000  Uiso   1.00
C648   C     0.31194   0.20536   0.76431   0.00000  Uiso   1.00
C649   C     0.31199   0.12792   0.73578   0.00000  Uiso   1.00
C650   C     0.02134   0.20541   0.76422   0.00000  Uiso   1.00
H651   H     0.03781   0.09807   0.72416   0.00000  Uiso   1.00
H652   H     0.29553   0.23526   0.77584   0.00000  Uiso   1.00
H653   H     0.29562   0.09799   0.72433   0.00000  Uiso   1.00
H654   H     0.03771   0.23534   0.77568   0.00000  Uiso   1.00
C655   C     0.29082   0.16663   0.75007   0.00000  Uiso   1.00
C656   C     0.04251   0.16671   0.74993   0.00000  Uiso   1.00
C657   C     0.19376   0.02395   0.77655   0.00000  Uiso   1.00
C658   C     0.13958   0.30938   0.72345   0.00000  Uiso   1.00
C659   C     0.13958   0.02400   0.72345   0.00000  Uiso   1.00
C660   C     0.19376   0.30934   0.77655   0.00000  Uiso   1.00
H661   H     0.21542   0.04208   0.79779   0.00000  Uiso   1.00
H662   H     0.11792   0.29125   0.70221   0.00000  Uiso   1.00
H663   H     0.11791   0.04217   0.70221   0.00000  Uiso   1.00
H664   H     0.21542   0.29116   0.79779   0.00000  Uiso   1.00
N665   N     0.16667   0.28573   0.75000   0.00000  Uiso   1.00
N666   N     0.16667   0.04760   0.75000   0.00000  Uiso   1.00
C667   C     0.24595   0.17197   0.88027   0.00000  Uiso   1.00
H668   H     0.24765   0.19255   0.85024   0.00000  Uiso   1.00
O669   O     0.27588   0.14846   0.89033   0.00000  Uiso   1.00
C670   C     0.08740   0.16117   0.61970   0.00000  Uiso   1.00
H671   H     0.08573   0.14074   0.64982   0.00000  Uiso   1.00
O672   O     0.05741   0.18453   0.60951   0.00000  Uiso   1.00
C673   C     0.05038   0.14699   0.95044   0.00000  Uiso   1.00
H674   H     0.05262   0.11648   0.92885   0.00000  Uiso   1.00
H675   H     0.02383   0.14183   0.97375   0.00000  Uiso   1.00
H676   H     0.04305   0.17705   0.92953   0.00000  Uiso   1.00
C677   C     0.28306   0.18568   0.54956   0.00000  Uiso   1.00
H678   H     0.29000   0.15582   0.57095   0.00000  Uiso   1.00
H679   H     0.30975   0.19008   0.52622   0.00000  Uiso   1.00
H680   H     0.28108   0.21657   0.57070   0.00000  Uiso   1.00
O681   O     0.43892   0.20487   0.75000   0.00000  Uiso   1.00
O682   O     0.56108   0.12846   0.75001   0.00000  Uiso   1.00
O683   O     0.56108   0.20487   0.75001   0.00000  Uiso   1.00
O684   O     0.43892   0.12846   0.75000   0.00000  Uiso   1.00
C685   C     0.41999   0.16669   0.74999   0.00000  Uiso   1.00
C686   C     0.58001   0.16665   0.75001   0.00000  Uiso   1.00
O687   O     0.49999   0.20489   0.68393   0.00000  Uiso   1.00
O688   O     0.50001   0.12844   0.81608   0.00000  Uiso   1.00
O689   O     0.50001   0.20489   0.81608   0.00000  Uiso   1.00
O690   O     0.49999   0.12844   0.68393   0.00000  Uiso   1.00
C691   C     0.49962   0.16665   0.66364   0.00000  Uiso   1.00
C692   C     0.50037   0.16668   0.83636   0.00000  Uiso   1.00
Zn693  Zn    0.50000   0.21771   0.75000   0.00000  Uiso   1.00
Zn694  Zn    0.50000   0.11563   0.75000   0.00000  Uiso   1.00
C695   C     0.53982   0.17027   0.90666   0.00000  Uiso   1.00
C696   C     0.46021   0.16286   0.59333   0.00000  Uiso   1.00
C697   C     0.50171   0.16676   0.88395   0.00000  Uiso   1.00
C698   C     0.49830   0.16654   0.61605   0.00000  Uiso   1.00
C699   C     0.46404   0.16167   0.90594   0.00000  Uiso   1.00
C700   C     0.53597   0.17160   0.59406   0.00000  Uiso   1.00
C701   C     0.46269   0.16065   0.95235   0.00000  Uiso   1.00
C702   C     0.53736   0.17240   0.54764   0.00000  Uiso   1.00
C703   C     0.50048   0.16617   0.97654   0.00000  Uiso   1.00
C704   C     0.49957   0.16683   0.52346   0.00000  Uiso   1.00
C705   C     0.53916   0.17126   0.95376   0.00000  Uiso   1.00
C706   C     0.46090   0.16172   0.54624   0.00000  Uiso   1.00
C707   C     0.42449   0.15424   0.97499   0.00000  Uiso   1.00
C708   C     0.57559   0.17861   0.52501   0.00000  Uiso   1.00
C709   C     0.42422   0.15425   0.52156   0.00000  Uiso   1.00
C710   C     0.57587   0.17856   0.97844   0.00000  Uiso   1.00
H711   H     0.43590   0.15831   0.88604   0.00000  Uiso   1.00
H712   H     0.56409   0.17508   0.61397   0.00000  Uiso   1.00
H713   H     0.39494   0.14764   0.53820   0.00000  Uiso   1.00
H714   H     0.60516   0.18507   0.96180   0.00000  Uiso   1.00
C715   C     0.35473   0.12797   0.73569   0.00000  Uiso   1.00
C716   C     0.64527   0.20536   0.76431   0.00000  Uiso   1.00
C717   C     0.64532   0.12792   0.73578   0.00000  Uiso   1.00
C718   C     0.35467   0.20541   0.76422   0.00000  Uiso   1.00
H719   H     0.37114   0.09807   0.72416   0.00000  Uiso   1.00
H720   H     0.62886   0.23526   0.77584   0.00000  Uiso   1.00
H721   H     0.62895   0.09799   0.72433   0.00000  Uiso   1.00
H722   H     0.37105   0.23534   0.77568   0.00000  Uiso   1.00
C723   C     0.62415   0.16663   0.75007   0.00000  Uiso   1.00
C724   C     0.37585   0.16671   0.74993   0.00000  Uiso   1.00
C725   C     0.52709   0.02395   0.77655   0.00000  Uiso   1.00
C726   C     0.47291   0.30938   0.72345   0.00000  Uiso   1.00
C727   C     0.47291   0.02400   0.72345   0.00000  Uiso   1.00
C728   C     0.52709   0.30934   0.77655   0.00000  Uiso   1.00
H729   H     0.54875   0.04208   0.79779   0.00000  Uiso   1.00
H730   H     0.45125   0.29125   0.70221   0.00000  Uiso   1.00
H731   H     0.45125   0.04217   0.70221   0.00000  Uiso   1.00
H732   H     0.54875   0.29116   0.79779   0.00000  Uiso   1.00
N733   N     0.50000   0.28573   0.75000   0.00000  Uiso   1.00
N734   N     0.50000   0.04760   0.75000   0.00000  Uiso   1.00
C735   C     0.57928   0.17197   0.88027   0.00000  Uiso   1.00
H736   H     0.58099   0.19255   0.85024   0.00000  Uiso   1.00
O737   O     0.60922   0.14846   0.89033   0.00000  Uiso   1.00
C738   C     0.42073   0.16117   0.61970   0.00000  Uiso   1.00
H739   H     0.41906   0.14074   0.64982   0.00000  Uiso   1.00
O740   O     0.39074   0.18453   0.60951   0.00000  Uiso   1.00
C741   C     0.38371   0.14699   0.95044   0.00000  Uiso   1.00
H742   H     0.38596   0.11648   0.92885   0.00000  Uiso   1.00
H743   H     0.35716   0.14183   0.97375   0.00000  Uiso   1.00
H744   H     0.37639   0.17705   0.92953   0.00000  Uiso   1.00
C745   C     0.61639   0.18568   0.54956   0.00000  Uiso   1.00
H746   H     0.62333   0.15582   0.57095   0.00000  Uiso   1.00
H747   H     0.64309   0.19008   0.52622   0.00000  Uiso   1.00
H748   H     0.61442   0.21657   0.57070   0.00000  Uiso   1.00
O749   O     0.77226   0.20487   0.75000   0.00000  Uiso   1.00
O750   O     0.89441   0.12846   0.75001   0.00000  Uiso   1.00
O751   O     0.89441   0.20487   0.75001   0.00000  Uiso   1.00
O752   O     0.77226   0.12846   0.75000   0.00000  Uiso   1.00
C753   C     0.75332   0.16669   0.74999   0.00000  Uiso   1.00
C754   C     0.91334   0.16665   0.75001   0.00000  Uiso   1.00
O755   O     0.83333   0.20489   0.68393   0.00000  Uiso   1.00
O756   O     0.83334   0.12844   0.81608   0.00000  Uiso   1.00
O757   O     0.83334   0.20489   0.81608   0.00000  Uiso   1.00
O758   O     0.83333   0.12844   0.68393   0.00000  Uiso   1.00
C759   C     0.83296   0.16665   0.66364   0.00000  Uiso   1.00
C760   C     0.83371   0.16668   0.83636   0.00000  Uiso   1.00
Zn761  Zn    0.83333   0.21771   0.75000   0.00000  Uiso   1.00
Zn762  Zn    0.83333   0.11563   0.75000   0.00000  Uiso   1.00
C763   C     0.87315   0.17027   0.90666   0.00000  Uiso   1.00
C764   C     0.79354   0.16286   0.59333   0.00000  Uiso   1.00
C765   C     0.83505   0.16676   0.88395   0.00000  Uiso   1.00
C766   C     0.83163   0.16654   0.61605   0.00000  Uiso   1.00
C767   C     0.79738   0.16167   0.90594   0.00000  Uiso   1.00
C768   C     0.86931   0.17160   0.59406   0.00000  Uiso   1.00
C769   C     0.79602   0.16065   0.95235   0.00000  Uiso   1.00
C770   C     0.87069   0.17240   0.54764   0.00000  Uiso   1.00
C771   C     0.83382   0.16617   0.97654   0.00000  Uiso   1.00
C772   C     0.83291   0.16683   0.52346   0.00000  Uiso   1.00
C773   C     0.87249   0.17126   0.95376   0.00000  Uiso   1.00
C774   C     0.79423   0.16172   0.54624   0.00000  Uiso   1.00
C775   C     0.75782   0.15424   0.97499   0.00000  Uiso   1.00
C776   C     0.90892   0.17861   0.52501   0.00000  Uiso   1.00
C777   C     0.75755   0.15425   0.52156   0.00000  Uiso   1.00
C778   C     0.90920   0.17856   0.97844   0.00000  Uiso   1.00
H779   H     0.76924   0.15831   0.88604   0.00000  Uiso   1.00
H780   H     0.89743   0.17508   0.61397   0.00000  Uiso   1.00
H781   H     0.72828   0.14764   0.53820   0.00000  Uiso   1.00
H782   H     0.93849   0.18507   0.96180   0.00000  Uiso   1.00
C783   C     0.68806   0.12797   0.73569   0.00000  Uiso   1.00
C784   C     0.97861   0.20536   0.76431   0.00000  Uiso   1.00
C785   C     0.97866   0.12792   0.73578   0.00000  Uiso   1.00
C786   C     0.68801   0.20541   0.76422   0.00000  Uiso   1.00
H787   H     0.70447   0.09807   0.72416   0.00000  Uiso   1.00
H788   H     0.96219   0.23526   0.77584   0.00000  Uiso   1.00
H789   H     0.96229   0.09799   0.72433   0.00000  Uiso   1.00
H790   H     0.70438   0.23534   0.77568   0.00000  Uiso   1.00
C791   C     0.95748   0.16663   0.75007   0.00000  Uiso   1.00
C792   C     0.70918   0.16671   0.74993   0.00000  Uiso   1.00
C793   C     0.86042   0.02395   0.77655   0.00000  Uiso   1.00
C794   C     0.80624   0.30938   0.72345   0.00000  Uiso   1.00
C795   C     0.80624   0.02400   0.72345   0.00000  Uiso   1.00
C796   C     0.86042   0.30934   0.77655   0.00000  Uiso   1.00
H797   H     0.88208   0.04208   0.79779   0.00000  Uiso   1.00
H798   H     0.78458   0.29125   0.70221   0.00000  Uiso   1.00
H799   H     0.78458   0.04217   0.70221   0.00000  Uiso   1.00
H800   H     0.88209   0.29116   0.79779   0.00000  Uiso   1.00
N801   N     0.83333   0.28573   0.75000   0.00000  Uiso   1.00
N802   N     0.83333   0.04760   0.75000   0.00000  Uiso   1.00
C803   C     0.91262   0.17197   0.88027   0.00000  Uiso   1.00
H804   H     0.91432   0.19255   0.85024   0.00000  Uiso   1.00
O805   O     0.94255   0.14846   0.89033   0.00000  Uiso   1.00
C806   C     0.75407   0.16117   0.61970   0.00000  Uiso   1.00
H807   H     0.75239   0.14074   0.64982   0.00000  Uiso   1.00
O808   O     0.72408   0.18453   0.60951   0.00000  Uiso   1.00
C809   C     0.71704   0.14699   0.95044   0.00000  Uiso   1.00
H810   H     0.71929   0.11648   0.92885   0.00000  Uiso   1.00
H811   H     0.69049   0.14183   0.97375   0.00000  Uiso   1.00
H812   H     0.70972   0.17705   0.92953   0.00000  Uiso   1.00
C813   C     0.94973   0.18568   0.54956   0.00000  Uiso   1.00
H814   H     0.95666   0.15582   0.57095   0.00000  Uiso   1.00
H815   H     0.97642   0.19008   0.52622   0.00000  Uiso   1.00
H816   H     0.94775   0.21657   0.57070   0.00000  Uiso   1.00
O817   O     0.10559   0.53821   0.75000   0.00000  Uiso   1.00
O818   O     0.22774   0.46179   0.75001   0.00000  Uiso   1.00
O819   O     0.22774   0.53821   0.75001   0.00000  Uiso   1.00
O820   O     0.10559   0.46179   0.75000   0.00000  Uiso   1.00
C821   C     0.08665   0.50002   0.74999   0.00000  Uiso   1.00
C822   C     0.24668   0.49998   0.75001   0.00000  Uiso   1.00
O823   O     0.16666   0.53823   0.68393   0.00000  Uiso   1.00
O824   O     0.16667   0.46177   0.81608   0.00000  Uiso   1.00
O825   O     0.16667   0.53823   0.81608   0.00000  Uiso   1.00
O826   O     0.16666   0.46177   0.68393   0.00000  Uiso   1.00
C827   C     0.16629   0.49998   0.66364   0.00000  Uiso   1.00
C828   C     0.16704   0.50002   0.83636   0.00000  Uiso   1.00
Zn829  Zn    0.16667   0.55104   0.75000   0.00000  Uiso   1.00
Zn830  Zn    0.16667   0.44896   0.75000   0.00000  Uiso   1.00
C831   C     0.20649   0.50360   0.90666   0.00000  Uiso   1.00
C832   C     0.12688   0.49619   0.59333   0.00000  Uiso   1.00
C833   C     0.16838   0.50009   0.88395   0.00000  Uiso   1.00
C834   C     0.16496   0.49988   0.61605   0.00000  Uiso   1.00
C835   C     0.13071   0.49500   0.90594   0.00000  Uiso   1.00
C836   C     0.20264   0.50493   0.59406   0.00000  Uiso   1.00
C837   C     0.12936   0.49399   0.95235   0.00000  Uiso   1.00
C838   C     0.20402   0.50573   0.54764   0.00000  Uiso   1.00
C839   C     0.16715   0.49950   0.97654   0.00000  Uiso   1.00
C840   C     0.16624   0.50016   0.52346   0.00000  Uiso   1.00
C841   C     0.20582   0.50459   0.95376   0.00000  Uiso   1.00
C842   C     0.12756   0.49506   0.54624   0.00000  Uiso   1.00
C843   C     0.09116   0.48757   0.97499   0.00000  Uiso   1.00
C844   C     0.24225   0.51194   0.52501   0.00000  Uiso   1.00
C845   C     0.09088   0.48758   0.52156   0.00000  Uiso   1.00
C846   C     0.24253   0.51189   0.97844   0.00000  Uiso   1.00
H847   H     0.10257   0.49165   0.88604   0.00000  Uiso   1.00
H848   H     0.23076   0.50841   0.61397   0.00000  Uiso   1.00
H849   H     0.06161   0.48097   0.53820   0.00000  Uiso   1.00
H850   H     0.27183   0.51840   0.96180   0.00000  Uiso   1.00
C851   C     0.02139   0.46130   0.73569   0.00000  Uiso   1.00
C852   C     0.31194   0.53870   0.76431   0.00000  Uiso   1.00
C853   C     0.31199   0.46126   0.73578   0.00000  Uiso   1.00
C854   C     0.02134   0.53874   0.76422   0.00000  Uiso   1.00
H855   H     0.03781   0.43141   0.72416   0.00000  Uiso   1.00
H856   H     0.29553   0.56859   0.77584   0.00000  Uiso   1.00
H857   H     0.29562   0.43133   0.72433   0.00000  Uiso   1.00
H858   H     0.03771   0.56867   0.77568   0.00000  Uiso   1.00
C859   C     0.29082   0.49996   0.75007   0.00000  Uiso   1.00
C860   C     0.04251   0.50004   0.74993   0.00000  Uiso   1.00
C861   C     0.19376   0.35728   0.77655   0.00000  Uiso   1.00
C862   C     0.13958   0.64272   0.72345   0.00000  Uiso   1.00
C863   C     0.13958   0.35733   0.72345   0.00000  Uiso   1.00
C864   C     0.19376   0.64267   0.77655   0.00000  Uiso   1.00
H865   H     0.21542   0.37542   0.79779   0.00000  Uiso   1.00
H866   H     0.11792   0.62458   0.70221   0.00000  Uiso   1.00
H867   H     0.11791   0.37550   0.70221   0.00000  Uiso   1.00
H868   H     0.21542   0.62450   0.79779   0.00000  Uiso   1.00
N869   N     0.16667   0.61907   0.75000   0.00000  Uiso   1.00
N870   N     0.16667   0.38093   0.75000   0.00000  Uiso   1.00
C871   C     0.24595   0.50530   0.88027   0.00000  Uiso   1.00
H872   H     0.24765   0.52588   0.85024   0.00000  Uiso   1.00
O873   O     0.27588   0.48179   0.89033   0.00000  Uiso   1.00
C874   C     0.08740   0.49450   0.61970   0.00000  Uiso   1.00
H875   H     0.08573   0.47407   0.64982   0.00000  Uiso   1.00
O876   O     0.05741   0.51787   0.60951   0.00000  Uiso   1.00
C877   C     0.05038   0.48033   0.95044   0.00000  Uiso   1.00
H878   H     0.05262   0.44981   0.92885   0.00000  Uiso   1.00
H879   H     0.02383   0.47516   0.97375   0.00000  Uiso   1.00
H880   H     0.04305   0.51038   0.92953   0.00000  Uiso   1.00
C881   C     0.28306   0.51901   0.54956   0.00000  Uiso   1.00
H882   H     0.29000   0.48916   0.57095   0.00000  Uiso   1.00
H883   H     0.30975   0.52342   0.52622   0.00000  Uiso   1.00
H884   H     0.28108   0.54990   0.57070   0.00000  Uiso   1.00
O885   O     0.43892   0.53821   0.75000   0.00000  Uiso   1.00
O886   O     0.56108   0.46179   0.75001   0.00000  Uiso   1.00
O887   O     0.56108   0.53821   0.75001   0.00000  Uiso   1.00
O888   O     0.43892   0.46179   0.75000   0.00000  Uiso   1.00
C889   C     0.41999   0.50002   0.74999   0.00000  Uiso   1.00
C890   C     0.58001   0.49998   0.75001   0.00000  Uiso   1.00
O891   O     0.49999   0.53823   0.68393   0.00000  Uiso   1.00
O892   O     0.50001   0.46177   0.81608   0.00000  Uiso   1.00
O893   O     0.50001   0.53823   0.81608   0.00000  Uiso   1.00
O894   O     0.49999   0.46177   0.68393   0.00000  Uiso   1.00
C895   C     0.49962   0.49998   0.66364   0.00000  Uiso   1.00
C896   C     0.50037   0.50002   0.83636   0.00000  Uiso   1.00
Zn897  Zn    0.50000   0.55104   0.75000   0.00000  Uiso   1.00
Zn898  Zn    0.50000   0.44896   0.75000   0.00000  Uiso   1.00
C899   C     0.53982   0.50360   0.90666   0.00000  Uiso   1.00
C900   C     0.46021   0.49619   0.59333   0.00000  Uiso   1.00
C901   C     0.50171   0.50009   0.88395   0.00000  Uiso   1.00
C902   C     0.49830   0.49988   0.61605   0.00000  Uiso   1.00
C903   C     0.46404   0.49500   0.90594   0.00000  Uiso   1.00
C904   C     0.53597   0.50493   0.59406   0.00000  Uiso   1.00
C905   C     0.46269   0.49399   0.95235   0.00000  Uiso   1.00
C906   C     0.53736   0.50573   0.54764   0.00000  Uiso   1.00
C907   C     0.50048   0.49950   0.97654   0.00000  Uiso   1.00
C908   C     0.49957   0.50016   0.52346   0.00000  Uiso   1.00
C909   C     0.53916   0.50459   0.95376   0.00000  Uiso   1.00
C910   C     0.46090   0.49506   0.54624   0.00000  Uiso   1.00
C911   C     0.42449   0.48757   0.97499   0.00000  Uiso   1.00
C912   C     0.57559   0.51194   0.52501   0.00000  Uiso   1.00
C913   C     0.42422   0.48758   0.52156   0.00000  Uiso   1.00
C914   C     0.57587   0.51189   0.97844   0.00000  Uiso   1.00
H915   H     0.43590   0.49165   0.88604   0.00000  Uiso   1.00
H916   H     0.56409   0.50841   0.61397   0.00000  Uiso   1.00
H917   H     0.39494   0.48097   0.53820   0.00000  Uiso   1.00
H918   H     0.60516   0.51840   0.96180   0.00000  Uiso   1.00
C919   C     0.35473   0.46130   0.73569   0.00000  Uiso   1.00
C920   C     0.64527   0.53870   0.76431   0.00000  Uiso   1.00
C921   C     0.64532   0.46126   0.73578   0.00000  Uiso   1.00
C922   C     0.35467   0.53874   0.76422   0.00000  Uiso   1.00
H923   H     0.37114   0.43141   0.72416   0.00000  Uiso   1.00
H924   H     0.62886   0.56859   0.77584   0.00000  Uiso   1.00
H925   H     0.62895   0.43133   0.72433   0.00000  Uiso   1.00
H926   H     0.37105   0.56867   0.77568   0.00000  Uiso   1.00
C927   C     0.62415   0.49996   0.75007   0.00000  Uiso   1.00
C928   C     0.37585   0.50004   0.74993   0.00000  Uiso   1.00
C929   C     0.52709   0.35728   0.77655   0.00000  Uiso   1.00
C930   C     0.47291   0.64272   0.72345   0.00000  Uiso   1.00
C931   C     0.47291   0.35733   0.72345   0.00000  Uiso   1.00
C932   C     0.52709   0.64267   0.77655   0.00000  Uiso   1.00
H933   H     0.54875   0.37542   0.79779   0.00000  Uiso   1.00
H934   H     0.45125   0.62458   0.70221   0.00000  Uiso   1.00
H935   H     0.45125   0.37550   0.70221   0.00000  Uiso   1.00
H936   H     0.54875   0.62450   0.79779   0.00000  Uiso   1.00
N937   N     0.50000   0.61907   0.75000   0.00000  Uiso   1.00
N938   N     0.50000   0.38093   0.75000   0.00000  Uiso   1.00
C939   C     0.57928   0.50530   0.88027   0.00000  Uiso   1.00
H940   H     0.58099   0.52588   0.85024   0.00000  Uiso   1.00
O941   O     0.60922   0.48179   0.89033   0.00000  Uiso   1.00
C942   C     0.42073   0.49450   0.61970   0.00000  Uiso   1.00
H943   H     0.41906   0.47407   0.64982   0.00000  Uiso   1.00
O944   O     0.39074   0.51787   0.60951   0.00000  Uiso   1.00
C945   C     0.38371   0.48033   0.95044   0.00000  Uiso   1.00
H946   H     0.38596   0.44981   0.92885   0.00000  Uiso   1.00
H947   H     0.35716   0.47516   0.97375   0.00000  Uiso   1.00
H948   H     0.37639   0.51038   0.92953   0.00000  Uiso   1.00
C949   C     0.61639   0.51901   0.54956   0.00000  Uiso   1.00
H950   H     0.62333   0.48916   0.57095   0.00000  Uiso   1.00
H951   H     0.64309   0.52342   0.52622   0.00000  Uiso   1.00
H952   H     0.61442   0.54990   0.57070   0.00000  Uiso   1.00
O953   O     0.77226   0.53821   0.75000   0.00000  Uiso   1.00
O954   O     0.89441   0.46179   0.75001   0.00000  Uiso   1.00
O955   O     0.89441   0.53821   0.75001   0.00000  Uiso   1.00
O956   O     0.77226   0.46179   0.75000   0.00000  Uiso   1.00
C957   C     0.75332   0.50002   0.74999   0.00000  Uiso   1.00
C958   C     0.91334   0.49998   0.75001   0.00000  Uiso   1.00
O959   O     0.83333   0.53823   0.68393   0.00000  Uiso   1.00
O960   O     0.83334   0.46177   0.81608   0.00000  Uiso   1.00
O961   O     0.83334   0.53823   0.81608   0.00000  Uiso   1.00
O962   O     0.83333   0.46177   0.68393   0.00000  Uiso   1.00
C963   C     0.83296   0.49998   0.66364   0.00000  Uiso   1.00
C964   C     0.83371   0.50002   0.83636   0.00000  Uiso   1.00
Zn965  Zn    0.83333   0.55104   0.75000   0.00000  Uiso   1.00
Zn966  Zn    0.83333   0.44896   0.75000   0.00000  Uiso   1.00
C967   C     0.87315   0.50360   0.90666   0.00000  Uiso   1.00
C968   C     0.79354   0.49619   0.59333   0.00000  Uiso   1.00
C969   C     0.83505   0.50009   0.88395   0.00000  Uiso   1.00
C970   C     0.83163   0.49988   0.61605   0.00000  Uiso   1.00
C971   C     0.79738   0.49500   0.90594   0.00000  Uiso   1.00
C972   C     0.86931   0.50493   0.59406   0.00000  Uiso   1.00
C973   C     0.79602   0.49399   0.95235   0.00000  Uiso   1.00
C974   C     0.87069   0.50573   0.54764   0.00000  Uiso   1.00
C975   C     0.83382   0.49950   0.97654   0.00000  Uiso   1.00
C976   C     0.83291   0.50016   0.52346   0.00000  Uiso   1.00
C977   C     0.87249   0.50459   0.95376   0.00000  Uiso   1.00
C978   C     0.79423   0.49506   0.54624   0.00000  Uiso   1.00
C979   C     0.75782   0.48757   0.97499   0.00000  Uiso   1.00
C980   C     0.90892   0.51194   0.52501   0.00000  Uiso   1.00
C981   C     0.75755   0.48758   0.52156   0.00000  Uiso   1.00
C982   C     0.90920   0.51189   0.97844   0.00000  Uiso   1.00
H983   H     0.76924   0.49165   0.88604   0.00000  Uiso   1.00
H984   H     0.89743   0.50841   0.61397   0.00000  Uiso   1.00
H985   H     0.72828   0.48097   0.53820   0.00000  Uiso   1.00
H986   H     0.93849   0.51840   0.96180   0.00000  Uiso   1.00
C987   C     0.68806   0.46130   0.73569   0.00000  Uiso   1.00
C988   C     0.97861   0.53870   0.76431   0.00000  Uiso   1.00
C989   C     0.97866   0.46126   0.73578   0.00000  Uiso   1.00
C990   C     0.68801   0.53874   0.76422   0.00000  Uiso   1.00
H991   H     0.70447   0.43141   0.72416   0.00000  Uiso   1.00
H992   H     0.96219   0.56859   0.77584   0.00000  Uiso   1.00
H993   H     0.96229   0.43133   0.72433   0.00000  Uiso   1.00
H994   H     0.70438   0.56867   0.77568   0.00000  Uiso   1.00
C995   C     0.95748   0.49996   0.75007   0.00000  Uiso   1.00
C996   C     0.70918   0.50004   0.74993   0.00000  Uiso   1.00
C997   C     0.86042   0.35728   0.77655   0.00000  Uiso   1.00
C998   C     0.80624   0.64272   0.72345   0.00000  Uiso   1.00
C999   C     0.80624   0.35733   0.72345   0.00000  Uiso   1.00
C1000  C     0.86042   0.64267   0.77655   0.00000  Uiso   1.00
H1001  H     0.88208   0.37542   0.79779   0.00000  Uiso   1.00
H1002  H     0.78458   0.62458   0.70221   0.00000  Uiso   1.00
H1003  H     0.78458   0.37550   0.70221   0.00000  Uiso   1.00
H1004  H     0.88209   0.62450   0.79779   0.00000  Uiso   1.00
N1005  N     0.83333   0.61907   0.75000   0.00000  Uiso   1.00
N1006  N     0.83333   0.38093   0.75000   0.00000  Uiso   1.00
C1007  C     0.91262   0.50530   0.88027   0.00000  Uiso   1.00
H1008  H     0.91432   0.52588   0.85024   0.00000  Uiso   1.00
O1009  O     0.94255   0.48179   0.89033   0.00000  Uiso   1.00
C1010  C     0.75407   0.49450   0.61970   0.00000  Uiso   1.00
H1011  H     0.75239   0.47407   0.64982   0.00000  Uiso   1.00
O1012  O     0.72408   0.51787   0.60951   0.00000  Uiso   1.00
C1013  C     0.71704   0.48033   0.95044   0.00000  Uiso   1.00
H1014  H     0.71929   0.44981   0.92885   0.00000  Uiso   1.00
H1015  H     0.69049   0.47516   0.97375   0.00000  Uiso   1.00
H1016  H     0.70972   0.51038   0.92953   0.00000  Uiso   1.00
C1017  C     0.94973   0.51901   0.54956   0.00000  Uiso   1.00
H1018  H     0.95666   0.48916   0.57095   0.00000  Uiso   1.00
H1019  H     0.97642   0.52342   0.52622   0.00000  Uiso   1.00
H1020  H     0.94775   0.54990   0.57070   0.00000  Uiso   1.00
O1021  O     0.10559   0.87154   0.75000   0.00000  Uiso   1.00
O1022  O     0.22774   0.79513   0.75001   0.00000  Uiso   1.00
O1023  O     0.22774   0.87154   0.75001   0.00000  Uiso   1.00
O1024  O     0.10559   0.79513   0.75000   0.00000  Uiso   1.00
C1025  C     0.08665   0.83335   0.74999   0.00000  Uiso   1.00
C1026  C     0.24668   0.83331   0.75001   0.00000  Uiso   1.00
O1027  O     0.16666   0.87156   0.68393   0.00000  Uiso   1.00
O1028  O     0.16667   0.79511   0.81608   0.00000  Uiso   1.00
O1029  O     0.16667   0.87156   0.81608   0.00000  Uiso   1.00
O1030  O     0.16666   0.79511   0.68393   0.00000  Uiso   1.00
C1031  C     0.16629   0.83331   0.66364   0.00000  Uiso   1.00
C1032  C     0.16704   0.83335   0.83636   0.00000  Uiso   1.00
Zn1033 Zn    0.16667   0.88437   0.75000   0.00000  Uiso   1.00
Zn1034 Zn    0.16667   0.78229   0.75000   0.00000  Uiso   1.00
C1035  C     0.20649   0.83693   0.90666   0.00000  Uiso   1.00
C1036  C     0.12688   0.82953   0.59333   0.00000  Uiso   1.00
C1037  C     0.16838   0.83343   0.88395   0.00000  Uiso   1.00
C1038  C     0.16496   0.83321   0.61605   0.00000  Uiso   1.00
C1039  C     0.13071   0.82833   0.90594   0.00000  Uiso   1.00
C1040  C     0.20264   0.83827   0.59406   0.00000  Uiso   1.00
C1041  C     0.12936   0.82732   0.95235   0.00000  Uiso   1.00
C1042  C     0.20402   0.83906   0.54764   0.00000  Uiso   1.00
C1043  C     0.16715   0.83284   0.97654   0.00000  Uiso   1.00
C1044  C     0.16624   0.83350   0.52346   0.00000  Uiso   1.00
C1045  C     0.20582   0.83793   0.95376   0.00000  Uiso   1.00
C1046  C     0.12756   0.82839   0.54624   0.00000  Uiso   1.00
C1047  C     0.09116   0.82091   0.97499   0.00000  Uiso   1.00
C1048  C     0.24225   0.84527   0.52501   0.00000  Uiso   1.00
C1049  C     0.09088   0.82092   0.52156   0.00000  Uiso   1.00
C1050  C     0.24253   0.84523   0.97844   0.00000  Uiso   1.00
H1051  H     0.10257   0.82498   0.88604   0.00000  Uiso   1.00
H1052  H     0.23076   0.84175   0.61397   0.00000  Uiso   1.00
H1053  H     0.06161   0.81431   0.53820   0.00000  Uiso   1.00
H1054  H     0.27183   0.85173   0.96180   0.00000  Uiso   1.00
C1055  C     0.02139   0.79464   0.73569   0.00000  Uiso   1.00
C1056  C     0.31194   0.87203   0.76431   0.00000  Uiso   1.00
C1057  C     0.31199   0.79459   0.73578   0.00000  Uiso   1.00
C1058  C     0.02134   0.87208   0.76422   0.00000  Uiso   1.00
H1059  H     0.03781   0.76474   0.72416   0.00000  Uiso   1.00
H1060  H     0.29553   0.90193   0.77584   0.00000  Uiso   1.00
H1061  H     0.29562   0.76466   0.72433   0.00000  Uiso   1.00
H1062  H     0.03771   0.90201   0.77568   0.00000  Uiso   1.00
C1063  C     0.29082   0.83329   0.75007   0.00000  Uiso   1.00
C1064  C     0.04251   0.83337   0.74993   0.00000  Uiso   1.00
C1065  C     0.19376   0.69062   0.77655   0.00000  Uiso   1.00
C1066  C     0.13958   0.97605   0.72345   0.00000  Uiso   1.00
C1067  C     0.13958   0.69066   0.72345   0.00000  Uiso   1.00
C1068  C     0.19376   0.97600   0.77655   0.00000  Uiso   1.00
H1069  H     0.21542   0.70875   0.79779   0.00000  Uiso   1.00
H1070  H     0.11792   0.95792   0.70221   0.00000  Uiso   1.00
H1071  H     0.11791   0.70884   0.70221   0.00000  Uiso   1.00
H1072  H     0.21542   0.95783   0.79779   0.00000  Uiso   1.00
N1073  N     0.16667   0.95240   0.75000   0.00000  Uiso   1.00
N1074  N     0.16667   0.71427   0.75000   0.00000  Uiso   1.00
C1075  C     0.24595   0.83863   0.88027   0.00000  Uiso   1.00
H1076  H     0.24765   0.85921   0.85024   0.00000  Uiso   1.00
O1077  O     0.27588   0.81512   0.89033   0.00000  Uiso   1.00
C1078  C     0.08740   0.82784   0.61970   0.00000  Uiso   1.00
H1079  H     0.08573   0.80741   0.64982   0.00000  Uiso   1.00
O1080  O     0.05741   0.85120   0.60951   0.00000  Uiso   1.00
C1081  C     0.05038   0.81366   0.95044   0.00000  Uiso   1.00
H1082  H     0.05262   0.78315   0.92885   0.00000  Uiso   1.00
H1083  H     0.02383   0.80850   0.97375   0.00000  Uiso   1.00
H1084  H     0.04305   0.84371   0.92953   0.00000  Uiso   1.00
C1085  C     0.28306   0.85234   0.54956   0.00000  Uiso   1.00
H1086  H     0.29000   0.82249   0.57095   0.00000  Uiso   1.00
H1087  H     0.30975   0.85675   0.52622   0.00000  Uiso   1.00
H1088  H     0.28108   0.88323   0.57070   0.00000  Uiso   1.00
O1089  O     0.43892   0.87154   0.75000   0.00000  Uiso   1.00
O1090  O     0.56108   0.79513   0.75001   0.00000  Uiso   1.00
O1091  O     0.56108   0.87154   0.75001   0.00000  Uiso   1.00
O1092  O     0.43892   0.79513   0.75000   0.00000  Uiso   1.00
C1093  C     0.41999   0.83335   0.74999   0.00000  Uiso   1.00
C1094  C     0.58001   0.83331   0.75001   0.00000  Uiso   1.00
O1095  O     0.49999   0.87156   0.68393   0.00000  Uiso   1.00
O1096  O     0.50001   0.79511   0.81608   0.00000  Uiso   1.00
O1097  O     0.50001   0.87156   0.81608   0.00000  Uiso   1.00
O1098  O     0.49999   0.79511   0.68393   0.00000  Uiso   1.00
C1099  C     0.49962   0.83331   0.66364   0.00000  Uiso   1.00
C1100  C     0.50037   0.83335   0.83636   0.00000  Uiso   1.00
Zn1101 Zn    0.50000   0.88437   0.75000   0.00000  Uiso   1.00
Zn1102 Zn    0.50000   0.78229   0.75000   0.00000  Uiso   1.00
C1103  C     0.53982   0.83693   0.90666   0.00000  Uiso   1.00
C1104  C     0.46021   0.82953   0.59333   0.00000  Uiso   1.00
C1105  C     0.50171   0.83343   0.88395   0.00000  Uiso   1.00
C1106  C     0.49830   0.83321   0.61605   0.00000  Uiso   1.00
C1107  C     0.46404   0.82833   0.90594   0.00000  Uiso   1.00
C1108  C     0.53597   0.83827   0.59406   0.00000  Uiso   1.00
C1109  C     0.46269   0.82732   0.95235   0.00000  Uiso   1.00
C1110  C     0.53736   0.83906   0.54764   0.00000  Uiso   1.00
C1111  C     0.50048   0.83284   0.97654   0.00000  Uiso   1.00
C1112  C     0.49957   0.83350   0.52346   0.00000  Uiso   1.00
C1113  C     0.53916   0.83793   0.95376   0.00000  Uiso   1.00
C1114  C     0.46090   0.82839   0.54624   0.00000  Uiso   1.00
C1115  C     0.42449   0.82091   0.97499   0.00000  Uiso   1.00
C1116  C     0.57559   0.84527   0.52501   0.00000  Uiso   1.00
C1117  C     0.42422   0.82092   0.52156   0.00000  Uiso   1.00
C1118  C     0.57587   0.84523   0.97844   0.00000  Uiso   1.00
H1119  H     0.43590   0.82498   0.88604   0.00000  Uiso   1.00
H1120  H     0.56409   0.84175   0.61397   0.00000  Uiso   1.00
H1121  H     0.39494   0.81431   0.53820   0.00000  Uiso   1.00
H1122  H     0.60516   0.85173   0.96180   0.00000  Uiso   1.00
C1123  C     0.35473   0.79464   0.73569   0.00000  Uiso   1.00
C1124  C     0.64527   0.87203   0.76431   0.00000  Uiso   1.00
C1125  C     0.64532   0.79459   0.73578   0.00000  Uiso   1.00
C1126  C     0.35467   0.87208   0.76422   0.00000  Uiso   1.00
H1127  H     0.37114   0.76474   0.72416   0.00000  Uiso   1.00
H1128  H     0.62886   0.90193   0.77584   0.00000  Uiso   1.00
H1129  H     0.62895   0.76466   0.72433   0.00000  Uiso   1.00
H1130  H     0.37105   0.90201   0.77568   0.00000  Uiso   1.00
C1131  C     0.62415   0.83329   0.75007   0.00000  Uiso   1.00
C1132  C     0.37585   0.83337   0.74993   0.00000  Uiso   1.00
C1133  C     0.52709   0.69062   0.77655   0.00000  Uiso   1.00
C1134  C     0.47291   0.97605   0.72345   0.00000  Uiso   1.00
C1135  C     0.47291   0.69066   0.72345   0.00000  Uiso   1.00
C1136  C     0.52709   0.97600   0.77655   0.00000  Uiso   1.00
H1137  H     0.54875   0.70875   0.79779   0.00000  Uiso   1.00
H1138  H     0.45125   0.95792   0.70221   0.00000  Uiso   1.00
H1139  H     0.45125   0.70884   0.70221   0.00000  Uiso   1.00
H1140  H     0.54875   0.95783   0.79779   0.00000  Uiso   1.00
N1141  N     0.50000   0.95240   0.75000   0.00000  Uiso   1.00
N1142  N     0.50000   0.71427   0.75000   0.00000  Uiso   1.00
C1143  C     0.57928   0.83863   0.88027   0.00000  Uiso   1.00
H1144  H     0.58099   0.85921   0.85024   0.00000  Uiso   1.00
O1145  O     0.60922   0.81512   0.89033   0.00000  Uiso   1.00
C1146  C     0.42073   0.82784   0.61970   0.00000  Uiso   1.00
H1147  H     0.41906   0.80741   0.64982   0.00000  Uiso   1.00
O1148  O     0.39074   0.85120   0.60951   0.00000  Uiso   1.00
C1149  C     0.38371   0.81366   0.95044   0.00000  Uiso   1.00
H1150  H     0.38596   0.78315   0.92885   0.00000  Uiso   1.00
H1151  H     0.35716   0.80850   0.97375   0.00000  Uiso   1.00
H1152  H     0.37639   0.84371   0.92953   0.00000  Uiso   1.00
C1153  C     0.61639   0.85234   0.54956   0.00000  Uiso   1.00
H1154  H     0.62333   0.82249   0.57095   0.00000  Uiso   1.00
H1155  H     0.64309   0.85675   0.52622   0.00000  Uiso   1.00
H1156  H     0.61442   0.88323   0.57070   0.00000  Uiso   1.00
O1157  O     0.77226   0.87154   0.75000   0.00000  Uiso   1.00
O1158  O     0.89441   0.79513   0.75001   0.00000  Uiso   1.00
O1159  O     0.89441   0.87154   0.75001   0.00000  Uiso   1.00
O1160  O     0.77226   0.79513   0.75000   0.00000  Uiso   1.00
C1161  C     0.75332   0.83335   0.74999   0.00000  Uiso   1.00
C1162  C     0.91334   0.83331   0.75001   0.00000  Uiso   1.00
O1163  O     0.83333   0.87156   0.68393   0.00000  Uiso   1.00
O1164  O     0.83334   0.79511   0.81608   0.00000  Uiso   1.00
O1165  O     0.83334   0.87156   0.81608   0.00000  Uiso   1.00
O1166  O     0.83333   0.79511   0.68393   0.00000  Uiso   1.00
C1167  C     0.83296   0.83331   0.66364   0.00000  Uiso   1.00
C1168  C     0.83371   0.83335   0.83636   0.00000  Uiso   1.00
Zn1169 Zn    0.83333   0.88437   0.75000   0.00000  Uiso   1.00
Zn1170 Zn    0.83333   0.78229   0.75000   0.00000  Uiso   1.00
C1171  C     0.87315   0.83693   0.90666   0.00000  Uiso   1.00
C1172  C     0.79354   0.82953   0.59333   0.00000  Uiso   1.00
C1173  C     0.83505   0.83343   0.88395   0.00000  Uiso   1.00
C1174  C     0.83163   0.83321   0.61605   0.00000  Uiso   1.00
C1175  C     0.79738   0.82833   0.90594   0.00000  Uiso   1.00
C1176  C     0.86931   0.83827   0.59406   0.00000  Uiso   1.00
C1177  C     0.79602   0.82732   0.95235   0.00000  Uiso   1.00
C1178  C     0.87069   0.83906   0.54764   0.00000  Uiso   1.00
C1179  C     0.83382   0.83284   0.97654   0.00000  Uiso   1.00
C1180  C     0.83291   0.83350   0.52346   0.00000  Uiso   1.00
C1181  C     0.87249   0.83793   0.95376   0.00000  Uiso   1.00
C1182  C     0.79423   0.82839   0.54624   0.00000  Uiso   1.00
C1183  C     0.75782   0.82091   0.97499   0.00000  Uiso   1.00
C1184  C     0.90892   0.84527   0.52501   0.00000  Uiso   1.00
C1185  C     0.75755   0.82092   0.52156   0.00000  Uiso   1.00
C1186  C     0.90920   0.84523   0.97844   0.00000  Uiso   1.00
H1187  H     0.76924   0.82498   0.88604   0.00000  Uiso   1.00
H1188  H     0.89743   0.84175   0.61397   0.00000  Uiso   1.00
H1189  H     0.72828   0.81431   0.53820   0.00000  Uiso   1.00
H1190  H     0.93849   0.85173   0.96180   0.00000  Uiso   1.00
C1191  C     0.68806   0.79464   0.73569   0.00000  Uiso   1.00
C1192  C     0.97861   0.87203   0.76431   0.00000  Uiso   1.00
C1193  C     0.97866   0.79459   0.73578   0.00000  Uiso   1.00
C1194  C     0.68801   0.87208   0.76422   0.00000  Uiso   1.00
H1195  H     0.70447   0.76474   0.72416   0.00000  Uiso   1.00
H1196  H     0.96219   0.90193   0.77584   0.00000  Uiso   1.00
H1197  H     0.96229   0.76466   0.72433   0.00000  Uiso   1.00
H1198  H     0.70438   0.90201   0.77568   0.00000  Uiso   1.00
C1199  C     0.95748   0.83329   0.75007   0.00000  Uiso   1.00
C1200  C     0.70918   0.83337   0.74993   0.00000  Uiso   1.00
C1201  C     0.86042   0.69062   0.77655   0.00000  Uiso   1.00
C1202  C     0.80624   0.97605   0.72345   0.00000  Uiso   1.00
C1203  C     0.80624   0.69066   0.72345   0.00000  Uiso   1.00
C1204  C     0.86042   0.97600   0.77655   0.00000  Uiso   1.00
H1205  H     0.88208   0.70875   0.79779   0.00000  Uiso   1.00
H1206  H     0.78458   0.95792   0.70221   0.00000  Uiso   1.00
H1207  H     0.78458   0.70884   0.70221   0.00000  Uiso   1.00
H1208  H     0.88209   0.95783   0.79779   0.00000  Uiso   1.00
N1209  N     0.83333   0.95240   0.75000   0.00000  Uiso   1.00
N1210  N     0.83333   0.71427   0.75000   0.00000  Uiso   1.00
C1211  C     0.91262   0.83863   0.88027   0.00000  Uiso   1.00
H1212  H     0.91432   0.85921   0.85024   0.00000  Uiso   1.00
O1213  O     0.94255   0.81512   0.89033   0.00000  Uiso   1.00
C1214  C     0.75407   0.82784   0.61970   0.00000  Uiso   1.00
H1215  H     0.75239   0.80741   0.64982   0.00000  Uiso   1.00
O1216  O     0.72408   0.85120   0.60951   0.00000  Uiso   1.00
C1217  C     0.71704   0.81366   0.95044   0.00000  Uiso   1.00
H1218  H     0.71929   0.78315   0.92885   0.00000  Uiso   1.00
H1219  H     0.69049   0.80850   0.97375   0.00000  Uiso   1.00
H1220  H     0.70972   0.84371   0.92953   0.00000  Uiso   1.00
C1221  C     0.94973   0.85234   0.54956   0.00000  Uiso   1.00
H1222  H     0.95666   0.82249   0.57095   0.00000  Uiso   1.00
H1223  H     0.97642   0.85675   0.52622   0.00000  Uiso   1.00
H1224  H     0.94775   0.88323   0.57070   0.00000  Uiso   1.00
loop_
_geom_bond_atom_site_label_1
_geom_bond_atom_site_label_2
_geom_bond_distance
_geom_bond_site_symmetry_2
_ccdc_geom_bond_type
O1     C5      1.282   .     A
O1     Zn13    1.994   .     S
O2     C6      1.282   .     A
O2     Zn14    1.994   .     S
O3     Zn13    1.993   .     S
O3     C6      1.282   .     A
O4     Zn14    1.993   .     S
O4     C5      1.282   .     A
C5     C44     1.415   .     S
C6     C43     1.415   .     S
O7     C11     1.282   .     A
O7     Zn13    2.008   .     S
O8     C12     1.282   .     A
O8     Zn14    2.008   .     S
O9     C12     1.282   .     A
O9     Zn13    2.009   .     S
O10    C11     1.281   .     A
O10    Zn14    2.009   .     S
C11    C18     1.421   .     S
C12    C17     1.421   .     S
Zn13   N53     2.010   .     S
Zn14   N54     2.010   .     S
C15    C55     1.492   .     S
C15    C25     1.406   .     A
C15    C17     1.400   .     A
C16    C18     1.400   .     A
C16    C26     1.406   .     A
C16    C58     1.492   .     S
C17    C19     1.383   .     A
C18    C20     1.383   .     A
C19    H31     1.084   .     S
C19    C21     1.387   .     A
C20    C22     1.387   .     A
C20    H32     1.084   .     S
C21    C27     1.412   .     A
C21    C23     1.419   .     A
C22    C28     1.412   .     A
C22    C24     1.419   .     A
C23    C25     1.423   .     A
C23    C636    1.401   .     S
C24    C26     1.423   .     A
C24    C635    1.401   1_554 S
C25    C30     1.404   .     A
C26    C29     1.404   .     A
C27    C61     1.513   .     S
C27    C641    1.390   .     S
C28    C65     1.513   .     S
C28    C642    1.390   1_554 S
C29    H33     1.080   .     S
C29    C639    1.390   1_554 S
C30    H34     1.080   .     S
C30    C640    1.390   .     S
C35    H39     1.084   .     S
C35    C44     1.396   .     A
C35    C173    1.370   1_455 S
C36    H40     1.084   .     S
C36    C43     1.396   .     A
C36    C106    1.369   .     S
C37    C43     1.396   .     A
C37    H41     1.084   .     S
C37    C103    1.370   .     S
C38    C44     1.396   .     A
C38    H42     1.084   .     S
C38    C172    1.369   1_455 S
C45    H49     1.082   .     S
C45    N54     1.367   .     A
C45    C456    1.417   1_545 S
C46    H50     1.082   .     S
C46    N53     1.367   .     A
C46    C251    1.417   .     S
C47    N54     1.367   .     A
C47    H51     1.082   .     S
C47    C454    1.417   1_545 S
C48    N53     1.367   .     A
C48    H52     1.082   .     S
C48    C249    1.417   .     S
C55    H56     1.085   .     S
C55    O57     1.221   .     D
C58    O60     1.221   .     D
C58    H59     1.085   .     S
C61    H64     1.110   .     S
C61    H62     1.110   .     S
C61    H63     1.111   .     S
C65    H68     1.111   .     S
C65    H66     1.111   .     S
C65    H67     1.112   .     S
O69    C73     1.282   .     A
O69    Zn81    1.994   .     S
O70    C74     1.282   .     A
O70    Zn82    1.994   .     S
O71    Zn81    1.993   .     S
O71    C74     1.282   .     A
O72    Zn82    1.993   .     S
O72    C73     1.282   .     A
C73    C112    1.415   .     S
C74    C111    1.415   .     S
O75    C79     1.282   .     A
O75    Zn81    2.008   .     S
O76    C80     1.282   .     A
O76    Zn82    2.008   .     S
O77    C80     1.282   .     A
O77    Zn81    2.009   .     S
O78    C79     1.281   .     A
O78    Zn82    2.009   .     S
C79    C86     1.421   .     S
C80    C85     1.421   .     S
Zn81   N121    2.010   .     S
Zn82   N122    2.010   .     S
C83    C123    1.492   .     S
C83    C93     1.406   .     A
C83    C85     1.400   .     A
C84    C86     1.400   .     A
C84    C94     1.406   .     A
C84    C126    1.492   .     S
C85    C87     1.383   .     A
C86    C88     1.383   .     A
C87    H99     1.084   .     S
C87    C89     1.387   .     A
C88    C90     1.387   .     A
C88    H100    1.084   .     S
C89    C95     1.412   .     A
C89    C91     1.419   .     A
C90    C96     1.412   .     A
C90    C92     1.419   .     A
C91    C93     1.423   .     A
C91    C704    1.401   .     S
C92    C94     1.423   .     A
C92    C703    1.401   1_554 S
C93    C98     1.404   .     A
C94    C97     1.404   .     A
C95    C129    1.513   .     S
C95    C709    1.390   .     S
C96    C133    1.513   .     S
C96    C710    1.390   1_554 S
C97    H101    1.080   .     S
C97    C707    1.390   1_554 S
C98    H102    1.080   .     S
C98    C708    1.390   .     S
C103   H107    1.084   .     S
C103   C112    1.396   .     A
C104   H108    1.084   .     S
C104   C111    1.396   .     A
C104   C174    1.369   .     S
C105   C111    1.396   .     A
C105   H109    1.084   .     S
C105   C171    1.370   .     S
C106   C112    1.396   .     A
C106   H110    1.084   .     S
C113   H117    1.082   .     S
C113   N122    1.367   .     A
C113   C524    1.417   1_545 S
C114   H118    1.082   .     S
C114   N121    1.367   .     A
C114   C319    1.417   .     S
C115   N122    1.367   .     A
C115   H119    1.082   .     S
C115   C522    1.417   1_545 S
C116   N121    1.367   .     A
C116   H120    1.082   .     S
C116   C317    1.417   .     S
C123   H124    1.085   .     S
C123   O125    1.221   .     D
C126   O128    1.221   .     D
C126   H127    1.085   .     S
C129   H132    1.110   .     S
C129   H130    1.110   .     S
C129   H131    1.111   .     S
C133   H136    1.111   .     S
C133   H134    1.111   .     S
C133   H135    1.112   .     S
O137   C141    1.282   .     A
O137   Zn149   1.994   .     S
O138   C142    1.282   .     A
O138   Zn150   1.994   .     S
O139   Zn149   1.993   .     S
O139   C142    1.282   .     A
O140   Zn150   1.993   .     S
O140   C141    1.282   .     A
C141   C180    1.415   .     S
C142   C179    1.415   .     S
O143   C147    1.282   .     A
O143   Zn149   2.008   .     S
O144   C148    1.282   .     A
O144   Zn150   2.008   .     S
O145   C148    1.282   .     A
O145   Zn149   2.009   .     S
O146   C147    1.281   .     A
O146   Zn150   2.009   .     S
C147   C154    1.421   .     S
C148   C153    1.421   .     S
Zn149  N189    2.010   .     S
Zn150  N190    2.010   .     S
C151   C191    1.492   .     S
C151   C161    1.406   .     A
C151   C153    1.400   .     A
C152   C154    1.400   .     A
C152   C162    1.406   .     A
C152   C194    1.492   .     S
C153   C155    1.383   .     A
C154   C156    1.383   .     A
C155   H167    1.084   .     S
C155   C157    1.387   .     A
C156   C158    1.387   .     A
C156   H168    1.084   .     S
C157   C163    1.412   .     A
C157   C159    1.419   .     A
C158   C164    1.412   .     A
C158   C160    1.419   .     A
C159   C161    1.423   .     A
C159   C772    1.401   .     S
C160   C162    1.423   .     A
C160   C771    1.401   1_554 S
C161   C166    1.404   .     A
C162   C165    1.404   .     A
C163   C197    1.513   .     S
C163   C777    1.390   .     S
C164   C201    1.513   .     S
C164   C778    1.390   1_554 S
C165   H169    1.080   .     S
C165   C775    1.390   1_554 S
C166   H170    1.080   .     S
C166   C776    1.390   .     S
C171   H175    1.084   .     S
C171   C180    1.396   .     A
C172   H176    1.084   .     S
C172   C179    1.396   .     A
C172   C38     1.369   1_655 S
C173   C179    1.396   .     A
C173   H177    1.084   .     S
C173   C35     1.370   1_655 S
C174   C180    1.396   .     A
C174   H178    1.084   .     S
C181   H185    1.082   .     S
C181   N190    1.367   .     A
C181   C592    1.417   1_545 S
C182   H186    1.082   .     S
C182   N189    1.367   .     A
C182   C387    1.417   .     S
C183   N190    1.367   .     A
C183   H187    1.082   .     S
C183   C590    1.417   1_545 S
C184   N189    1.367   .     A
C184   H188    1.082   .     S
C184   C385    1.417   .     S
C191   H192    1.085   .     S
C191   O193    1.221   .     D
C194   O196    1.221   .     D
C194   H195    1.085   .     S
C197   H200    1.110   .     S
C197   H198    1.110   .     S
C197   H199    1.111   .     S
C201   H204    1.111   .     S
C201   H202    1.111   .     S
C201   H203    1.112   .     S
O205   C209    1.282   .     A
O205   Zn217   1.994   .     S
O206   C210    1.282   .     A
O206   Zn218   1.994   .     S
O207   Zn217   1.993   .     S
O207   C210    1.282   .     A
O208   Zn218   1.993   .     S
O208   C209    1.282   .     A
C209   C248    1.415   .     S
C210   C247    1.415   .     S
O211   C215    1.282   .     A
O211   Zn217   2.008   .     S
O212   C216    1.282   .     A
O212   Zn218   2.008   .     S
O213   C216    1.282   .     A
O213   Zn217   2.009   .     S
O214   C215    1.281   .     A
O214   Zn218   2.009   .     S
C215   C222    1.421   .     S
C216   C221    1.421   .     S
Zn217  N257    2.010   .     S
Zn218  N258    2.010   .     S
C219   C259    1.492   .     S
C219   C229    1.406   .     A
C219   C221    1.400   .     A
C220   C222    1.400   .     A
C220   C230    1.406   .     A
C220   C262    1.492   .     S
C221   C223    1.383   .     A
C222   C224    1.383   .     A
C223   H235    1.084   .     S
C223   C225    1.387   .     A
C224   C226    1.387   .     A
C224   H236    1.084   .     S
C225   C231    1.412   .     A
C225   C227    1.419   .     A
C226   C232    1.412   .     A
C226   C228    1.419   .     A
C227   C229    1.423   .     A
C227   C840    1.401   .     S
C228   C230    1.423   .     A
C228   C839    1.401   1_554 S
C229   C234    1.404   .     A
C230   C233    1.404   .     A
C231   C265    1.513   .     S
C231   C845    1.390   .     S
C232   C269    1.513   .     S
C232   C846    1.390   1_554 S
C233   H237    1.080   .     S
C233   C843    1.390   1_554 S
C234   H238    1.080   .     S
C234   C844    1.390   .     S
C239   H243    1.084   .     S
C239   C248    1.396   .     A
C239   C377    1.370   1_455 S
C240   H244    1.084   .     S
C240   C247    1.396   .     A
C240   C310    1.369   .     S
C241   C247    1.396   .     A
C241   H245    1.084   .     S
C241   C307    1.370   .     S
C242   C248    1.396   .     A
C242   H246    1.084   .     S
C242   C376    1.369   1_455 S
C249   H253    1.082   .     S
C249   N258    1.367   .     A
C250   H254    1.082   .     S
C250   N257    1.367   .     A
C250   C455    1.417   .     S
C251   N258    1.367   .     A
C251   H255    1.082   .     S
C252   N257    1.367   .     A
C252   H256    1.082   .     S
C252   C453    1.417   .     S
C259   H260    1.085   .     S
C259   O261    1.221   .     D
C262   O264    1.221   .     D
C262   H263    1.085   .     S
C265   H268    1.110   .     S
C265   H266    1.110   .     S
C265   H267    1.111   .     S
C269   H272    1.111   .     S
C269   H270    1.111   .     S
C269   H271    1.112   .     S
O273   C277    1.282   .     A
O273   Zn285   1.994   .     S
O274   C278    1.282   .     A
O274   Zn286   1.994   .     S
O275   Zn285   1.993   .     S
O275   C278    1.282   .     A
O276   Zn286   1.993   .     S
O276   C277    1.282   .     A
C277   C316    1.415   .     S
C278   C315    1.415   .     S
O279   C283    1.282   .     A
O279   Zn285   2.008   .     S
O280   C284    1.282   .     A
O280   Zn286   2.008   .     S
O281   C284    1.282   .     A
O281   Zn285   2.009   .     S
O282   C283    1.281   .     A
O282   Zn286   2.009   .     S
C283   C290    1.421   .     S
C284   C289    1.421   .     S
Zn285  N325    2.010   .     S
Zn286  N326    2.010   .     S
C287   C327    1.492   .     S
C287   C297    1.406   .     A
C287   C289    1.400   .     A
C288   C290    1.400   .     A
C288   C298    1.406   .     A
C288   C330    1.492   .     S
C289   C291    1.383   .     A
C290   C292    1.383   .     A
C291   H303    1.084   .     S
C291   C293    1.387   .     A
C292   C294    1.387   .     A
C292   H304    1.084   .     S
C293   C299    1.412   .     A
C293   C295    1.419   .     A
C294   C300    1.412   .     A
C294   C296    1.419   .     A
C295   C297    1.423   .     A
C295   C908    1.401   .     S
C296   C298    1.423   .     A
C296   C907    1.401   1_554 S
C297   C302    1.404   .     A
C298   C301    1.404   .     A
C299   C333    1.513   .     S
C299   C913    1.390   .     S
C300   C337    1.513   .     S
C300   C914    1.390   1_554 S
C301   H305    1.080   .     S
C301   C911    1.390   1_554 S
C302   H306    1.080   .     S
C302   C912    1.390   .     S
C307   H311    1.084   .     S
C307   C316    1.396   .     A
C308   H312    1.084   .     S
C308   C315    1.396   .     A
C308   C378    1.369   .     S
C309   C315    1.396   .     A
C309   H313    1.084   .     S
C309   C375    1.370   .     S
C310   C316    1.396   .     A
C310   H314    1.084   .     S
C317   H321    1.082   .     S
C317   N326    1.367   .     A
C318   H322    1.082   .     S
C318   N325    1.367   .     A
C318   C523    1.417   .     S
C319   N326    1.367   .     A
C319   H323    1.082   .     S
C320   N325    1.367   .     A
C320   H324    1.082   .     S
C320   C521    1.417   .     S
C327   H328    1.085   .     S
C327   O329    1.221   .     D
C330   O332    1.221   .     D
C330   H331    1.085   .     S
C333   H336    1.110   .     S
C333   H334    1.110   .     S
C333   H335    1.111   .     S
C337   H340    1.111   .     S
C337   H338    1.111   .     S
C337   H339    1.112   .     S
O341   C345    1.282   .     A
O341   Zn353   1.994   .     S
O342   C346    1.282   .     A
O342   Zn354   1.994   .     S
O343   Zn353   1.993   .     S
O343   C346    1.282   .     A
O344   Zn354   1.993   .     S
O344   C345    1.282   .     A
C345   C384    1.415   .     S
C346   C383    1.415   .     S
O347   C351    1.282   .     A
O347   Zn353   2.008   .     S
O348   C352    1.282   .     A
O348   Zn354   2.008   .     S
O349   C352    1.282   .     A
O349   Zn353   2.009   .     S
O350   C351    1.281   .     A
O350   Zn354   2.009   .     S
C351   C358    1.421   .     S
C352   C357    1.421   .     S
Zn353  N393    2.010   .     S
Zn354  N394    2.010   .     S
C355   C395    1.492   .     S
C355   C365    1.406   .     A
C355   C357    1.400   .     A
C356   C358    1.400   .     A
C356   C366    1.406   .     A
C356   C398    1.492   .     S
C357   C359    1.383   .     A
C358   C360    1.383   .     A
C359   H371    1.084   .     S
C359   C361    1.387   .     A
C360   C362    1.387   .     A
C360   H372    1.084   .     S
C361   C367    1.412   .     A
C361   C363    1.419   .     A
C362   C368    1.412   .     A
C362   C364    1.419   .     A
C363   C365    1.423   .     A
C363   C976    1.401   .     S
C364   C366    1.423   .     A
C364   C975    1.401   1_554 S
C365   C370    1.404   .     A
C366   C369    1.404   .     A
C367   C401    1.513   .     S
C367   C981    1.390   .     S
C368   C405    1.513   .     S
C368   C982    1.390   1_554 S
C369   H373    1.080   .     S
C369   C979    1.390   1_554 S
C370   H374    1.080   .     S
C370   C980    1.390   .     S
C375   H379    1.084   .     S
C375   C384    1.396   .     A
C376   H380    1.084   .     S
C376   C383    1.396   .     A
C376   C242    1.369   1_655 S
C377   C383    1.396   .     A
C377   H381    1.084   .     S
C377   C239    1.370   1_655 S
C378   C384    1.396   .     A
C378   H382    1.084   .     S
C385   H389    1.082   .     S
C385   N394    1.367   .     A
C386   H390    1.082   .     S
C386   N393    1.367   .     A
C386   C591    1.417   .     S
C387   N394    1.367   .     A
C387   H391    1.082   .     S
C388   N393    1.367   .     A
C388   H392    1.082   .     S
C388   C589    1.417   .     S
C395   H396    1.085   .     S
C395   O397    1.221   .     D
C398   O400    1.221   .     D
C398   H399    1.085   .     S
C401   H404    1.110   .     S
C401   H402    1.110   .     S
C401   H403    1.111   .     S
C405   H408    1.111   .     S
C405   H406    1.111   .     S
C405   H407    1.112   .     S
O409   C413    1.282   .     A
O409   Zn421   1.994   .     S
O410   C414    1.282   .     A
O410   Zn422   1.994   .     S
O411   Zn421   1.993   .     S
O411   C414    1.282   .     A
O412   Zn422   1.993   .     S
O412   C413    1.282   .     A
C413   C452    1.415   .     S
C414   C451    1.415   .     S
O415   C419    1.282   .     A
O415   Zn421   2.008   .     S
O416   C420    1.282   .     A
O416   Zn422   2.008   .     S
O417   C420    1.282   .     A
O417   Zn421   2.009   .     S
O418   C419    1.281   .     A
O418   Zn422   2.009   .     S
C419   C426    1.421   .     S
C420   C425    1.421   .     S
Zn421  N461    2.010   .     S
Zn422  N462    2.010   .     S
C423   C463    1.492   .     S
C423   C433    1.406   .     A
C423   C425    1.400   .     A
C424   C426    1.400   .     A
C424   C434    1.406   .     A
C424   C466    1.492   .     S
C425   C427    1.383   .     A
C426   C428    1.383   .     A
C427   H439    1.084   .     S
C427   C429    1.387   .     A
C428   C430    1.387   .     A
C428   H440    1.084   .     S
C429   C435    1.412   .     A
C429   C431    1.419   .     A
C430   C436    1.412   .     A
C430   C432    1.419   .     A
C431   C433    1.423   .     A
C431   C1044   1.401   .     S
C432   C434    1.423   .     A
C432   C1043   1.401   1_554 S
C433   C438    1.404   .     A
C434   C437    1.404   .     A
C435   C469    1.513   .     S
C435   C1049   1.390   .     S
C436   C473    1.513   .     S
C436   C1050   1.390   1_554 S
C437   H441    1.080   .     S
C437   C1047   1.390   1_554 S
C438   H442    1.080   .     S
C438   C1048   1.390   .     S
C443   H447    1.084   .     S
C443   C452    1.396   .     A
C443   C581    1.370   1_455 S
C444   H448    1.084   .     S
C444   C451    1.396   .     A
C444   C514    1.369   .     S
C445   C451    1.396   .     A
C445   H449    1.084   .     S
C445   C511    1.370   .     S
C446   C452    1.396   .     A
C446   H450    1.084   .     S
C446   C580    1.369   1_455 S
C453   H457    1.082   .     S
C453   N462    1.367   .     A
C454   H458    1.082   .     S
C454   N461    1.367   .     A
C454   C47     1.417   1_565 S
C455   N462    1.367   .     A
C455   H459    1.082   .     S
C456   N461    1.367   .     A
C456   H460    1.082   .     S
C456   C45     1.417   1_565 S
C463   H464    1.085   .     S
C463   O465    1.221   .     D
C466   O468    1.221   .     D
C466   H467    1.085   .     S
C469   H472    1.110   .     S
C469   H470    1.110   .     S
C469   H471    1.111   .     S
C473   H476    1.111   .     S
C473   H474    1.111   .     S
C473   H475    1.112   .     S
O477   C481    1.282   .     A
O477   Zn489   1.994   .     S
O478   C482    1.282   .     A
O478   Zn490   1.994   .     S
O479   Zn489   1.993   .     S
O479   C482    1.282   .     A
O480   Zn490   1.993   .     S
O480   C481    1.282   .     A
C481   C520    1.415   .     S
C482   C519    1.415   .     S
O483   C487    1.282   .     A
O483   Zn489   2.008   .     S
O484   C488    1.282   .     A
O484   Zn490   2.008   .     S
O485   C488    1.282   .     A
O485   Zn489   2.009   .     S
O486   C487    1.281   .     A
O486   Zn490   2.009   .     S
C487   C494    1.421   .     S
C488   C493    1.421   .     S
Zn489  N529    2.010   .     S
Zn490  N530    2.010   .     S
C491   C531    1.492   .     S
C491   C501    1.406   .     A
C491   C493    1.400   .     A
C492   C494    1.400   .     A
C492   C502    1.406   .     A
C492   C534    1.492   .     S
C493   C495    1.383   .     A
C494   C496    1.383   .     A
C495   H507    1.084   .     S
C495   C497    1.387   .     A
C496   C498    1.387   .     A
C496   H508    1.084   .     S
C497   C503    1.412   .     A
C497   C499    1.419   .     A
C498   C504    1.412   .     A
C498   C500    1.419   .     A
C499   C501    1.423   .     A
C499   C1112   1.401   .     S
C500   C502    1.423   .     A
C500   C1111   1.401   1_554 S
C501   C506    1.404   .     A
C502   C505    1.404   .     A
C503   C537    1.513   .     S
C503   C1117   1.390   .     S
C504   C541    1.513   .     S
C504   C1118   1.390   1_554 S
C505   H509    1.080   .     S
C505   C1115   1.390   1_554 S
C506   H510    1.080   .     S
C506   C1116   1.390   .     S
C511   H515    1.084   .     S
C511   C520    1.396   .     A
C512   H516    1.084   .     S
C512   C519    1.396   .     A
C512   C582    1.369   .     S
C513   C519    1.396   .     A
C513   H517    1.084   .     S
C513   C579    1.370   .     S
C514   C520    1.396   .     A
C514   H518    1.084   .     S
C521   H525    1.082   .     S
C521   N530    1.367   .     A
C522   H526    1.082   .     S
C522   N529    1.367   .     A
C522   C115    1.417   1_565 S
C523   N530    1.367   .     A
C523   H527    1.082   .     S
C524   N529    1.367   .     A
C524   H528    1.082   .     S
C524   C113    1.417   1_565 S
C531   H532    1.085   .     S
C531   O533    1.221   .     D
C534   O536    1.221   .     D
C534   H535    1.085   .     S
C537   H540    1.110   .     S
C537   H538    1.110   .     S
C537   H539    1.111   .     S
C541   H544    1.111   .     S
C541   H542    1.111   .     S
C541   H543    1.112   .     S
O545   C549    1.282   .     A
O545   Zn557   1.994   .     S
O546   C550    1.282   .     A
O546   Zn558   1.994   .     S
O547   Zn557   1.993   .     S
O547   C550    1.282   .     A
O548   Zn558   1.993   .     S
O548   C549    1.282   .     A
C549   C588    1.415   .     S
C550   C587    1.415   .     S
O551   C555    1.282   .     A
O551   Zn557   2.008   .     S
O552   C556    1.282   .     A
O552   Zn558   2.008   .     S
O553   C556    1.282   .     A
O553   Zn557   2.009   .     S
O554   C555    1.281   .     A
O554   Zn558   2.009   .     S
C555   C562    1.421   .     S
C556   C561    1.421   .     S
Zn557  N597    2.010   .     S
Zn558  N598    2.010   .     S
C559   C599    1.492   .     S
C559   C569    1.406   .     A
C559   C561    1.400   .     A
C560   C562    1.400   .     A
C560   C570    1.406   .     A
C560   C602    1.492   .     S
C561   C563    1.383   .     A
C562   C564    1.383   .     A
C563   H575    1.084   .     S
C563   C565    1.387   .     A
C564   C566    1.387   .     A
C564   H576    1.084   .     S
C565   C571    1.412   .     A
C565   C567    1.419   .     A
C566   C572    1.412   .     A
C566   C568    1.419   .     A
C567   C569    1.423   .     A
C567   C1180   1.401   .     S
C568   C570    1.423   .     A
C568   C1179   1.401   1_554 S
C569   C574    1.404   .     A
C570   C573    1.404   .     A
C571   C605    1.513   .     S
C571   C1185   1.390   .     S
C572   C609    1.513   .     S
C572   C1186   1.390   1_554 S
C573   H577    1.080   .     S
C573   C1183   1.390   1_554 S
C574   H578    1.080   .     S
C574   C1184   1.390   .     S
C579   H583    1.084   .     S
C579   C588    1.396   .     A
C580   H584    1.084   .     S
C580   C587    1.396   .     A
C580   C446    1.369   1_655 S
C581   C587    1.396   .     A
C581   H585    1.084   .     S
C581   C443    1.370   1_655 S
C582   C588    1.396   .     A
C582   H586    1.084   .     S
C589   H593    1.082   .     S
C589   N598    1.367   .     A
C590   H594    1.082   .     S
C590   N597    1.367   .     A
C590   C183    1.417   1_565 S
C591   N598    1.367   .     A
C591   H595    1.082   .     S
C592   N597    1.367   .     A
C592   H596    1.082   .     S
C592   C181    1.417   1_565 S
C599   H600    1.085   .     S
C599   O601    1.221   .     D
C602   O604    1.221   .     D
C602   H603    1.085   .     S
C605   H608    1.110   .     S
C605   H606    1.110   .     S
C605   H607    1.111   .     S
C609   H612    1.111   .     S
C609   H610    1.111   .     S
C609   H611    1.112   .     S
O613   C617    1.282   .     A
O613   Zn625   1.994   .     S
O614   C618    1.282   .     A
O614   Zn626   1.994   .     S
O615   Zn625   1.993   .     S
O615   C618    1.282   .     A
O616   Zn626   1.993   .     S
O616   C617    1.282   .     A
C617   C656    1.415   .     S
C618   C655    1.415   .     S
O619   C623    1.282   .     A
O619   Zn625   2.008   .     S
O620   C624    1.282   .     A
O620   Zn626   2.008   .     S
O621   C624    1.282   .     A
O621   Zn625   2.009   .     S
O622   C623    1.281   .     A
O622   Zn626   2.009   .     S
C623   C630    1.421   .     S
C624   C629    1.421   .     S
Zn625  N665    2.010   .     S
Zn626  N666    2.010   .     S
C627   C667    1.492   .     S
C627   C637    1.406   .     A
C627   C629    1.400   .     A
C628   C630    1.400   .     A
C628   C638    1.406   .     A
C628   C670    1.492   .     S
C629   C631    1.383   .     A
C630   C632    1.383   .     A
C631   H643    1.084   .     S
C631   C633    1.387   .     A
C632   C634    1.387   .     A
C632   H644    1.084   .     S
C633   C639    1.412   .     A
C633   C635    1.419   .     A
C634   C640    1.412   .     A
C634   C636    1.419   .     A
C635   C637    1.423   .     A
C635   C24     1.401   1_556 S
C636   C638    1.423   .     A
C637   C642    1.404   .     A
C638   C641    1.404   .     A
C639   C673    1.513   .     S
C639   C29     1.390   1_556 S
C640   C677    1.513   .     S
C641   H645    1.080   .     S
C642   H646    1.080   .     S
C642   C28     1.390   1_556 S
C647   H651    1.084   .     S
C647   C656    1.396   .     A
C647   C785    1.370   1_455 S
C648   H652    1.084   .     S
C648   C655    1.396   .     A
C648   C718    1.369   .     S
C649   C655    1.396   .     A
C649   H653    1.084   .     S
C649   C715    1.370   .     S
C650   C656    1.396   .     A
C650   H654    1.084   .     S
C650   C784    1.369   1_455 S
C657   H661    1.082   .     S
C657   N666    1.367   .     A
C657   C1068   1.417   1_545 S
C658   H662    1.082   .     S
C658   N665    1.367   .     A
C658   C863    1.417   .     S
C659   N666    1.367   .     A
C659   H663    1.082   .     S
C659   C1066   1.417   1_545 S
C660   N665    1.367   .     A
C660   H664    1.082   .     S
C660   C861    1.417   .     S
C667   H668    1.085   .     S
C667   O669    1.221   .     D
C670   O672    1.221   .     D
C670   H671    1.085   .     S
C673   H676    1.110   .     S
C673   H674    1.110   .     S
C673   H675    1.111   .     S
C677   H680    1.111   .     S
C677   H678    1.111   .     S
C677   H679    1.112   .     S
O681   C685    1.282   .     A
O681   Zn693   1.994   .     S
O682   C686    1.282   .     A
O682   Zn694   1.994   .     S
O683   Zn693   1.993   .     S
O683   C686    1.282   .     A
O684   Zn694   1.993   .     S
O684   C685    1.282   .     A
C685   C724    1.415   .     S
C686   C723    1.415   .     S
O687   C691    1.282   .     A
O687   Zn693   2.008   .     S
O688   C692    1.282   .     A
O688   Zn694   2.008   .     S
O689   C692    1.282   .     A
O689   Zn693   2.009   .     S
O690   C691    1.281   .     A
O690   Zn694   2.009   .     S
C691   C698    1.421   .     S
C692   C697    1.421   .     S
Zn693  N733    2.010   .     S
Zn694  N734    2.010   .     S
C695   C735    1.492   .     S
C695   C705    1.406   .     A
C695   C697    1.400   .     A
C696   C698    1.400   .     A
C696   C706    1.406   .     A
C696   C738    1.492   .     S
C697   C699    1.383   .     A
C698   C700    1.383   .     A
C699   H711    1.084   .     S
C699   C701    1.387   .     A
C700   C702    1.387   .     A
C700   H712    1.084   .     S
C701   C707    1.412   .     A
C701   C703    1.419   .     A
C702   C708    1.412   .     A
C702   C704    1.419   .     A
C703   C705    1.423   .     A
C703   C92     1.401   1_556 S
C704   C706    1.423   .     A
C705   C710    1.404   .     A
C706   C709    1.404   .     A
C707   C741    1.513   .     S
C707   C97     1.390   1_556 S
C708   C745    1.513   .     S
C709   H713    1.080   .     S
C710   H714    1.080   .     S
C710   C96     1.390   1_556 S
C715   H719    1.084   .     S
C715   C724    1.396   .     A
C716   H720    1.084   .     S
C716   C723    1.396   .     A
C716   C786    1.369   .     S
C717   C723    1.396   .     A
C717   H721    1.084   .     S
C717   C783    1.370   .     S
C718   C724    1.396   .     A
C718   H722    1.084   .     S
C725   H729    1.082   .     S
C725   N734    1.367   .     A
C725   C1136   1.417   1_545 S
C726   H730    1.082   .     S
C726   N733    1.367   .     A
C726   C931    1.417   .     S
C727   N734    1.367   .     A
C727   H731    1.082   .     S
C727   C1134   1.417   1_545 S
C728   N733    1.367   .     A
C728   H732    1.082   .     S
C728   C929    1.417   .     S
C735   H736    1.085   .     S
C735   O737    1.221   .     D
C738   O740    1.221   .     D
C738   H739    1.085   .     S
C741   H744    1.110   .     S
C741   H742    1.110   .     S
C741   H743    1.111   .     S
C745   H748    1.111   .     S
C745   H746    1.111   .     S
C745   H747    1.112   .     S
O749   C753    1.282   .     A
O749   Zn761   1.994   .     S
O750   C754    1.282   .     A
O750   Zn762   1.994   .     S
O751   Zn761   1.993   .     S
O751   C754    1.282   .     A
O752   Zn762   1.993   .     S
O752   C753    1.282   .     A
C753   C792    1.415   .     S
C754   C791    1.415   .     S
O755   C759    1.282   .     A
O755   Zn761   2.008   .     S
O756   C760    1.282   .     A
O756   Zn762   2.008   .     S
O757   C760    1.282   .     A
O757   Zn761   2.009   .     S
O758   C759    1.281   .     A
O758   Zn762   2.009   .     S
C759   C766    1.421   .     S
C760   C765    1.421   .     S
Zn761  N801    2.010   .     S
Zn762  N802    2.010   .     S
C763   C803    1.492   .     S
C763   C773    1.406   .     A
C763   C765    1.400   .     A
C764   C766    1.400   .     A
C764   C774    1.406   .     A
C764   C806    1.492   .     S
C765   C767    1.383   .     A
C766   C768    1.383   .     A
C767   H779    1.084   .     S
C767   C769    1.387   .     A
C768   C770    1.387   .     A
C768   H780    1.084   .     S
C769   C775    1.412   .     A
C769   C771    1.419   .     A
C770   C776    1.412   .     A
C770   C772    1.419   .     A
C771   C773    1.423   .     A
C771   C160    1.401   1_556 S
C772   C774    1.423   .     A
C773   C778    1.404   .     A
C774   C777    1.404   .     A
C775   C809    1.513   .     S
C775   C165    1.390   1_556 S
C776   C813    1.513   .     S
C777   H781    1.080   .     S
C778   H782    1.080   .     S
C778   C164    1.390   1_556 S
C783   H787    1.084   .     S
C783   C792    1.396   .     A
C784   H788    1.084   .     S
C784   C791    1.396   .     A
C784   C650    1.369   1_655 S
C785   C791    1.396   .     A
C785   H789    1.084   .     S
C785   C647    1.370   1_655 S
C786   C792    1.396   .     A
C786   H790    1.084   .     S
C793   H797    1.082   .     S
C793   N802    1.367   .     A
C793   C1204   1.417   1_545 S
C794   H798    1.082   .     S
C794   N801    1.367   .     A
C794   C999    1.417   .     S
C795   N802    1.367   .     A
C795   H799    1.082   .     S
C795   C1202   1.417   1_545 S
C796   N801    1.367   .     A
C796   H800    1.082   .     S
C796   C997    1.417   .     S
C803   H804    1.085   .     S
C803   O805    1.221   .     D
C806   O808    1.221   .     D
C806   H807    1.085   .     S
C809   H812    1.110   .     S
C809   H810    1.110   .     S
C809   H811    1.111   .     S
C813   H816    1.111   .     S
C813   H814    1.111   .     S
C813   H815    1.112   .     S
O817   C821    1.282   .     A
O817   Zn829   1.994   .     S
O818   C822    1.282   .     A
O818   Zn830   1.994   .     S
O819   Zn829   1.993   .     S
O819   C822    1.282   .     A
O820   Zn830   1.993   .     S
O820   C821    1.282   .     A
C821   C860    1.415   .     S
C822   C859    1.415   .     S
O823   C827    1.282   .     A
O823   Zn829   2.008   .     S
O824   C828    1.282   .     A
O824   Zn830   2.008   .     S
O825   C828    1.282   .     A
O825   Zn829   2.009   .     S
O826   C827    1.281   .     A
O826   Zn830   2.009   .     S
C827   C834    1.421   .     S
C828   C833    1.421   .     S
Zn829  N869    2.010   .     S
Zn830  N870    2.010   .     S
C831   C871    1.492   .     S
C831   C841    1.406   .     A
C831   C833    1.400   .     A
C832   C834    1.400   .     A
C832   C842    1.406   .     A
C832   C874    1.492   .     S
C833   C835    1.383   .     A
C834   C836    1.383   .     A
C835   H847    1.084   .     S
C835   C837    1.387   .     A
C836   C838    1.387   .     A
C836   H848    1.084   .     S
C837   C843    1.412   .     A
C837   C839    1.419   .     A
C838   C844    1.412   .     A
C838   C840    1.419   .     A
C839   C841    1.423   .     A
C839   C228    1.401   1_556 S
C840   C842    1.423   .     A
C841   C846    1.404   .     A
C842   C845    1.404   .     A
C843   C877    1.513   .     S
C843   C233    1.390   1_556 S
C844   C881    1.513   .     S
C845   H849    1.080   .     S
C846   H850    1.080   .     S
C846   C232    1.390   1_556 S
C851   H855    1.084   .     S
C851   C860    1.396   .     A
C851   C989    1.370   1_455 S
C852   H856    1.084   .     S
C852   C859    1.396   .     A
C852   C922    1.369   .     S
C853   C859    1.396   .     A
C853   H857    1.084   .     S
C853   C919    1.370   .     S
C854   C860    1.396   .     A
C854   H858    1.084   .     S
C854   C988    1.369   1_455 S
C861   H865    1.082   .     S
C861   N870    1.367   .     A
C862   H866    1.082   .     S
C862   N869    1.367   .     A
C862   C1067   1.417   .     S
C863   N870    1.367   .     A
C863   H867    1.082   .     S
C864   N869    1.367   .     A
C864   H868    1.082   .     S
C864   C1065   1.417   .     S
C871   H872    1.085   .     S
C871   O873    1.221   .     D
C874   O876    1.221   .     D
C874   H875    1.085   .     S
C877   H880    1.110   .     S
C877   H878    1.110   .     S
C877   H879    1.111   .     S
C881   H884    1.111   .     S
C881   H882    1.111   .     S
C881   H883    1.112   .     S
O885   C889    1.282   .     A
O885   Zn897   1.994   .     S
O886   C890    1.282   .     A
O886   Zn898   1.994   .     S
O887   Zn897   1.993   .     S
O887   C890    1.282   .     A
O888   Zn898   1.993   .     S
O888   C889    1.282   .     A
C889   C928    1.415   .     S
C890   C927    1.415   .     S
O891   C895    1.282   .     A
O891   Zn897   2.008   .     S
O892   C896    1.282   .     A
O892   Zn898   2.008   .     S
O893   C896    1.282   .     A
O893   Zn897   2.009   .     S
O894   C895    1.281   .     A
O894   Zn898   2.009   .     S
C895   C902    1.421   .     S
C896   C901    1.421   .     S
Zn897  N937    2.010   .     S
Zn898  N938    2.010   .     S
C899   C939    1.492   .     S
C899   C909    1.406   .     A
C899   C901    1.400   .     A
C900   C902    1.400   .     A
C900   C910    1.406   .     A
C900   C942    1.492   .     S
C901   C903    1.383   .     A
C902   C904    1.383   .     A
C903   H915    1.084   .     S
C903   C905    1.387   .     A
C904   C906    1.387   .     A
C904   H916    1.084   .     S
C905   C911    1.412   .     A
C905   C907    1.419   .     A
C906   C912    1.412   .     A
C906   C908    1.419   .     A
C907   C909    1.423   .     A
C907   C296    1.401   1_556 S
C908   C910    1.423   .     A
C909   C914    1.404   .     A
C910   C913    1.404   .     A
C911   C945    1.513   .     S
C911   C301    1.390   1_556 S
C912   C949    1.513   .     S
C913   H917    1.080   .     S
C914   H918    1.080   .     S
C914   C300    1.390   1_556 S
C919   H923    1.084   .     S
C919   C928    1.396   .     A
C920   H924    1.084   .     S
C920   C927    1.396   .     A
C920   C990    1.369   .     S
C921   C927    1.396   .     A
C921   H925    1.084   .     S
C921   C987    1.370   .     S
C922   C928    1.396   .     A
C922   H926    1.084   .     S
C929   H933    1.082   .     S
C929   N938    1.367   .     A
C930   H934    1.082   .     S
C930   N937    1.367   .     A
C930   C1135   1.417   .     S
C931   N938    1.367   .     A
C931   H935    1.082   .     S
C932   N937    1.367   .     A
C932   H936    1.082   .     S
C932   C1133   1.417   .     S
C939   H940    1.085   .     S
C939   O941    1.221   .     D
C942   O944    1.221   .     D
C942   H943    1.085   .     S
C945   H948    1.110   .     S
C945   H946    1.110   .     S
C945   H947    1.111   .     S
C949   H952    1.111   .     S
C949   H950    1.111   .     S
C949   H951    1.112   .     S
O953   C957    1.282   .     A
O953   Zn965   1.994   .     S
O954   C958    1.282   .     A
O954   Zn966   1.994   .     S
O955   Zn965   1.993   .     S
O955   C958    1.282   .     A
O956   Zn966   1.993   .     S
O956   C957    1.282   .     A
C957   C996    1.415   .     S
C958   C995    1.415   .     S
O959   C963    1.282   .     A
O959   Zn965   2.008   .     S
O960   C964    1.282   .     A
O960   Zn966   2.008   .     S
O961   C964    1.282   .     A
O961   Zn965   2.009   .     S
O962   C963    1.281   .     A
O962   Zn966   2.009   .     S
C963   C970    1.421   .     S
C964   C969    1.421   .     S
Zn965  N1005   2.010   .     S
Zn966  N1006   2.010   .     S
C967   C1007   1.492   .     S
C967   C977    1.406   .     A
C967   C969    1.400   .     A
C968   C970    1.400   .     A
C968   C978    1.406   .     A
C968   C1010   1.492   .     S
C969   C971    1.383   .     A
C970   C972    1.383   .     A
C971   H983    1.084   .     S
C971   C973    1.387   .     A
C972   C974    1.387   .     A
C972   H984    1.084   .     S
C973   C979    1.412   .     A
C973   C975    1.419   .     A
C974   C980    1.412   .     A
C974   C976    1.419   .     A
C975   C977    1.423   .     A
C975   C364    1.401   1_556 S
C976   C978    1.423   .     A
C977   C982    1.404   .     A
C978   C981    1.404   .     A
C979   C1013   1.513   .     S
C979   C369    1.390   1_556 S
C980   C1017   1.513   .     S
C981   H985    1.080   .     S
C982   H986    1.080   .     S
C982   C368    1.390   1_556 S
C987   H991    1.084   .     S
C987   C996    1.396   .     A
C988   H992    1.084   .     S
C988   C995    1.396   .     A
C988   C854    1.369   1_655 S
C989   C995    1.396   .     A
C989   H993    1.084   .     S
C989   C851    1.370   1_655 S
C990   C996    1.396   .     A
C990   H994    1.084   .     S
C997   H1001   1.082   .     S
C997   N1006   1.367   .     A
C998   H1002   1.082   .     S
C998   N1005   1.367   .     A
C998   C1203   1.417   .     S
C999   N1006   1.367   .     A
C999   H1003   1.082   .     S
C1000  N1005   1.367   .     A
C1000  H1004   1.082   .     S
C1000  C1201   1.417   .     S
C1007  H1008   1.085   .     S
C1007  O1009   1.221   .     D
C1010  O1012   1.221   .     D
C1010  H1011   1.085   .     S
C1013  H1016   1.110   .     S
C1013  H1014   1.110   .     S
C1013  H1015   1.111   .     S
C1017  H1020   1.111   .     S
C1017  H1018   1.111   .     S
C1017  H1019   1.112   .     S
O1021  C1025   1.282   .     A
O1021  Zn1033  1.994   .     S
O1022  C1026   1.282   .     A
O1022  Zn1034  1.994   .     S
O1023  Zn1033  1.993   .     S
O1023  C1026   1.282   .     A
O1024  Zn1034  1.993   .     S
O1024  C1025   1.282   .     A
C1025  C1064   1.415   .     S
C1026  C1063   1.415   .     S
O1027  C1031   1.282   .     A
O1027  Zn1033  2.008   .     S
O1028  C1032   1.282   .     A
O1028  Zn1034  2.008   .     S
O1029  C1032   1.282   .     A
O1029  Zn1033  2.009   .     S
O1030  C1031   1.281   .     A
O1030  Zn1034  2.009   .     S
C1031  C1038   1.421   .     S
C1032  C1037   1.421   .     S
Zn1033 N1073   2.010   .     S
Zn1034 N1074   2.010   .     S
C1035  C1075   1.492   .     S
C1035  C1045   1.406   .     A
C1035  C1037   1.400   .     A
C1036  C1038   1.400   .     A
C1036  C1046   1.406   .     A
C1036  C1078   1.492   .     S
C1037  C1039   1.383   .     A
C1038  C1040   1.383   .     A
C1039  H1051   1.084   .     S
C1039  C1041   1.387   .     A
C1040  C1042   1.387   .     A
C1040  H1052   1.084   .     S
C1041  C1047   1.412   .     A
C1041  C1043   1.419   .     A
C1042  C1048   1.412   .     A
C1042  C1044   1.419   .     A
C1043  C1045   1.423   .     A
C1043  C432    1.401   1_556 S
C1044  C1046   1.423   .     A
C1045  C1050   1.404   .     A
C1046  C1049   1.404   .     A
C1047  C1081   1.513   .     S
C1047  C437    1.390   1_556 S
C1048  C1085   1.513   .     S
C1049  H1053   1.080   .     S
C1050  H1054   1.080   .     S
C1050  C436    1.390   1_556 S
C1055  H1059   1.084   .     S
C1055  C1064   1.396   .     A
C1055  C1193   1.370   1_455 S
C1056  H1060   1.084   .     S
C1056  C1063   1.396   .     A
C1056  C1126   1.369   .     S
C1057  C1063   1.396   .     A
C1057  H1061   1.084   .     S
C1057  C1123   1.370   .     S
C1058  C1064   1.396   .     A
C1058  H1062   1.084   .     S
C1058  C1192   1.369   1_455 S
C1065  H1069   1.082   .     S
C1065  N1074   1.367   .     A
C1066  H1070   1.082   .     S
C1066  N1073   1.367   .     A
C1066  C659    1.417   1_565 S
C1067  N1074   1.367   .     A
C1067  H1071   1.082   .     S
C1068  N1073   1.367   .     A
C1068  H1072   1.082   .     S
C1068  C657    1.417   1_565 S
C1075  H1076   1.085   .     S
C1075  O1077   1.221   .     D
C1078  O1080   1.221   .     D
C1078  H1079   1.085   .     S
C1081  H1084   1.110   .     S
C1081  H1082   1.110   .     S
C1081  H1083   1.111   .     S
C1085  H1088   1.111   .     S
C1085  H1086   1.111   .     S
C1085  H1087   1.112   .     S
O1089  C1093   1.282   .     A
O1089  Zn1101  1.994   .     S
O1090  C1094   1.282   .     A
O1090  Zn1102  1.994   .     S
O1091  Zn1101  1.993   .     S
O1091  C1094   1.282   .     A
O1092  Zn1102  1.993   .     S
O1092  C1093   1.282   .     A
C1093  C1132   1.415   .     S
C1094  C1131   1.415   .     S
O1095  C1099   1.282   .     A
O1095  Zn1101  2.008   .     S
O1096  C1100   1.282   .     A
O1096  Zn1102  2.008   .     S
O1097  C1100   1.282   .     A
O1097  Zn1101  2.009   .     S
O1098  C1099   1.281   .     A
O1098  Zn1102  2.009   .     S
C1099  C1106   1.421   .     S
C1100  C1105   1.421   .     S
Zn1101 N1141   2.010   .     S
Zn1102 N1142   2.010   .     S
C1103  C1143   1.492   .     S
C1103  C1113   1.406   .     A
C1103  C1105   1.400   .     A
C1104  C1106   1.400   .     A
C1104  C1114   1.406   .     A
C1104  C1146   1.492   .     S
C1105  C1107   1.383   .     A
C1106  C1108   1.383   .     A
C1107  H1119   1.084   .     S
C1107  C1109   1.387   .     A
C1108  C1110   1.387   .     A
C1108  H1120   1.084   .     S
C1109  C1115   1.412   .     A
C1109  C1111   1.419   .     A
C1110  C1116   1.412   .     A
C1110  C1112   1.419   .     A
C1111  C1113   1.423   .     A
C1111  C500    1.401   1_556 S
C1112  C1114   1.423   .     A
C1113  C1118   1.404   .     A
C1114  C1117   1.404   .     A
C1115  C1149   1.513   .     S
C1115  C505    1.390   1_556 S
C1116  C1153   1.513   .     S
C1117  H1121   1.080   .     S
C1118  H1122   1.080   .     S
C1118  C504    1.390   1_556 S
C1123  H1127   1.084   .     S
C1123  C1132   1.396   .     A
C1124  H1128   1.084   .     S
C1124  C1131   1.396   .     A
C1124  C1194   1.369   .     S
C1125  C1131   1.396   .     A
C1125  H1129   1.084   .     S
C1125  C1191   1.370   .     S
C1126  C1132   1.396   .     A
C1126  H1130   1.084   .     S
C1133  H1137   1.082   .     S
C1133  N1142   1.367   .     A
C1134  H1138   1.082   .     S
C1134  N1141   1.367   .     A
C1134  C727    1.417   1_565 S
C1135  N1142   1.367   .     A
C1135  H1139   1.082   .     S
C1136  N1141   1.367   .     A
C1136  H1140   1.082   .     S
C1136  C725    1.417   1_565 S
C1143  H1144   1.085   .     S
C1143  O1145   1.221   .     D
C1146  O1148   1.221   .     D
C1146  H1147   1.085   .     S
C1149  H1152   1.110   .     S
C1149  H1150   1.110   .     S
C1149  H1151   1.111   .     S
C1153  H1156   1.111   .     S
C1153  H1154   1.111   .     S
C1153  H1155   1.112   .     S
O1157  C1161   1.282   .     A
O1157  Zn1169  1.994   .     S
O1158  C1162   1.282   .     A
O1158  Zn1170  1.994   .     S
O1159  Zn1169  1.993   .     S
O1159  C1162   1.282   .     A
O1160  Zn1170  1.993   .     S
O1160  C1161   1.282   .     A
C1161  C1200   1.415   .     S
C1162  C1199   1.415   .     S
O1163  C1167   1.282   .     A
O1163  Zn1169  2.008   .     S
O1164  C1168   1.282   .     A
O1164  Zn1170  2.008   .     S
O1165  C1168   1.282   .     A
O1165  Zn1169  2.009   .     S
O1166  C1167   1.281   .     A
O1166  Zn1170  2.009   .     S
C1167  C1174   1.421   .     S
C1168  C1173   1.421   .     S
Zn1169 N1209   2.010   .     S
Zn1170 N1210   2.010   .     S
C1171  C1211   1.492   .     S
C1171  C1181   1.406   .     A
C1171  C1173   1.400   .     A
C1172  C1174   1.400   .     A
C1172  C1182   1.406   .     A
C1172  C1214   1.492   .     S
C1173  C1175   1.383   .     A
C1174  C1176   1.383   .     A
C1175  H1187   1.084   .     S
C1175  C1177   1.387   .     A
C1176  C1178   1.387   .     A
C1176  H1188   1.084   .     S
C1177  C1183   1.412   .     A
C1177  C1179   1.419   .     A
C1178  C1184   1.412   .     A
C1178  C1180   1.419   .     A
C1179  C1181   1.423   .     A
C1179  C568    1.401   1_556 S
C1180  C1182   1.423   .     A
C1181  C1186   1.404   .     A
C1182  C1185   1.404   .     A
C1183  C1217   1.513   .     S
C1183  C573    1.390   1_556 S
C1184  C1221   1.513   .     S
C1185  H1189   1.080   .     S
C1186  H1190   1.080   .     S
C1186  C572    1.390   1_556 S
C1191  H1195   1.084   .     S
C1191  C1200   1.396   .     A
C1192  H1196   1.084   .     S
C1192  C1199   1.396   .     A
C1192  C1058   1.369   1_655 S
C1193  C1199   1.396   .     A
C1193  H1197   1.084   .     S
C1193  C1055   1.370   1_655 S
C1194  C1200   1.396   .     A
C1194  H1198   1.084   .     S
C1201  H1205   1.082   .     S
C1201  N1210   1.367   .     A
C1202  H1206   1.082   .     S
C1202  N1209   1.367   .     A
C1202  C795    1.417   1_565 S
C1203  N1210   1.367   .     A
C1203  H1207   1.082   .     S
C1204  N1209   1.367   .     A
C1204  H1208   1.082   .     S
C1204  C793    1.417   1_565 S
C1211  H1212   1.085   .     S
C1211  O1213   1.221   .     D
C1214  O1216   1.221   .     D
C1214  H1215   1.085   .     S
C1217  H1220   1.110   .     S
C1217  H1218   1.110   .     S
C1217  H1219   1.111   .     S
C1221  H1224   1.111   .     S
C1221  H1222   1.111   .     S
C1221  H1223   1.112   .     S
