data_str_m3_o2_o5_pcu_sym.41
_audit_creation_date              2020-01-03
_audit_creation_method            'Materials Studio'
_symmetry_space_group_name_H-M    'P1'
_symmetry_Int_Tables_number       1
_symmetry_cell_setting            triclinic
loop_
_symmetry_equiv_pos_as_xyz
  x,y,z
_cell_length_a                    30.0258
_cell_length_b                    28.4583
_cell_length_c                    26.6417
_cell_angle_alpha                 89.9935
_cell_angle_beta                  90.2087
_cell_angle_gamma                 90.0081
loop_
_atom_site_label
_atom_site_type_symbol
_atom_site_fract_x
_atom_site_fract_y
_atom_site_fract_z
_atom_site_U_iso_or_equiv
_atom_site_adp_type
_atom_site_occupancy
C1     C     0.16394   0.25003   0.16671   0.00000  Uiso   1.00
C2     C     0.21909   0.44735   0.13799   0.00000  Uiso   1.00
C3     C     0.25012   0.24999   0.07291   0.00000  Uiso   1.00
C4     C     0.24989   0.24999   0.26043   0.00000  Uiso   1.00
C5     C     0.25001   0.02645   0.16667   0.00000  Uiso   1.00
C6     C     0.25001   0.47318   0.16667   0.00000  Uiso   1.00
C7     C     0.25007   0.24994   0.02181   0.00000  Uiso   1.00
C8     C     0.24993   0.24994   0.31152   0.00000  Uiso   1.00
C9     C     0.04742   0.28981   0.18573   0.00000  Uiso   1.00
C10    C     0.45300   0.21071   0.18459   0.00000  Uiso   1.00
C11    C     0.45290   0.29049   0.15174   0.00000  Uiso   1.00
C12    C     0.33608   0.25003   0.16677   0.00000  Uiso   1.00
C13    C     0.04681   0.21110   0.15005   0.00000  Uiso   1.00
C14    C     0.09340   0.28978   0.18492   0.00000  Uiso   1.00
C15    C     0.40705   0.21035   0.18359   0.00000  Uiso   1.00
C16    C     0.40692   0.29040   0.15151   0.00000  Uiso   1.00
C17    C     0.09276   0.21078   0.15002   0.00000  Uiso   1.00
C18    C     0.11606   0.25019   0.16719   0.00000  Uiso   1.00
C19    C     0.38398   0.25022   0.16722   0.00000  Uiso   1.00
C20    C     0.02409   0.25053   0.16811   0.00000  Uiso   1.00
C21    C     0.47597   0.25066   0.16835   0.00000  Uiso   1.00
C22    C     0.17604   0.11649   0.07206   0.00000  Uiso   1.00
C23    C     0.23442   0.10203   0.12567   0.00000  Uiso   1.00
C24    C     0.15797   0.15452   0.03737   0.00000  Uiso   1.00
C25    C     0.30241   0.37976   0.27596   0.00000  Uiso   1.00
C26    C     0.33306   0.34793   0.30631   0.00000  Uiso   1.00
C27    C     0.32386   0.11626   0.26158   0.00000  Uiso   1.00
C28    C     0.34213   0.15451   0.29585   0.00000  Uiso   1.00
C29    C     0.19769   0.37981   0.05733   0.00000  Uiso   1.00
C30    C     0.16706   0.34801   0.02691   0.00000  Uiso   1.00
C31    C     0.27955   0.39763   0.19638   0.00000  Uiso   1.00
C32    C     0.26560   0.10204   0.20766   0.00000  Uiso   1.00
C33    C     0.22046   0.39763   0.13695   0.00000  Uiso   1.00
C34    C     0.23571   0.05227   0.12466   0.00000  Uiso   1.00
C35    C     0.28093   0.44735   0.19535   0.00000  Uiso   1.00
C36    C     0.26432   0.05227   0.20867   0.00000  Uiso   1.00
H37    H     0.03011   0.32020   0.20045   0.00000  Uiso   1.00
H38    H     0.30658   0.46541   0.21645   0.00000  Uiso   1.00
H39    H     0.27384   0.03409   0.24270   0.00000  Uiso   1.00
H40    H     0.19345   0.46542   0.11689   0.00000  Uiso   1.00
H41    H     0.15482   0.11546   0.10631   0.00000  Uiso   1.00
H42    H     0.17361   0.08226   0.05213   0.00000  Uiso   1.00
H43    H     0.17777   0.15573   0.00224   0.00000  Uiso   1.00
H44    H     0.12267   0.14693   0.02780   0.00000  Uiso   1.00
H45    H     0.15983   0.18932   0.05614   0.00000  Uiso   1.00
H46    H     0.26730   0.37113   0.28584   0.00000  Uiso   1.00
H47    H     0.30960   0.41670   0.28699   0.00000  Uiso   1.00
H48    H     0.47057   0.17997   0.19820   0.00000  Uiso   1.00
H49    H     0.32570   0.35165   0.01362   0.00000  Uiso   1.00
H50    H     0.32812   0.31071   0.29518   0.00000  Uiso   1.00
H51    H     0.36835   0.35772   0.29962   0.00000  Uiso   1.00
H52    H     0.34521   0.11464   0.22745   0.00000  Uiso   1.00
H53    H     0.32592   0.08224   0.28196   0.00000  Uiso   1.00
H54    H     0.32221   0.15632   0.33086   0.00000  Uiso   1.00
H55    H     0.37733   0.14670   0.30571   0.00000  Uiso   1.00
H56    H     0.34064   0.18911   0.27661   0.00000  Uiso   1.00
H57    H     0.23281   0.37117   0.04750   0.00000  Uiso   1.00
H58    H     0.19053   0.41675   0.04631   0.00000  Uiso   1.00
H59    H     0.47042   0.32131   0.13839   0.00000  Uiso   1.00
H60    H     0.13177   0.35781   0.03355   0.00000  Uiso   1.00
H61    H     0.17448   0.35174   0.31962   0.00000  Uiso   1.00
H62    H     0.17195   0.31077   0.03804   0.00000  Uiso   1.00
H63    H     0.02903   0.18083   0.13560   0.00000  Uiso   1.00
H64    H     0.11117   0.32030   0.19879   0.00000  Uiso   1.00
H65    H     0.38967   0.17920   0.19607   0.00000  Uiso   1.00
H66    H     0.38938   0.32135   0.13838   0.00000  Uiso   1.00
H67    H     0.10996   0.18011   0.13603   0.00000  Uiso   1.00
H68    H     0.22620   0.03410   0.09063   0.00000  Uiso   1.00
N69    N     0.25000   0.12624   0.16667   0.00000  Uiso   1.00
N70    N     0.25000   0.37377   0.16667   0.00000  Uiso   1.00
O71    O     0.18453   0.28974   0.16667   0.00000  Uiso   1.00
O72    O     0.31033   0.37253   0.22427   0.00000  Uiso   1.00
O73    O     0.27910   0.12682   0.24964   0.00000  Uiso   1.00
O74    O     0.18971   0.37254   0.10900   0.00000  Uiso   1.00
O75    O     0.31547   0.21026   0.16666   0.00000  Uiso   1.00
O76    O     0.31547   0.28974   0.16666   0.00000  Uiso   1.00
O77    O     0.18453   0.21026   0.16667   0.00000  Uiso   1.00
O78    O     0.25000   0.28973   0.09511   0.00000  Uiso   1.00
O79    O     0.25000   0.21027   0.23822   0.00000  Uiso   1.00
O80    O     0.25000   0.28973   0.23822   0.00000  Uiso   1.00
O81    O     0.25000   0.21027   0.09511   0.00000  Uiso   1.00
O82    O     0.22093   0.12678   0.08367   0.00000  Uiso   1.00
Zn83   Zn    0.25000   0.30307   0.16667   0.00000  Uiso   1.00
Zn84   Zn    0.25000   0.19693   0.16667   0.00000  Uiso   1.00
C85    C     0.66394   0.25003   0.16671   0.00000  Uiso   1.00
C86    C     0.71909   0.44735   0.13799   0.00000  Uiso   1.00
C87    C     0.75012   0.24999   0.07291   0.00000  Uiso   1.00
C88    C     0.74989   0.24999   0.26043   0.00000  Uiso   1.00
C89    C     0.75001   0.02645   0.16667   0.00000  Uiso   1.00
C90    C     0.75001   0.47318   0.16667   0.00000  Uiso   1.00
C91    C     0.75007   0.24994   0.02181   0.00000  Uiso   1.00
C92    C     0.74993   0.24994   0.31152   0.00000  Uiso   1.00
C93    C     0.54742   0.28981   0.18573   0.00000  Uiso   1.00
C94    C     0.95300   0.21071   0.18459   0.00000  Uiso   1.00
C95    C     0.95290   0.29049   0.15174   0.00000  Uiso   1.00
C96    C     0.83608   0.25003   0.16677   0.00000  Uiso   1.00
C97    C     0.54681   0.21110   0.15005   0.00000  Uiso   1.00
C98    C     0.59340   0.28978   0.18492   0.00000  Uiso   1.00
C99    C     0.90705   0.21035   0.18359   0.00000  Uiso   1.00
C100   C     0.90692   0.29040   0.15151   0.00000  Uiso   1.00
C101   C     0.59276   0.21078   0.15002   0.00000  Uiso   1.00
C102   C     0.61606   0.25019   0.16719   0.00000  Uiso   1.00
C103   C     0.88398   0.25022   0.16722   0.00000  Uiso   1.00
C104   C     0.52409   0.25053   0.16811   0.00000  Uiso   1.00
C105   C     0.97597   0.25066   0.16835   0.00000  Uiso   1.00
C106   C     0.67604   0.11649   0.07206   0.00000  Uiso   1.00
C107   C     0.73442   0.10203   0.12567   0.00000  Uiso   1.00
C108   C     0.65797   0.15452   0.03737   0.00000  Uiso   1.00
C109   C     0.80241   0.37976   0.27596   0.00000  Uiso   1.00
C110   C     0.83306   0.34793   0.30631   0.00000  Uiso   1.00
C111   C     0.82386   0.11626   0.26158   0.00000  Uiso   1.00
C112   C     0.84213   0.15451   0.29585   0.00000  Uiso   1.00
C113   C     0.69769   0.37981   0.05733   0.00000  Uiso   1.00
C114   C     0.66706   0.34801   0.02691   0.00000  Uiso   1.00
C115   C     0.77955   0.39763   0.19638   0.00000  Uiso   1.00
C116   C     0.76560   0.10204   0.20766   0.00000  Uiso   1.00
C117   C     0.72046   0.39763   0.13695   0.00000  Uiso   1.00
C118   C     0.73571   0.05227   0.12466   0.00000  Uiso   1.00
C119   C     0.78093   0.44735   0.19535   0.00000  Uiso   1.00
C120   C     0.76432   0.05227   0.20867   0.00000  Uiso   1.00
H121   H     0.53011   0.32020   0.20045   0.00000  Uiso   1.00
H122   H     0.80658   0.46541   0.21645   0.00000  Uiso   1.00
H123   H     0.77384   0.03409   0.24270   0.00000  Uiso   1.00
H124   H     0.69345   0.46542   0.11689   0.00000  Uiso   1.00
H125   H     0.65482   0.11546   0.10631   0.00000  Uiso   1.00
H126   H     0.67361   0.08226   0.05213   0.00000  Uiso   1.00
H127   H     0.67777   0.15573   0.00224   0.00000  Uiso   1.00
H128   H     0.62267   0.14693   0.02780   0.00000  Uiso   1.00
H129   H     0.65983   0.18932   0.05614   0.00000  Uiso   1.00
H130   H     0.76730   0.37113   0.28584   0.00000  Uiso   1.00
H131   H     0.80960   0.41670   0.28699   0.00000  Uiso   1.00
H132   H     0.97057   0.17997   0.19820   0.00000  Uiso   1.00
H133   H     0.82570   0.35165   0.01362   0.00000  Uiso   1.00
H134   H     0.82812   0.31071   0.29518   0.00000  Uiso   1.00
H135   H     0.86835   0.35772   0.29962   0.00000  Uiso   1.00
H136   H     0.84521   0.11464   0.22745   0.00000  Uiso   1.00
H137   H     0.82592   0.08224   0.28196   0.00000  Uiso   1.00
H138   H     0.82221   0.15632   0.33086   0.00000  Uiso   1.00
H139   H     0.87733   0.14670   0.30571   0.00000  Uiso   1.00
H140   H     0.84064   0.18911   0.27661   0.00000  Uiso   1.00
H141   H     0.73281   0.37117   0.04750   0.00000  Uiso   1.00
H142   H     0.69053   0.41675   0.04631   0.00000  Uiso   1.00
H143   H     0.97042   0.32131   0.13839   0.00000  Uiso   1.00
H144   H     0.63177   0.35781   0.03355   0.00000  Uiso   1.00
H145   H     0.67448   0.35174   0.31962   0.00000  Uiso   1.00
H146   H     0.67195   0.31077   0.03804   0.00000  Uiso   1.00
H147   H     0.52903   0.18083   0.13560   0.00000  Uiso   1.00
H148   H     0.61117   0.32030   0.19879   0.00000  Uiso   1.00
H149   H     0.88967   0.17920   0.19607   0.00000  Uiso   1.00
H150   H     0.88938   0.32135   0.13838   0.00000  Uiso   1.00
H151   H     0.60996   0.18011   0.13603   0.00000  Uiso   1.00
H152   H     0.72620   0.03410   0.09063   0.00000  Uiso   1.00
N153   N     0.75000   0.12624   0.16667   0.00000  Uiso   1.00
N154   N     0.75000   0.37377   0.16667   0.00000  Uiso   1.00
O155   O     0.68453   0.28974   0.16667   0.00000  Uiso   1.00
O156   O     0.81033   0.37253   0.22427   0.00000  Uiso   1.00
O157   O     0.77910   0.12682   0.24964   0.00000  Uiso   1.00
O158   O     0.68971   0.37254   0.10900   0.00000  Uiso   1.00
O159   O     0.81547   0.21026   0.16666   0.00000  Uiso   1.00
O160   O     0.81547   0.28974   0.16666   0.00000  Uiso   1.00
O161   O     0.68453   0.21026   0.16667   0.00000  Uiso   1.00
O162   O     0.75000   0.28973   0.09511   0.00000  Uiso   1.00
O163   O     0.75000   0.21027   0.23822   0.00000  Uiso   1.00
O164   O     0.75000   0.28973   0.23822   0.00000  Uiso   1.00
O165   O     0.75000   0.21027   0.09511   0.00000  Uiso   1.00
O166   O     0.72093   0.12678   0.08367   0.00000  Uiso   1.00
Zn167  Zn    0.75000   0.30307   0.16667   0.00000  Uiso   1.00
Zn168  Zn    0.75000   0.19693   0.16667   0.00000  Uiso   1.00
C169   C     0.16394   0.75003   0.16671   0.00000  Uiso   1.00
C170   C     0.21909   0.94735   0.13799   0.00000  Uiso   1.00
C171   C     0.25012   0.74999   0.07291   0.00000  Uiso   1.00
C172   C     0.24989   0.74999   0.26043   0.00000  Uiso   1.00
C173   C     0.25001   0.52645   0.16667   0.00000  Uiso   1.00
C174   C     0.25001   0.97318   0.16667   0.00000  Uiso   1.00
C175   C     0.25007   0.74994   0.02181   0.00000  Uiso   1.00
C176   C     0.24993   0.74994   0.31152   0.00000  Uiso   1.00
C177   C     0.04742   0.78981   0.18573   0.00000  Uiso   1.00
C178   C     0.45300   0.71071   0.18459   0.00000  Uiso   1.00
C179   C     0.45290   0.79049   0.15174   0.00000  Uiso   1.00
C180   C     0.33608   0.75003   0.16677   0.00000  Uiso   1.00
C181   C     0.04681   0.71110   0.15005   0.00000  Uiso   1.00
C182   C     0.09340   0.78978   0.18492   0.00000  Uiso   1.00
C183   C     0.40705   0.71035   0.18359   0.00000  Uiso   1.00
C184   C     0.40692   0.79040   0.15151   0.00000  Uiso   1.00
C185   C     0.09276   0.71078   0.15002   0.00000  Uiso   1.00
C186   C     0.11606   0.75019   0.16719   0.00000  Uiso   1.00
C187   C     0.38398   0.75022   0.16722   0.00000  Uiso   1.00
C188   C     0.02409   0.75053   0.16811   0.00000  Uiso   1.00
C189   C     0.47597   0.75066   0.16835   0.00000  Uiso   1.00
C190   C     0.17604   0.61649   0.07206   0.00000  Uiso   1.00
C191   C     0.23442   0.60203   0.12567   0.00000  Uiso   1.00
C192   C     0.15797   0.65452   0.03737   0.00000  Uiso   1.00
C193   C     0.30241   0.87976   0.27596   0.00000  Uiso   1.00
C194   C     0.33306   0.84793   0.30631   0.00000  Uiso   1.00
C195   C     0.32386   0.61626   0.26158   0.00000  Uiso   1.00
C196   C     0.34213   0.65451   0.29585   0.00000  Uiso   1.00
C197   C     0.19769   0.87981   0.05733   0.00000  Uiso   1.00
C198   C     0.16706   0.84801   0.02691   0.00000  Uiso   1.00
C199   C     0.27955   0.89763   0.19638   0.00000  Uiso   1.00
C200   C     0.26560   0.60204   0.20766   0.00000  Uiso   1.00
C201   C     0.22046   0.89763   0.13695   0.00000  Uiso   1.00
C202   C     0.23571   0.55227   0.12466   0.00000  Uiso   1.00
C203   C     0.28093   0.94735   0.19535   0.00000  Uiso   1.00
C204   C     0.26432   0.55227   0.20867   0.00000  Uiso   1.00
H205   H     0.03011   0.82020   0.20045   0.00000  Uiso   1.00
H206   H     0.30658   0.96541   0.21645   0.00000  Uiso   1.00
H207   H     0.27384   0.53409   0.24270   0.00000  Uiso   1.00
H208   H     0.19345   0.96542   0.11689   0.00000  Uiso   1.00
H209   H     0.15482   0.61546   0.10631   0.00000  Uiso   1.00
H210   H     0.17361   0.58226   0.05213   0.00000  Uiso   1.00
H211   H     0.17777   0.65573   0.00224   0.00000  Uiso   1.00
H212   H     0.12267   0.64693   0.02780   0.00000  Uiso   1.00
H213   H     0.15983   0.68932   0.05614   0.00000  Uiso   1.00
H214   H     0.26730   0.87113   0.28584   0.00000  Uiso   1.00
H215   H     0.30960   0.91670   0.28699   0.00000  Uiso   1.00
H216   H     0.47057   0.67997   0.19820   0.00000  Uiso   1.00
H217   H     0.32570   0.85165   0.01362   0.00000  Uiso   1.00
H218   H     0.32812   0.81071   0.29518   0.00000  Uiso   1.00
H219   H     0.36835   0.85772   0.29962   0.00000  Uiso   1.00
H220   H     0.34521   0.61464   0.22745   0.00000  Uiso   1.00
H221   H     0.32592   0.58224   0.28196   0.00000  Uiso   1.00
H222   H     0.32221   0.65632   0.33086   0.00000  Uiso   1.00
H223   H     0.37733   0.64670   0.30571   0.00000  Uiso   1.00
H224   H     0.34064   0.68911   0.27661   0.00000  Uiso   1.00
H225   H     0.23281   0.87117   0.04750   0.00000  Uiso   1.00
H226   H     0.19053   0.91675   0.04631   0.00000  Uiso   1.00
H227   H     0.47042   0.82131   0.13839   0.00000  Uiso   1.00
H228   H     0.13177   0.85781   0.03355   0.00000  Uiso   1.00
H229   H     0.17448   0.85174   0.31962   0.00000  Uiso   1.00
H230   H     0.17195   0.81077   0.03804   0.00000  Uiso   1.00
H231   H     0.02903   0.68083   0.13560   0.00000  Uiso   1.00
H232   H     0.11117   0.82030   0.19879   0.00000  Uiso   1.00
H233   H     0.38967   0.67920   0.19607   0.00000  Uiso   1.00
H234   H     0.38938   0.82135   0.13838   0.00000  Uiso   1.00
H235   H     0.10996   0.68011   0.13603   0.00000  Uiso   1.00
H236   H     0.22620   0.53410   0.09063   0.00000  Uiso   1.00
N237   N     0.25000   0.62624   0.16667   0.00000  Uiso   1.00
N238   N     0.25000   0.87377   0.16667   0.00000  Uiso   1.00
O239   O     0.18453   0.78974   0.16667   0.00000  Uiso   1.00
O240   O     0.31033   0.87253   0.22427   0.00000  Uiso   1.00
O241   O     0.27910   0.62682   0.24964   0.00000  Uiso   1.00
O242   O     0.18971   0.87254   0.10900   0.00000  Uiso   1.00
O243   O     0.31547   0.71026   0.16666   0.00000  Uiso   1.00
O244   O     0.31547   0.78974   0.16666   0.00000  Uiso   1.00
O245   O     0.18453   0.71026   0.16667   0.00000  Uiso   1.00
O246   O     0.25000   0.78973   0.09511   0.00000  Uiso   1.00
O247   O     0.25000   0.71027   0.23822   0.00000  Uiso   1.00
O248   O     0.25000   0.78973   0.23822   0.00000  Uiso   1.00
O249   O     0.25000   0.71027   0.09511   0.00000  Uiso   1.00
O250   O     0.22093   0.62678   0.08367   0.00000  Uiso   1.00
Zn251  Zn    0.25000   0.80307   0.16667   0.00000  Uiso   1.00
Zn252  Zn    0.25000   0.69693   0.16667   0.00000  Uiso   1.00
C253   C     0.66394   0.75003   0.16671   0.00000  Uiso   1.00
C254   C     0.71909   0.94735   0.13799   0.00000  Uiso   1.00
C255   C     0.75012   0.74999   0.07291   0.00000  Uiso   1.00
C256   C     0.74989   0.74999   0.26043   0.00000  Uiso   1.00
C257   C     0.75001   0.52645   0.16667   0.00000  Uiso   1.00
C258   C     0.75001   0.97318   0.16667   0.00000  Uiso   1.00
C259   C     0.75007   0.74994   0.02181   0.00000  Uiso   1.00
C260   C     0.74993   0.74994   0.31152   0.00000  Uiso   1.00
C261   C     0.54742   0.78981   0.18573   0.00000  Uiso   1.00
C262   C     0.95300   0.71071   0.18459   0.00000  Uiso   1.00
C263   C     0.95290   0.79049   0.15174   0.00000  Uiso   1.00
C264   C     0.83608   0.75003   0.16677   0.00000  Uiso   1.00
C265   C     0.54681   0.71110   0.15005   0.00000  Uiso   1.00
C266   C     0.59340   0.78978   0.18492   0.00000  Uiso   1.00
C267   C     0.90705   0.71035   0.18359   0.00000  Uiso   1.00
C268   C     0.90692   0.79040   0.15151   0.00000  Uiso   1.00
C269   C     0.59276   0.71078   0.15002   0.00000  Uiso   1.00
C270   C     0.61606   0.75019   0.16719   0.00000  Uiso   1.00
C271   C     0.88398   0.75022   0.16722   0.00000  Uiso   1.00
C272   C     0.52409   0.75053   0.16811   0.00000  Uiso   1.00
C273   C     0.97597   0.75066   0.16835   0.00000  Uiso   1.00
C274   C     0.67604   0.61649   0.07206   0.00000  Uiso   1.00
C275   C     0.73442   0.60203   0.12567   0.00000  Uiso   1.00
C276   C     0.65797   0.65452   0.03737   0.00000  Uiso   1.00
C277   C     0.80241   0.87976   0.27596   0.00000  Uiso   1.00
C278   C     0.83306   0.84793   0.30631   0.00000  Uiso   1.00
C279   C     0.82386   0.61626   0.26158   0.00000  Uiso   1.00
C280   C     0.84213   0.65451   0.29585   0.00000  Uiso   1.00
C281   C     0.69769   0.87981   0.05733   0.00000  Uiso   1.00
C282   C     0.66706   0.84801   0.02691   0.00000  Uiso   1.00
C283   C     0.77955   0.89763   0.19638   0.00000  Uiso   1.00
C284   C     0.76560   0.60204   0.20766   0.00000  Uiso   1.00
C285   C     0.72046   0.89763   0.13695   0.00000  Uiso   1.00
C286   C     0.73571   0.55227   0.12466   0.00000  Uiso   1.00
C287   C     0.78093   0.94735   0.19535   0.00000  Uiso   1.00
C288   C     0.76432   0.55227   0.20867   0.00000  Uiso   1.00
H289   H     0.53011   0.82020   0.20045   0.00000  Uiso   1.00
H290   H     0.80658   0.96541   0.21645   0.00000  Uiso   1.00
H291   H     0.77384   0.53409   0.24270   0.00000  Uiso   1.00
H292   H     0.69345   0.96542   0.11689   0.00000  Uiso   1.00
H293   H     0.65482   0.61546   0.10631   0.00000  Uiso   1.00
H294   H     0.67361   0.58226   0.05213   0.00000  Uiso   1.00
H295   H     0.67777   0.65573   0.00224   0.00000  Uiso   1.00
H296   H     0.62267   0.64693   0.02780   0.00000  Uiso   1.00
H297   H     0.65983   0.68932   0.05614   0.00000  Uiso   1.00
H298   H     0.76730   0.87113   0.28584   0.00000  Uiso   1.00
H299   H     0.80960   0.91670   0.28699   0.00000  Uiso   1.00
H300   H     0.97057   0.67997   0.19820   0.00000  Uiso   1.00
H301   H     0.82570   0.85165   0.01362   0.00000  Uiso   1.00
H302   H     0.82812   0.81071   0.29518   0.00000  Uiso   1.00
H303   H     0.86835   0.85772   0.29962   0.00000  Uiso   1.00
H304   H     0.84521   0.61464   0.22745   0.00000  Uiso   1.00
H305   H     0.82592   0.58224   0.28196   0.00000  Uiso   1.00
H306   H     0.82221   0.65632   0.33086   0.00000  Uiso   1.00
H307   H     0.87733   0.64670   0.30571   0.00000  Uiso   1.00
H308   H     0.84064   0.68911   0.27661   0.00000  Uiso   1.00
H309   H     0.73281   0.87117   0.04750   0.00000  Uiso   1.00
H310   H     0.69053   0.91675   0.04631   0.00000  Uiso   1.00
H311   H     0.97042   0.82131   0.13839   0.00000  Uiso   1.00
H312   H     0.63177   0.85781   0.03355   0.00000  Uiso   1.00
H313   H     0.67448   0.85174   0.31962   0.00000  Uiso   1.00
H314   H     0.67195   0.81077   0.03804   0.00000  Uiso   1.00
H315   H     0.52903   0.68083   0.13560   0.00000  Uiso   1.00
H316   H     0.61117   0.82030   0.19879   0.00000  Uiso   1.00
H317   H     0.88967   0.67920   0.19607   0.00000  Uiso   1.00
H318   H     0.88938   0.82135   0.13838   0.00000  Uiso   1.00
H319   H     0.60996   0.68011   0.13603   0.00000  Uiso   1.00
H320   H     0.72620   0.53410   0.09063   0.00000  Uiso   1.00
N321   N     0.75000   0.62624   0.16667   0.00000  Uiso   1.00
N322   N     0.75000   0.87377   0.16667   0.00000  Uiso   1.00
O323   O     0.68453   0.78974   0.16667   0.00000  Uiso   1.00
O324   O     0.81033   0.87253   0.22427   0.00000  Uiso   1.00
O325   O     0.77910   0.62682   0.24964   0.00000  Uiso   1.00
O326   O     0.68971   0.87254   0.10900   0.00000  Uiso   1.00
O327   O     0.81547   0.71026   0.16666   0.00000  Uiso   1.00
O328   O     0.81547   0.78974   0.16666   0.00000  Uiso   1.00
O329   O     0.68453   0.71026   0.16667   0.00000  Uiso   1.00
O330   O     0.75000   0.78973   0.09511   0.00000  Uiso   1.00
O331   O     0.75000   0.71027   0.23822   0.00000  Uiso   1.00
O332   O     0.75000   0.78973   0.23822   0.00000  Uiso   1.00
O333   O     0.75000   0.71027   0.09511   0.00000  Uiso   1.00
O334   O     0.72093   0.62678   0.08367   0.00000  Uiso   1.00
Zn335  Zn    0.75000   0.80307   0.16667   0.00000  Uiso   1.00
Zn336  Zn    0.75000   0.69693   0.16667   0.00000  Uiso   1.00
C337   C     0.16394   0.25003   0.50005   0.00000  Uiso   1.00
C338   C     0.21909   0.44735   0.47132   0.00000  Uiso   1.00
C339   C     0.25012   0.24999   0.40624   0.00000  Uiso   1.00
C340   C     0.24989   0.24999   0.59376   0.00000  Uiso   1.00
C341   C     0.25001   0.02645   0.50000   0.00000  Uiso   1.00
C342   C     0.25001   0.47318   0.50001   0.00000  Uiso   1.00
C343   C     0.25007   0.24994   0.35515   0.00000  Uiso   1.00
C344   C     0.24993   0.24994   0.64485   0.00000  Uiso   1.00
C345   C     0.04742   0.28981   0.51906   0.00000  Uiso   1.00
C346   C     0.45300   0.21071   0.51792   0.00000  Uiso   1.00
C347   C     0.45290   0.29049   0.48507   0.00000  Uiso   1.00
C348   C     0.33608   0.25003   0.50010   0.00000  Uiso   1.00
C349   C     0.04681   0.21110   0.48338   0.00000  Uiso   1.00
C350   C     0.09340   0.28978   0.51825   0.00000  Uiso   1.00
C351   C     0.40705   0.21035   0.51693   0.00000  Uiso   1.00
C352   C     0.40692   0.29040   0.48484   0.00000  Uiso   1.00
C353   C     0.09276   0.21078   0.48335   0.00000  Uiso   1.00
C354   C     0.11606   0.25019   0.50052   0.00000  Uiso   1.00
C355   C     0.38398   0.25022   0.50055   0.00000  Uiso   1.00
C356   C     0.02409   0.25053   0.50144   0.00000  Uiso   1.00
C357   C     0.47597   0.25066   0.50168   0.00000  Uiso   1.00
C358   C     0.17604   0.11649   0.40539   0.00000  Uiso   1.00
C359   C     0.23442   0.10203   0.45901   0.00000  Uiso   1.00
C360   C     0.15797   0.15452   0.37070   0.00000  Uiso   1.00
C361   C     0.30241   0.37976   0.60930   0.00000  Uiso   1.00
C362   C     0.33306   0.34793   0.63965   0.00000  Uiso   1.00
C363   C     0.32386   0.11626   0.59491   0.00000  Uiso   1.00
C364   C     0.34213   0.15451   0.62919   0.00000  Uiso   1.00
C365   C     0.19769   0.37981   0.39066   0.00000  Uiso   1.00
C366   C     0.16706   0.34801   0.36025   0.00000  Uiso   1.00
C367   C     0.27955   0.39763   0.52971   0.00000  Uiso   1.00
C368   C     0.26560   0.10204   0.54099   0.00000  Uiso   1.00
C369   C     0.22046   0.39763   0.47028   0.00000  Uiso   1.00
C370   C     0.23571   0.05227   0.45800   0.00000  Uiso   1.00
C371   C     0.28093   0.44735   0.52868   0.00000  Uiso   1.00
C372   C     0.26432   0.05227   0.54201   0.00000  Uiso   1.00
H373   H     0.03011   0.32020   0.53378   0.00000  Uiso   1.00
H374   H     0.30658   0.46541   0.54978   0.00000  Uiso   1.00
H375   H     0.27384   0.03409   0.57604   0.00000  Uiso   1.00
H376   H     0.19345   0.46542   0.45022   0.00000  Uiso   1.00
H377   H     0.15482   0.11546   0.43964   0.00000  Uiso   1.00
H378   H     0.17361   0.08226   0.38547   0.00000  Uiso   1.00
H379   H     0.17777   0.15573   0.33557   0.00000  Uiso   1.00
H380   H     0.12267   0.14693   0.36113   0.00000  Uiso   1.00
H381   H     0.15983   0.18932   0.38948   0.00000  Uiso   1.00
H382   H     0.26730   0.37113   0.61917   0.00000  Uiso   1.00
H383   H     0.30960   0.41670   0.62032   0.00000  Uiso   1.00
H384   H     0.47057   0.17997   0.53153   0.00000  Uiso   1.00
H385   H     0.32570   0.35165   0.34695   0.00000  Uiso   1.00
H386   H     0.32812   0.31071   0.62852   0.00000  Uiso   1.00
H387   H     0.36835   0.35772   0.63295   0.00000  Uiso   1.00
H388   H     0.34521   0.11464   0.56078   0.00000  Uiso   1.00
H389   H     0.32592   0.08224   0.61530   0.00000  Uiso   1.00
H390   H     0.32221   0.15632   0.66419   0.00000  Uiso   1.00
H391   H     0.37733   0.14670   0.63904   0.00000  Uiso   1.00
H392   H     0.34064   0.18911   0.60994   0.00000  Uiso   1.00
H393   H     0.23281   0.37117   0.38083   0.00000  Uiso   1.00
H394   H     0.19053   0.41675   0.37964   0.00000  Uiso   1.00
H395   H     0.47042   0.32131   0.47173   0.00000  Uiso   1.00
H396   H     0.13177   0.35781   0.36688   0.00000  Uiso   1.00
H397   H     0.17448   0.35174   0.65296   0.00000  Uiso   1.00
H398   H     0.17195   0.31077   0.37137   0.00000  Uiso   1.00
H399   H     0.02903   0.18083   0.46893   0.00000  Uiso   1.00
H400   H     0.11117   0.32030   0.53212   0.00000  Uiso   1.00
H401   H     0.38967   0.17920   0.52940   0.00000  Uiso   1.00
H402   H     0.38938   0.32135   0.47172   0.00000  Uiso   1.00
H403   H     0.10996   0.18011   0.46936   0.00000  Uiso   1.00
H404   H     0.22620   0.03410   0.42396   0.00000  Uiso   1.00
N405   N     0.25000   0.12624   0.50000   0.00000  Uiso   1.00
N406   N     0.25000   0.37377   0.50000   0.00000  Uiso   1.00
O407   O     0.18453   0.28974   0.50000   0.00000  Uiso   1.00
O408   O     0.31033   0.37253   0.55761   0.00000  Uiso   1.00
O409   O     0.27910   0.12682   0.58298   0.00000  Uiso   1.00
O410   O     0.18971   0.37254   0.44234   0.00000  Uiso   1.00
O411   O     0.31547   0.21026   0.50000   0.00000  Uiso   1.00
O412   O     0.31547   0.28974   0.50000   0.00000  Uiso   1.00
O413   O     0.18453   0.21026   0.50000   0.00000  Uiso   1.00
O414   O     0.25000   0.28973   0.42845   0.00000  Uiso   1.00
O415   O     0.25000   0.21027   0.57155   0.00000  Uiso   1.00
O416   O     0.25000   0.28973   0.57155   0.00000  Uiso   1.00
O417   O     0.25000   0.21027   0.42845   0.00000  Uiso   1.00
O418   O     0.22093   0.12678   0.41700   0.00000  Uiso   1.00
Zn419  Zn    0.25000   0.30307   0.50000   0.00000  Uiso   1.00
Zn420  Zn    0.25000   0.19693   0.50000   0.00000  Uiso   1.00
C421   C     0.66394   0.25003   0.50005   0.00000  Uiso   1.00
C422   C     0.71909   0.44735   0.47132   0.00000  Uiso   1.00
C423   C     0.75012   0.24999   0.40624   0.00000  Uiso   1.00
C424   C     0.74989   0.24999   0.59376   0.00000  Uiso   1.00
C425   C     0.75001   0.02645   0.50000   0.00000  Uiso   1.00
C426   C     0.75001   0.47318   0.50001   0.00000  Uiso   1.00
C427   C     0.75007   0.24994   0.35515   0.00000  Uiso   1.00
C428   C     0.74993   0.24994   0.64485   0.00000  Uiso   1.00
C429   C     0.54742   0.28981   0.51906   0.00000  Uiso   1.00
C430   C     0.95300   0.21071   0.51792   0.00000  Uiso   1.00
C431   C     0.95290   0.29049   0.48507   0.00000  Uiso   1.00
C432   C     0.83608   0.25003   0.50010   0.00000  Uiso   1.00
C433   C     0.54681   0.21110   0.48338   0.00000  Uiso   1.00
C434   C     0.59340   0.28978   0.51825   0.00000  Uiso   1.00
C435   C     0.90705   0.21035   0.51693   0.00000  Uiso   1.00
C436   C     0.90692   0.29040   0.48484   0.00000  Uiso   1.00
C437   C     0.59276   0.21078   0.48335   0.00000  Uiso   1.00
C438   C     0.61606   0.25019   0.50052   0.00000  Uiso   1.00
C439   C     0.88398   0.25022   0.50055   0.00000  Uiso   1.00
C440   C     0.52409   0.25053   0.50144   0.00000  Uiso   1.00
C441   C     0.97597   0.25066   0.50168   0.00000  Uiso   1.00
C442   C     0.67604   0.11649   0.40539   0.00000  Uiso   1.00
C443   C     0.73442   0.10203   0.45901   0.00000  Uiso   1.00
C444   C     0.65797   0.15452   0.37070   0.00000  Uiso   1.00
C445   C     0.80241   0.37976   0.60930   0.00000  Uiso   1.00
C446   C     0.83306   0.34793   0.63965   0.00000  Uiso   1.00
C447   C     0.82386   0.11626   0.59491   0.00000  Uiso   1.00
C448   C     0.84213   0.15451   0.62919   0.00000  Uiso   1.00
C449   C     0.69769   0.37981   0.39066   0.00000  Uiso   1.00
C450   C     0.66706   0.34801   0.36025   0.00000  Uiso   1.00
C451   C     0.77955   0.39763   0.52971   0.00000  Uiso   1.00
C452   C     0.76560   0.10204   0.54099   0.00000  Uiso   1.00
C453   C     0.72046   0.39763   0.47028   0.00000  Uiso   1.00
C454   C     0.73571   0.05227   0.45800   0.00000  Uiso   1.00
C455   C     0.78093   0.44735   0.52868   0.00000  Uiso   1.00
C456   C     0.76432   0.05227   0.54201   0.00000  Uiso   1.00
H457   H     0.53011   0.32020   0.53378   0.00000  Uiso   1.00
H458   H     0.80658   0.46541   0.54978   0.00000  Uiso   1.00
H459   H     0.77384   0.03409   0.57604   0.00000  Uiso   1.00
H460   H     0.69345   0.46542   0.45022   0.00000  Uiso   1.00
H461   H     0.65482   0.11546   0.43964   0.00000  Uiso   1.00
H462   H     0.67361   0.08226   0.38547   0.00000  Uiso   1.00
H463   H     0.67777   0.15573   0.33557   0.00000  Uiso   1.00
H464   H     0.62267   0.14693   0.36113   0.00000  Uiso   1.00
H465   H     0.65983   0.18932   0.38948   0.00000  Uiso   1.00
H466   H     0.76730   0.37113   0.61917   0.00000  Uiso   1.00
H467   H     0.80960   0.41670   0.62032   0.00000  Uiso   1.00
H468   H     0.97057   0.17997   0.53153   0.00000  Uiso   1.00
H469   H     0.82570   0.35165   0.34695   0.00000  Uiso   1.00
H470   H     0.82812   0.31071   0.62852   0.00000  Uiso   1.00
H471   H     0.86835   0.35772   0.63295   0.00000  Uiso   1.00
H472   H     0.84521   0.11464   0.56078   0.00000  Uiso   1.00
H473   H     0.82592   0.08224   0.61530   0.00000  Uiso   1.00
H474   H     0.82221   0.15632   0.66419   0.00000  Uiso   1.00
H475   H     0.87733   0.14670   0.63904   0.00000  Uiso   1.00
H476   H     0.84064   0.18911   0.60994   0.00000  Uiso   1.00
H477   H     0.73281   0.37117   0.38083   0.00000  Uiso   1.00
H478   H     0.69053   0.41675   0.37964   0.00000  Uiso   1.00
H479   H     0.97042   0.32131   0.47173   0.00000  Uiso   1.00
H480   H     0.63177   0.35781   0.36688   0.00000  Uiso   1.00
H481   H     0.67448   0.35174   0.65296   0.00000  Uiso   1.00
H482   H     0.67195   0.31077   0.37137   0.00000  Uiso   1.00
H483   H     0.52903   0.18083   0.46893   0.00000  Uiso   1.00
H484   H     0.61117   0.32030   0.53212   0.00000  Uiso   1.00
H485   H     0.88967   0.17920   0.52940   0.00000  Uiso   1.00
H486   H     0.88938   0.32135   0.47172   0.00000  Uiso   1.00
H487   H     0.60996   0.18011   0.46936   0.00000  Uiso   1.00
H488   H     0.72620   0.03410   0.42396   0.00000  Uiso   1.00
N489   N     0.75000   0.12624   0.50000   0.00000  Uiso   1.00
N490   N     0.75000   0.37377   0.50000   0.00000  Uiso   1.00
O491   O     0.68453   0.28974   0.50000   0.00000  Uiso   1.00
O492   O     0.81033   0.37253   0.55761   0.00000  Uiso   1.00
O493   O     0.77910   0.12682   0.58298   0.00000  Uiso   1.00
O494   O     0.68971   0.37254   0.44234   0.00000  Uiso   1.00
O495   O     0.81547   0.21026   0.50000   0.00000  Uiso   1.00
O496   O     0.81547   0.28974   0.50000   0.00000  Uiso   1.00
O497   O     0.68453   0.21026   0.50000   0.00000  Uiso   1.00
O498   O     0.75000   0.28973   0.42845   0.00000  Uiso   1.00
O499   O     0.75000   0.21027   0.57155   0.00000  Uiso   1.00
O500   O     0.75000   0.28973   0.57155   0.00000  Uiso   1.00
O501   O     0.75000   0.21027   0.42845   0.00000  Uiso   1.00
O502   O     0.72093   0.12678   0.41700   0.00000  Uiso   1.00
Zn503  Zn    0.75000   0.30307   0.50000   0.00000  Uiso   1.00
Zn504  Zn    0.75000   0.19693   0.50000   0.00000  Uiso   1.00
C505   C     0.16394   0.75003   0.50005   0.00000  Uiso   1.00
C506   C     0.21909   0.94735   0.47132   0.00000  Uiso   1.00
C507   C     0.25012   0.74999   0.40624   0.00000  Uiso   1.00
C508   C     0.24989   0.74999   0.59376   0.00000  Uiso   1.00
C509   C     0.25001   0.52645   0.50000   0.00000  Uiso   1.00
C510   C     0.25001   0.97318   0.50001   0.00000  Uiso   1.00
C511   C     0.25007   0.74994   0.35515   0.00000  Uiso   1.00
C512   C     0.24993   0.74994   0.64485   0.00000  Uiso   1.00
C513   C     0.04742   0.78981   0.51906   0.00000  Uiso   1.00
C514   C     0.45300   0.71071   0.51792   0.00000  Uiso   1.00
C515   C     0.45290   0.79049   0.48507   0.00000  Uiso   1.00
C516   C     0.33608   0.75003   0.50010   0.00000  Uiso   1.00
C517   C     0.04681   0.71110   0.48338   0.00000  Uiso   1.00
C518   C     0.09340   0.78978   0.51825   0.00000  Uiso   1.00
C519   C     0.40705   0.71035   0.51693   0.00000  Uiso   1.00
C520   C     0.40692   0.79040   0.48484   0.00000  Uiso   1.00
C521   C     0.09276   0.71078   0.48335   0.00000  Uiso   1.00
C522   C     0.11606   0.75019   0.50052   0.00000  Uiso   1.00
C523   C     0.38398   0.75022   0.50055   0.00000  Uiso   1.00
C524   C     0.02409   0.75053   0.50144   0.00000  Uiso   1.00
C525   C     0.47597   0.75066   0.50168   0.00000  Uiso   1.00
C526   C     0.17604   0.61649   0.40539   0.00000  Uiso   1.00
C527   C     0.23442   0.60203   0.45901   0.00000  Uiso   1.00
C528   C     0.15797   0.65452   0.37070   0.00000  Uiso   1.00
C529   C     0.30241   0.87976   0.60930   0.00000  Uiso   1.00
C530   C     0.33306   0.84793   0.63965   0.00000  Uiso   1.00
C531   C     0.32386   0.61626   0.59491   0.00000  Uiso   1.00
C532   C     0.34213   0.65451   0.62919   0.00000  Uiso   1.00
C533   C     0.19769   0.87981   0.39066   0.00000  Uiso   1.00
C534   C     0.16706   0.84801   0.36025   0.00000  Uiso   1.00
C535   C     0.27955   0.89763   0.52971   0.00000  Uiso   1.00
C536   C     0.26560   0.60204   0.54099   0.00000  Uiso   1.00
C537   C     0.22046   0.89763   0.47028   0.00000  Uiso   1.00
C538   C     0.23571   0.55227   0.45800   0.00000  Uiso   1.00
C539   C     0.28093   0.94735   0.52868   0.00000  Uiso   1.00
C540   C     0.26432   0.55227   0.54201   0.00000  Uiso   1.00
H541   H     0.03011   0.82020   0.53378   0.00000  Uiso   1.00
H542   H     0.30658   0.96541   0.54978   0.00000  Uiso   1.00
H543   H     0.27384   0.53409   0.57604   0.00000  Uiso   1.00
H544   H     0.19345   0.96542   0.45022   0.00000  Uiso   1.00
H545   H     0.15482   0.61546   0.43964   0.00000  Uiso   1.00
H546   H     0.17361   0.58226   0.38547   0.00000  Uiso   1.00
H547   H     0.17777   0.65573   0.33557   0.00000  Uiso   1.00
H548   H     0.12267   0.64693   0.36113   0.00000  Uiso   1.00
H549   H     0.15983   0.68932   0.38948   0.00000  Uiso   1.00
H550   H     0.26730   0.87113   0.61917   0.00000  Uiso   1.00
H551   H     0.30960   0.91670   0.62032   0.00000  Uiso   1.00
H552   H     0.47057   0.67997   0.53153   0.00000  Uiso   1.00
H553   H     0.32570   0.85165   0.34695   0.00000  Uiso   1.00
H554   H     0.32812   0.81071   0.62852   0.00000  Uiso   1.00
H555   H     0.36835   0.85772   0.63295   0.00000  Uiso   1.00
H556   H     0.34521   0.61464   0.56078   0.00000  Uiso   1.00
H557   H     0.32592   0.58224   0.61530   0.00000  Uiso   1.00
H558   H     0.32221   0.65632   0.66419   0.00000  Uiso   1.00
H559   H     0.37733   0.64670   0.63904   0.00000  Uiso   1.00
H560   H     0.34064   0.68911   0.60994   0.00000  Uiso   1.00
H561   H     0.23281   0.87117   0.38083   0.00000  Uiso   1.00
H562   H     0.19053   0.91675   0.37964   0.00000  Uiso   1.00
H563   H     0.47042   0.82131   0.47173   0.00000  Uiso   1.00
H564   H     0.13177   0.85781   0.36688   0.00000  Uiso   1.00
H565   H     0.17448   0.85174   0.65296   0.00000  Uiso   1.00
H566   H     0.17195   0.81077   0.37137   0.00000  Uiso   1.00
H567   H     0.02903   0.68083   0.46893   0.00000  Uiso   1.00
H568   H     0.11117   0.82030   0.53212   0.00000  Uiso   1.00
H569   H     0.38967   0.67920   0.52940   0.00000  Uiso   1.00
H570   H     0.38938   0.82135   0.47172   0.00000  Uiso   1.00
H571   H     0.10996   0.68011   0.46936   0.00000  Uiso   1.00
H572   H     0.22620   0.53410   0.42396   0.00000  Uiso   1.00
N573   N     0.25000   0.62624   0.50000   0.00000  Uiso   1.00
N574   N     0.25000   0.87377   0.50000   0.00000  Uiso   1.00
O575   O     0.18453   0.78974   0.50000   0.00000  Uiso   1.00
O576   O     0.31033   0.87253   0.55761   0.00000  Uiso   1.00
O577   O     0.27910   0.62682   0.58298   0.00000  Uiso   1.00
O578   O     0.18971   0.87254   0.44234   0.00000  Uiso   1.00
O579   O     0.31547   0.71026   0.50000   0.00000  Uiso   1.00
O580   O     0.31547   0.78974   0.50000   0.00000  Uiso   1.00
O581   O     0.18453   0.71026   0.50000   0.00000  Uiso   1.00
O582   O     0.25000   0.78973   0.42845   0.00000  Uiso   1.00
O583   O     0.25000   0.71027   0.57155   0.00000  Uiso   1.00
O584   O     0.25000   0.78973   0.57155   0.00000  Uiso   1.00
O585   O     0.25000   0.71027   0.42845   0.00000  Uiso   1.00
O586   O     0.22093   0.62678   0.41700   0.00000  Uiso   1.00
Zn587  Zn    0.25000   0.80307   0.50000   0.00000  Uiso   1.00
Zn588  Zn    0.25000   0.69693   0.50000   0.00000  Uiso   1.00
C589   C     0.66394   0.75003   0.50005   0.00000  Uiso   1.00
C590   C     0.71909   0.94735   0.47132   0.00000  Uiso   1.00
C591   C     0.75012   0.74999   0.40624   0.00000  Uiso   1.00
C592   C     0.74989   0.74999   0.59376   0.00000  Uiso   1.00
C593   C     0.75001   0.52645   0.50000   0.00000  Uiso   1.00
C594   C     0.75001   0.97318   0.50001   0.00000  Uiso   1.00
C595   C     0.75007   0.74994   0.35515   0.00000  Uiso   1.00
C596   C     0.74993   0.74994   0.64485   0.00000  Uiso   1.00
C597   C     0.54742   0.78981   0.51906   0.00000  Uiso   1.00
C598   C     0.95300   0.71071   0.51792   0.00000  Uiso   1.00
C599   C     0.95290   0.79049   0.48507   0.00000  Uiso   1.00
C600   C     0.83608   0.75003   0.50010   0.00000  Uiso   1.00
C601   C     0.54681   0.71110   0.48338   0.00000  Uiso   1.00
C602   C     0.59340   0.78978   0.51825   0.00000  Uiso   1.00
C603   C     0.90705   0.71035   0.51693   0.00000  Uiso   1.00
C604   C     0.90692   0.79040   0.48484   0.00000  Uiso   1.00
C605   C     0.59276   0.71078   0.48335   0.00000  Uiso   1.00
C606   C     0.61606   0.75019   0.50052   0.00000  Uiso   1.00
C607   C     0.88398   0.75022   0.50055   0.00000  Uiso   1.00
C608   C     0.52409   0.75053   0.50144   0.00000  Uiso   1.00
C609   C     0.97597   0.75066   0.50168   0.00000  Uiso   1.00
C610   C     0.67604   0.61649   0.40539   0.00000  Uiso   1.00
C611   C     0.73442   0.60203   0.45901   0.00000  Uiso   1.00
C612   C     0.65797   0.65452   0.37070   0.00000  Uiso   1.00
C613   C     0.80241   0.87976   0.60930   0.00000  Uiso   1.00
C614   C     0.83306   0.84793   0.63965   0.00000  Uiso   1.00
C615   C     0.82386   0.61626   0.59491   0.00000  Uiso   1.00
C616   C     0.84213   0.65451   0.62919   0.00000  Uiso   1.00
C617   C     0.69769   0.87981   0.39066   0.00000  Uiso   1.00
C618   C     0.66706   0.84801   0.36025   0.00000  Uiso   1.00
C619   C     0.77955   0.89763   0.52971   0.00000  Uiso   1.00
C620   C     0.76560   0.60204   0.54099   0.00000  Uiso   1.00
C621   C     0.72046   0.89763   0.47028   0.00000  Uiso   1.00
C622   C     0.73571   0.55227   0.45800   0.00000  Uiso   1.00
C623   C     0.78093   0.94735   0.52868   0.00000  Uiso   1.00
C624   C     0.76432   0.55227   0.54201   0.00000  Uiso   1.00
H625   H     0.53011   0.82020   0.53378   0.00000  Uiso   1.00
H626   H     0.80658   0.96541   0.54978   0.00000  Uiso   1.00
H627   H     0.77384   0.53409   0.57604   0.00000  Uiso   1.00
H628   H     0.69345   0.96542   0.45022   0.00000  Uiso   1.00
H629   H     0.65482   0.61546   0.43964   0.00000  Uiso   1.00
H630   H     0.67361   0.58226   0.38547   0.00000  Uiso   1.00
H631   H     0.67777   0.65573   0.33557   0.00000  Uiso   1.00
H632   H     0.62267   0.64693   0.36113   0.00000  Uiso   1.00
H633   H     0.65983   0.68932   0.38948   0.00000  Uiso   1.00
H634   H     0.76730   0.87113   0.61917   0.00000  Uiso   1.00
H635   H     0.80960   0.91670   0.62032   0.00000  Uiso   1.00
H636   H     0.97057   0.67997   0.53153   0.00000  Uiso   1.00
H637   H     0.82570   0.85165   0.34695   0.00000  Uiso   1.00
H638   H     0.82812   0.81071   0.62852   0.00000  Uiso   1.00
H639   H     0.86835   0.85772   0.63295   0.00000  Uiso   1.00
H640   H     0.84521   0.61464   0.56078   0.00000  Uiso   1.00
H641   H     0.82592   0.58224   0.61530   0.00000  Uiso   1.00
H642   H     0.82221   0.65632   0.66419   0.00000  Uiso   1.00
H643   H     0.87733   0.64670   0.63904   0.00000  Uiso   1.00
H644   H     0.84064   0.68911   0.60994   0.00000  Uiso   1.00
H645   H     0.73281   0.87117   0.38083   0.00000  Uiso   1.00
H646   H     0.69053   0.91675   0.37964   0.00000  Uiso   1.00
H647   H     0.97042   0.82131   0.47173   0.00000  Uiso   1.00
H648   H     0.63177   0.85781   0.36688   0.00000  Uiso   1.00
H649   H     0.67448   0.85174   0.65296   0.00000  Uiso   1.00
H650   H     0.67195   0.81077   0.37137   0.00000  Uiso   1.00
H651   H     0.52903   0.68083   0.46893   0.00000  Uiso   1.00
H652   H     0.61117   0.82030   0.53212   0.00000  Uiso   1.00
H653   H     0.88967   0.67920   0.52940   0.00000  Uiso   1.00
H654   H     0.88938   0.82135   0.47172   0.00000  Uiso   1.00
H655   H     0.60996   0.68011   0.46936   0.00000  Uiso   1.00
H656   H     0.72620   0.53410   0.42396   0.00000  Uiso   1.00
N657   N     0.75000   0.62624   0.50000   0.00000  Uiso   1.00
N658   N     0.75000   0.87377   0.50000   0.00000  Uiso   1.00
O659   O     0.68453   0.78974   0.50000   0.00000  Uiso   1.00
O660   O     0.81033   0.87253   0.55761   0.00000  Uiso   1.00
O661   O     0.77910   0.62682   0.58298   0.00000  Uiso   1.00
O662   O     0.68971   0.87254   0.44234   0.00000  Uiso   1.00
O663   O     0.81547   0.71026   0.50000   0.00000  Uiso   1.00
O664   O     0.81547   0.78974   0.50000   0.00000  Uiso   1.00
O665   O     0.68453   0.71026   0.50000   0.00000  Uiso   1.00
O666   O     0.75000   0.78973   0.42845   0.00000  Uiso   1.00
O667   O     0.75000   0.71027   0.57155   0.00000  Uiso   1.00
O668   O     0.75000   0.78973   0.57155   0.00000  Uiso   1.00
O669   O     0.75000   0.71027   0.42845   0.00000  Uiso   1.00
O670   O     0.72093   0.62678   0.41700   0.00000  Uiso   1.00
Zn671  Zn    0.75000   0.80307   0.50000   0.00000  Uiso   1.00
Zn672  Zn    0.75000   0.69693   0.50000   0.00000  Uiso   1.00
C673   C     0.16394   0.25003   0.83338   0.00000  Uiso   1.00
C674   C     0.21909   0.44735   0.80465   0.00000  Uiso   1.00
C675   C     0.25012   0.24999   0.73957   0.00000  Uiso   1.00
C676   C     0.24989   0.24999   0.92709   0.00000  Uiso   1.00
C677   C     0.25001   0.02645   0.83334   0.00000  Uiso   1.00
C678   C     0.25001   0.47318   0.83334   0.00000  Uiso   1.00
C679   C     0.25007   0.24994   0.68848   0.00000  Uiso   1.00
C680   C     0.24993   0.24994   0.97819   0.00000  Uiso   1.00
C681   C     0.04742   0.28981   0.85239   0.00000  Uiso   1.00
C682   C     0.45300   0.21071   0.85125   0.00000  Uiso   1.00
C683   C     0.45290   0.29049   0.81841   0.00000  Uiso   1.00
C684   C     0.33608   0.25003   0.83344   0.00000  Uiso   1.00
C685   C     0.04681   0.21110   0.81672   0.00000  Uiso   1.00
C686   C     0.09340   0.28978   0.85159   0.00000  Uiso   1.00
C687   C     0.40705   0.21035   0.85026   0.00000  Uiso   1.00
C688   C     0.40692   0.29040   0.81818   0.00000  Uiso   1.00
C689   C     0.09276   0.21078   0.81668   0.00000  Uiso   1.00
C690   C     0.11606   0.25019   0.83385   0.00000  Uiso   1.00
C691   C     0.38398   0.25022   0.83389   0.00000  Uiso   1.00
C692   C     0.02409   0.25053   0.83478   0.00000  Uiso   1.00
C693   C     0.47597   0.25066   0.83501   0.00000  Uiso   1.00
C694   C     0.17604   0.11649   0.73872   0.00000  Uiso   1.00
C695   C     0.23442   0.10203   0.79234   0.00000  Uiso   1.00
C696   C     0.15797   0.15452   0.70403   0.00000  Uiso   1.00
C697   C     0.30241   0.37976   0.94263   0.00000  Uiso   1.00
C698   C     0.33306   0.34793   0.97298   0.00000  Uiso   1.00
C699   C     0.32386   0.11626   0.92825   0.00000  Uiso   1.00
C700   C     0.34213   0.15451   0.96252   0.00000  Uiso   1.00
C701   C     0.19769   0.37981   0.72399   0.00000  Uiso   1.00
C702   C     0.16706   0.34801   0.69358   0.00000  Uiso   1.00
C703   C     0.27955   0.39763   0.86305   0.00000  Uiso   1.00
C704   C     0.26560   0.10204   0.87432   0.00000  Uiso   1.00
C705   C     0.22046   0.39763   0.80361   0.00000  Uiso   1.00
C706   C     0.23571   0.05227   0.79133   0.00000  Uiso   1.00
C707   C     0.28093   0.44735   0.86202   0.00000  Uiso   1.00
C708   C     0.26432   0.05227   0.87534   0.00000  Uiso   1.00
H709   H     0.03011   0.32020   0.86711   0.00000  Uiso   1.00
H710   H     0.30658   0.46541   0.88311   0.00000  Uiso   1.00
H711   H     0.27384   0.03409   0.90937   0.00000  Uiso   1.00
H712   H     0.19345   0.46542   0.78355   0.00000  Uiso   1.00
H713   H     0.15482   0.11546   0.77298   0.00000  Uiso   1.00
H714   H     0.17361   0.08226   0.71880   0.00000  Uiso   1.00
H715   H     0.17777   0.15573   0.66891   0.00000  Uiso   1.00
H716   H     0.12267   0.14693   0.69446   0.00000  Uiso   1.00
H717   H     0.15983   0.18932   0.72281   0.00000  Uiso   1.00
H718   H     0.26730   0.37113   0.95251   0.00000  Uiso   1.00
H719   H     0.30960   0.41670   0.95365   0.00000  Uiso   1.00
H720   H     0.47057   0.17997   0.86486   0.00000  Uiso   1.00
H721   H     0.32570   0.35165   0.68028   0.00000  Uiso   1.00
H722   H     0.32812   0.31071   0.96185   0.00000  Uiso   1.00
H723   H     0.36835   0.35772   0.96628   0.00000  Uiso   1.00
H724   H     0.34521   0.11464   0.89412   0.00000  Uiso   1.00
H725   H     0.32592   0.08224   0.94863   0.00000  Uiso   1.00
H726   H     0.32221   0.15632   0.99752   0.00000  Uiso   1.00
H727   H     0.37733   0.14670   0.97237   0.00000  Uiso   1.00
H728   H     0.34064   0.18911   0.94328   0.00000  Uiso   1.00
H729   H     0.23281   0.37117   0.71417   0.00000  Uiso   1.00
H730   H     0.19053   0.41675   0.71297   0.00000  Uiso   1.00
H731   H     0.47042   0.32131   0.80506   0.00000  Uiso   1.00
H732   H     0.13177   0.35781   0.70022   0.00000  Uiso   1.00
H733   H     0.17448   0.35174   0.98629   0.00000  Uiso   1.00
H734   H     0.17195   0.31077   0.70471   0.00000  Uiso   1.00
H735   H     0.02903   0.18083   0.80227   0.00000  Uiso   1.00
H736   H     0.11117   0.32030   0.86545   0.00000  Uiso   1.00
H737   H     0.38967   0.17920   0.86274   0.00000  Uiso   1.00
H738   H     0.38938   0.32135   0.80505   0.00000  Uiso   1.00
H739   H     0.10996   0.18011   0.80269   0.00000  Uiso   1.00
H740   H     0.22620   0.03410   0.75729   0.00000  Uiso   1.00
N741   N     0.25000   0.12624   0.83333   0.00000  Uiso   1.00
N742   N     0.25000   0.37377   0.83333   0.00000  Uiso   1.00
O743   O     0.18453   0.28974   0.83334   0.00000  Uiso   1.00
O744   O     0.31033   0.37253   0.89094   0.00000  Uiso   1.00
O745   O     0.27910   0.12682   0.91631   0.00000  Uiso   1.00
O746   O     0.18971   0.37254   0.77567   0.00000  Uiso   1.00
O747   O     0.31547   0.21026   0.83333   0.00000  Uiso   1.00
O748   O     0.31547   0.28974   0.83333   0.00000  Uiso   1.00
O749   O     0.18453   0.21026   0.83334   0.00000  Uiso   1.00
O750   O     0.25000   0.28973   0.76178   0.00000  Uiso   1.00
O751   O     0.25000   0.21027   0.90489   0.00000  Uiso   1.00
O752   O     0.25000   0.28973   0.90489   0.00000  Uiso   1.00
O753   O     0.25000   0.21027   0.76178   0.00000  Uiso   1.00
O754   O     0.22093   0.12678   0.75033   0.00000  Uiso   1.00
Zn755  Zn    0.25000   0.30307   0.83333   0.00000  Uiso   1.00
Zn756  Zn    0.25000   0.19693   0.83333   0.00000  Uiso   1.00
C757   C     0.66394   0.25003   0.83338   0.00000  Uiso   1.00
C758   C     0.71909   0.44735   0.80465   0.00000  Uiso   1.00
C759   C     0.75012   0.24999   0.73957   0.00000  Uiso   1.00
C760   C     0.74989   0.24999   0.92709   0.00000  Uiso   1.00
C761   C     0.75001   0.02645   0.83334   0.00000  Uiso   1.00
C762   C     0.75001   0.47318   0.83334   0.00000  Uiso   1.00
C763   C     0.75007   0.24994   0.68848   0.00000  Uiso   1.00
C764   C     0.74993   0.24994   0.97819   0.00000  Uiso   1.00
C765   C     0.54742   0.28981   0.85239   0.00000  Uiso   1.00
C766   C     0.95300   0.21071   0.85125   0.00000  Uiso   1.00
C767   C     0.95290   0.29049   0.81841   0.00000  Uiso   1.00
C768   C     0.83608   0.25003   0.83344   0.00000  Uiso   1.00
C769   C     0.54681   0.21110   0.81672   0.00000  Uiso   1.00
C770   C     0.59340   0.28978   0.85159   0.00000  Uiso   1.00
C771   C     0.90705   0.21035   0.85026   0.00000  Uiso   1.00
C772   C     0.90692   0.29040   0.81818   0.00000  Uiso   1.00
C773   C     0.59276   0.21078   0.81668   0.00000  Uiso   1.00
C774   C     0.61606   0.25019   0.83385   0.00000  Uiso   1.00
C775   C     0.88398   0.25022   0.83389   0.00000  Uiso   1.00
C776   C     0.52409   0.25053   0.83478   0.00000  Uiso   1.00
C777   C     0.97597   0.25066   0.83501   0.00000  Uiso   1.00
C778   C     0.67604   0.11649   0.73872   0.00000  Uiso   1.00
C779   C     0.73442   0.10203   0.79234   0.00000  Uiso   1.00
C780   C     0.65797   0.15452   0.70403   0.00000  Uiso   1.00
C781   C     0.80241   0.37976   0.94263   0.00000  Uiso   1.00
C782   C     0.83306   0.34793   0.97298   0.00000  Uiso   1.00
C783   C     0.82386   0.11626   0.92825   0.00000  Uiso   1.00
C784   C     0.84213   0.15451   0.96252   0.00000  Uiso   1.00
C785   C     0.69769   0.37981   0.72399   0.00000  Uiso   1.00
C786   C     0.66706   0.34801   0.69358   0.00000  Uiso   1.00
C787   C     0.77955   0.39763   0.86305   0.00000  Uiso   1.00
C788   C     0.76560   0.10204   0.87432   0.00000  Uiso   1.00
C789   C     0.72046   0.39763   0.80361   0.00000  Uiso   1.00
C790   C     0.73571   0.05227   0.79133   0.00000  Uiso   1.00
C791   C     0.78093   0.44735   0.86202   0.00000  Uiso   1.00
C792   C     0.76432   0.05227   0.87534   0.00000  Uiso   1.00
H793   H     0.53011   0.32020   0.86711   0.00000  Uiso   1.00
H794   H     0.80658   0.46541   0.88311   0.00000  Uiso   1.00
H795   H     0.77384   0.03409   0.90937   0.00000  Uiso   1.00
H796   H     0.69345   0.46542   0.78355   0.00000  Uiso   1.00
H797   H     0.65482   0.11546   0.77298   0.00000  Uiso   1.00
H798   H     0.67361   0.08226   0.71880   0.00000  Uiso   1.00
H799   H     0.67777   0.15573   0.66891   0.00000  Uiso   1.00
H800   H     0.62267   0.14693   0.69446   0.00000  Uiso   1.00
H801   H     0.65983   0.18932   0.72281   0.00000  Uiso   1.00
H802   H     0.76730   0.37113   0.95251   0.00000  Uiso   1.00
H803   H     0.80960   0.41670   0.95365   0.00000  Uiso   1.00
H804   H     0.97057   0.17997   0.86486   0.00000  Uiso   1.00
H805   H     0.82570   0.35165   0.68028   0.00000  Uiso   1.00
H806   H     0.82812   0.31071   0.96185   0.00000  Uiso   1.00
H807   H     0.86835   0.35772   0.96628   0.00000  Uiso   1.00
H808   H     0.84521   0.11464   0.89412   0.00000  Uiso   1.00
H809   H     0.82592   0.08224   0.94863   0.00000  Uiso   1.00
H810   H     0.82221   0.15632   0.99752   0.00000  Uiso   1.00
H811   H     0.87733   0.14670   0.97237   0.00000  Uiso   1.00
H812   H     0.84064   0.18911   0.94328   0.00000  Uiso   1.00
H813   H     0.73281   0.37117   0.71417   0.00000  Uiso   1.00
H814   H     0.69053   0.41675   0.71297   0.00000  Uiso   1.00
H815   H     0.97042   0.32131   0.80506   0.00000  Uiso   1.00
H816   H     0.63177   0.35781   0.70022   0.00000  Uiso   1.00
H817   H     0.67448   0.35174   0.98629   0.00000  Uiso   1.00
H818   H     0.67195   0.31077   0.70471   0.00000  Uiso   1.00
H819   H     0.52903   0.18083   0.80227   0.00000  Uiso   1.00
H820   H     0.61117   0.32030   0.86545   0.00000  Uiso   1.00
H821   H     0.88967   0.17920   0.86274   0.00000  Uiso   1.00
H822   H     0.88938   0.32135   0.80505   0.00000  Uiso   1.00
H823   H     0.60996   0.18011   0.80269   0.00000  Uiso   1.00
H824   H     0.72620   0.03410   0.75729   0.00000  Uiso   1.00
N825   N     0.75000   0.12624   0.83333   0.00000  Uiso   1.00
N826   N     0.75000   0.37377   0.83333   0.00000  Uiso   1.00
O827   O     0.68453   0.28974   0.83334   0.00000  Uiso   1.00
O828   O     0.81033   0.37253   0.89094   0.00000  Uiso   1.00
O829   O     0.77910   0.12682   0.91631   0.00000  Uiso   1.00
O830   O     0.68971   0.37254   0.77567   0.00000  Uiso   1.00
O831   O     0.81547   0.21026   0.83333   0.00000  Uiso   1.00
O832   O     0.81547   0.28974   0.83333   0.00000  Uiso   1.00
O833   O     0.68453   0.21026   0.83334   0.00000  Uiso   1.00
O834   O     0.75000   0.28973   0.76178   0.00000  Uiso   1.00
O835   O     0.75000   0.21027   0.90489   0.00000  Uiso   1.00
O836   O     0.75000   0.28973   0.90489   0.00000  Uiso   1.00
O837   O     0.75000   0.21027   0.76178   0.00000  Uiso   1.00
O838   O     0.72093   0.12678   0.75033   0.00000  Uiso   1.00
Zn839  Zn    0.75000   0.30307   0.83333   0.00000  Uiso   1.00
Zn840  Zn    0.75000   0.19693   0.83333   0.00000  Uiso   1.00
C841   C     0.16394   0.75003   0.83338   0.00000  Uiso   1.00
C842   C     0.21909   0.94735   0.80465   0.00000  Uiso   1.00
C843   C     0.25012   0.74999   0.73957   0.00000  Uiso   1.00
C844   C     0.24989   0.74999   0.92709   0.00000  Uiso   1.00
C845   C     0.25001   0.52645   0.83334   0.00000  Uiso   1.00
C846   C     0.25001   0.97318   0.83334   0.00000  Uiso   1.00
C847   C     0.25007   0.74994   0.68848   0.00000  Uiso   1.00
C848   C     0.24993   0.74994   0.97819   0.00000  Uiso   1.00
C849   C     0.04742   0.78981   0.85239   0.00000  Uiso   1.00
C850   C     0.45300   0.71071   0.85125   0.00000  Uiso   1.00
C851   C     0.45290   0.79049   0.81841   0.00000  Uiso   1.00
C852   C     0.33608   0.75003   0.83344   0.00000  Uiso   1.00
C853   C     0.04681   0.71110   0.81672   0.00000  Uiso   1.00
C854   C     0.09340   0.78978   0.85159   0.00000  Uiso   1.00
C855   C     0.40705   0.71035   0.85026   0.00000  Uiso   1.00
C856   C     0.40692   0.79040   0.81818   0.00000  Uiso   1.00
C857   C     0.09276   0.71078   0.81668   0.00000  Uiso   1.00
C858   C     0.11606   0.75019   0.83385   0.00000  Uiso   1.00
C859   C     0.38398   0.75022   0.83389   0.00000  Uiso   1.00
C860   C     0.02409   0.75053   0.83478   0.00000  Uiso   1.00
C861   C     0.47597   0.75066   0.83501   0.00000  Uiso   1.00
C862   C     0.17604   0.61649   0.73872   0.00000  Uiso   1.00
C863   C     0.23442   0.60203   0.79234   0.00000  Uiso   1.00
C864   C     0.15797   0.65452   0.70403   0.00000  Uiso   1.00
C865   C     0.30241   0.87976   0.94263   0.00000  Uiso   1.00
C866   C     0.33306   0.84793   0.97298   0.00000  Uiso   1.00
C867   C     0.32386   0.61626   0.92825   0.00000  Uiso   1.00
C868   C     0.34213   0.65451   0.96252   0.00000  Uiso   1.00
C869   C     0.19769   0.87981   0.72399   0.00000  Uiso   1.00
C870   C     0.16706   0.84801   0.69358   0.00000  Uiso   1.00
C871   C     0.27955   0.89763   0.86305   0.00000  Uiso   1.00
C872   C     0.26560   0.60204   0.87432   0.00000  Uiso   1.00
C873   C     0.22046   0.89763   0.80361   0.00000  Uiso   1.00
C874   C     0.23571   0.55227   0.79133   0.00000  Uiso   1.00
C875   C     0.28093   0.94735   0.86202   0.00000  Uiso   1.00
C876   C     0.26432   0.55227   0.87534   0.00000  Uiso   1.00
H877   H     0.03011   0.82020   0.86711   0.00000  Uiso   1.00
H878   H     0.30658   0.96541   0.88311   0.00000  Uiso   1.00
H879   H     0.27384   0.53409   0.90937   0.00000  Uiso   1.00
H880   H     0.19345   0.96542   0.78355   0.00000  Uiso   1.00
H881   H     0.15482   0.61546   0.77298   0.00000  Uiso   1.00
H882   H     0.17361   0.58226   0.71880   0.00000  Uiso   1.00
H883   H     0.17777   0.65573   0.66891   0.00000  Uiso   1.00
H884   H     0.12267   0.64693   0.69446   0.00000  Uiso   1.00
H885   H     0.15983   0.68932   0.72281   0.00000  Uiso   1.00
H886   H     0.26730   0.87113   0.95251   0.00000  Uiso   1.00
H887   H     0.30960   0.91670   0.95365   0.00000  Uiso   1.00
H888   H     0.47057   0.67997   0.86486   0.00000  Uiso   1.00
H889   H     0.32570   0.85165   0.68028   0.00000  Uiso   1.00
H890   H     0.32812   0.81071   0.96185   0.00000  Uiso   1.00
H891   H     0.36835   0.85772   0.96628   0.00000  Uiso   1.00
H892   H     0.34521   0.61464   0.89412   0.00000  Uiso   1.00
H893   H     0.32592   0.58224   0.94863   0.00000  Uiso   1.00
H894   H     0.32221   0.65632   0.99752   0.00000  Uiso   1.00
H895   H     0.37733   0.64670   0.97237   0.00000  Uiso   1.00
H896   H     0.34064   0.68911   0.94328   0.00000  Uiso   1.00
H897   H     0.23281   0.87117   0.71417   0.00000  Uiso   1.00
H898   H     0.19053   0.91675   0.71297   0.00000  Uiso   1.00
H899   H     0.47042   0.82131   0.80506   0.00000  Uiso   1.00
H900   H     0.13177   0.85781   0.70022   0.00000  Uiso   1.00
H901   H     0.17448   0.85174   0.98629   0.00000  Uiso   1.00
H902   H     0.17195   0.81077   0.70471   0.00000  Uiso   1.00
H903   H     0.02903   0.68083   0.80227   0.00000  Uiso   1.00
H904   H     0.11117   0.82030   0.86545   0.00000  Uiso   1.00
H905   H     0.38967   0.67920   0.86274   0.00000  Uiso   1.00
H906   H     0.38938   0.82135   0.80505   0.00000  Uiso   1.00
H907   H     0.10996   0.68011   0.80269   0.00000  Uiso   1.00
H908   H     0.22620   0.53410   0.75729   0.00000  Uiso   1.00
N909   N     0.25000   0.62624   0.83333   0.00000  Uiso   1.00
N910   N     0.25000   0.87377   0.83333   0.00000  Uiso   1.00
O911   O     0.18453   0.78974   0.83334   0.00000  Uiso   1.00
O912   O     0.31033   0.87253   0.89094   0.00000  Uiso   1.00
O913   O     0.27910   0.62682   0.91631   0.00000  Uiso   1.00
O914   O     0.18971   0.87254   0.77567   0.00000  Uiso   1.00
O915   O     0.31547   0.71026   0.83333   0.00000  Uiso   1.00
O916   O     0.31547   0.78974   0.83333   0.00000  Uiso   1.00
O917   O     0.18453   0.71026   0.83334   0.00000  Uiso   1.00
O918   O     0.25000   0.78973   0.76178   0.00000  Uiso   1.00
O919   O     0.25000   0.71027   0.90489   0.00000  Uiso   1.00
O920   O     0.25000   0.78973   0.90489   0.00000  Uiso   1.00
O921   O     0.25000   0.71027   0.76178   0.00000  Uiso   1.00
O922   O     0.22093   0.62678   0.75033   0.00000  Uiso   1.00
Zn923  Zn    0.25000   0.80307   0.83333   0.00000  Uiso   1.00
Zn924  Zn    0.25000   0.69693   0.83333   0.00000  Uiso   1.00
C925   C     0.66394   0.75003   0.83338   0.00000  Uiso   1.00
C926   C     0.71909   0.94735   0.80465   0.00000  Uiso   1.00
C927   C     0.75012   0.74999   0.73957   0.00000  Uiso   1.00
C928   C     0.74989   0.74999   0.92709   0.00000  Uiso   1.00
C929   C     0.75001   0.52645   0.83334   0.00000  Uiso   1.00
C930   C     0.75001   0.97318   0.83334   0.00000  Uiso   1.00
C931   C     0.75007   0.74994   0.68848   0.00000  Uiso   1.00
C932   C     0.74993   0.74994   0.97819   0.00000  Uiso   1.00
C933   C     0.54742   0.78981   0.85239   0.00000  Uiso   1.00
C934   C     0.95300   0.71071   0.85125   0.00000  Uiso   1.00
C935   C     0.95290   0.79049   0.81841   0.00000  Uiso   1.00
C936   C     0.83608   0.75003   0.83344   0.00000  Uiso   1.00
C937   C     0.54681   0.71110   0.81672   0.00000  Uiso   1.00
C938   C     0.59340   0.78978   0.85159   0.00000  Uiso   1.00
C939   C     0.90705   0.71035   0.85026   0.00000  Uiso   1.00
C940   C     0.90692   0.79040   0.81818   0.00000  Uiso   1.00
C941   C     0.59276   0.71078   0.81668   0.00000  Uiso   1.00
C942   C     0.61606   0.75019   0.83385   0.00000  Uiso   1.00
C943   C     0.88398   0.75022   0.83389   0.00000  Uiso   1.00
C944   C     0.52409   0.75053   0.83478   0.00000  Uiso   1.00
C945   C     0.97597   0.75066   0.83501   0.00000  Uiso   1.00
C946   C     0.67604   0.61649   0.73872   0.00000  Uiso   1.00
C947   C     0.73442   0.60203   0.79234   0.00000  Uiso   1.00
C948   C     0.65797   0.65452   0.70403   0.00000  Uiso   1.00
C949   C     0.80241   0.87976   0.94263   0.00000  Uiso   1.00
C950   C     0.83306   0.84793   0.97298   0.00000  Uiso   1.00
C951   C     0.82386   0.61626   0.92825   0.00000  Uiso   1.00
C952   C     0.84213   0.65451   0.96252   0.00000  Uiso   1.00
C953   C     0.69769   0.87981   0.72399   0.00000  Uiso   1.00
C954   C     0.66706   0.84801   0.69358   0.00000  Uiso   1.00
C955   C     0.77955   0.89763   0.86305   0.00000  Uiso   1.00
C956   C     0.76560   0.60204   0.87432   0.00000  Uiso   1.00
C957   C     0.72046   0.89763   0.80361   0.00000  Uiso   1.00
C958   C     0.73571   0.55227   0.79133   0.00000  Uiso   1.00
C959   C     0.78093   0.94735   0.86202   0.00000  Uiso   1.00
C960   C     0.76432   0.55227   0.87534   0.00000  Uiso   1.00
H961   H     0.53011   0.82020   0.86711   0.00000  Uiso   1.00
H962   H     0.80658   0.96541   0.88311   0.00000  Uiso   1.00
H963   H     0.77384   0.53409   0.90937   0.00000  Uiso   1.00
H964   H     0.69345   0.96542   0.78355   0.00000  Uiso   1.00
H965   H     0.65482   0.61546   0.77298   0.00000  Uiso   1.00
H966   H     0.67361   0.58226   0.71880   0.00000  Uiso   1.00
H967   H     0.67777   0.65573   0.66891   0.00000  Uiso   1.00
H968   H     0.62267   0.64693   0.69446   0.00000  Uiso   1.00
H969   H     0.65983   0.68932   0.72281   0.00000  Uiso   1.00
H970   H     0.76730   0.87113   0.95251   0.00000  Uiso   1.00
H971   H     0.80960   0.91670   0.95365   0.00000  Uiso   1.00
H972   H     0.97057   0.67997   0.86486   0.00000  Uiso   1.00
H973   H     0.82570   0.85165   0.68028   0.00000  Uiso   1.00
H974   H     0.82812   0.81071   0.96185   0.00000  Uiso   1.00
H975   H     0.86835   0.85772   0.96628   0.00000  Uiso   1.00
H976   H     0.84521   0.61464   0.89412   0.00000  Uiso   1.00
H977   H     0.82592   0.58224   0.94863   0.00000  Uiso   1.00
H978   H     0.82221   0.65632   0.99752   0.00000  Uiso   1.00
H979   H     0.87733   0.64670   0.97237   0.00000  Uiso   1.00
H980   H     0.84064   0.68911   0.94328   0.00000  Uiso   1.00
H981   H     0.73281   0.87117   0.71417   0.00000  Uiso   1.00
H982   H     0.69053   0.91675   0.71297   0.00000  Uiso   1.00
H983   H     0.97042   0.82131   0.80506   0.00000  Uiso   1.00
H984   H     0.63177   0.85781   0.70022   0.00000  Uiso   1.00
H985   H     0.67448   0.85174   0.98629   0.00000  Uiso   1.00
H986   H     0.67195   0.81077   0.70471   0.00000  Uiso   1.00
H987   H     0.52903   0.68083   0.80227   0.00000  Uiso   1.00
H988   H     0.61117   0.82030   0.86545   0.00000  Uiso   1.00
H989   H     0.88967   0.67920   0.86274   0.00000  Uiso   1.00
H990   H     0.88938   0.82135   0.80505   0.00000  Uiso   1.00
H991   H     0.60996   0.68011   0.80269   0.00000  Uiso   1.00
H992   H     0.72620   0.53410   0.75729   0.00000  Uiso   1.00
N993   N     0.75000   0.62624   0.83333   0.00000  Uiso   1.00
N994   N     0.75000   0.87377   0.83333   0.00000  Uiso   1.00
O995   O     0.68453   0.78974   0.83334   0.00000  Uiso   1.00
O996   O     0.81033   0.87253   0.89094   0.00000  Uiso   1.00
O997   O     0.77910   0.62682   0.91631   0.00000  Uiso   1.00
O998   O     0.68971   0.87254   0.77567   0.00000  Uiso   1.00
O999   O     0.81547   0.71026   0.83333   0.00000  Uiso   1.00
O1000  O     0.81547   0.78974   0.83333   0.00000  Uiso   1.00
O1001  O     0.68453   0.71026   0.83334   0.00000  Uiso   1.00
O1002  O     0.75000   0.78973   0.76178   0.00000  Uiso   1.00
O1003  O     0.75000   0.71027   0.90489   0.00000  Uiso   1.00
O1004  O     0.75000   0.78973   0.90489   0.00000  Uiso   1.00
O1005  O     0.75000   0.71027   0.76178   0.00000  Uiso   1.00
O1006  O     0.72093   0.62678   0.75033   0.00000  Uiso   1.00
Zn1007 Zn    0.75000   0.80307   0.83333   0.00000  Uiso   1.00
Zn1008 Zn    0.75000   0.69693   0.83333   0.00000  Uiso   1.00
loop_
_geom_bond_atom_site_label_1
_geom_bond_atom_site_label_2
_geom_bond_distance
_geom_bond_site_symmetry_2
_ccdc_geom_bond_type
C1     O77     1.290   .     A
C1     C18     1.438   .     S
C1     O71     1.288   .     A
C2     C6      1.407   .     A
C2     C33     1.416   .     A
C2     H40     1.082   .     S
C3     C7      1.361   .     S
C3     O81     1.276   .     A
C3     O78     1.276   .     A
C4     C8      1.361   .     S
C4     O80     1.276   .     A
C4     O79     1.276   .     A
C5     C36     1.405   .     A
C5     C34     1.405   .     A
C5     C174    1.516   1_545 S
C6     C35     1.407   .     A
C6     C173    1.516   .     S
C7     C680    1.162   1_554 S
C8     C343    1.162   .     S
C9     C14     1.381   .     A
C9     C20     1.399   .     A
C9     H37     1.083   .     S
C10    C15     1.380   .     A
C10    C21     1.399   .     A
C10    H48     1.083   .     S
C11    H59     1.083   .     S
C11    C21     1.399   .     A
C11    C16     1.381   .     A
C12    O75     1.290   .     A
C12    O76     1.288   .     A
C12    C19     1.438   .     S
C13    H63     1.083   .     S
C13    C20     1.399   .     A
C13    C17     1.380   .     A
C14    C18     1.399   .     A
C14    H64     1.084   .     S
C15    C19     1.398   .     A
C15    H65     1.081   .     S
C16    H66     1.084   .     S
C16    C19     1.399   .     A
C17    H67     1.081   .     S
C17    C18     1.398   .     A
C20    C105    1.445   1_455 S
C21    C104    1.445   .     S
C22    H41     1.115   .     S
C22    C24     1.522   .     S
C22    O82     1.412   .     S
C22    H42     1.112   .     S
C23    O82     1.382   .     S
C23    N69     1.372   .     A
C23    C34     1.417   .     A
C24    H45     1.111   .     S
C24    H44     1.110   .     S
C24    H43     1.111   .     S
C25    H47     1.112   .     S
C25    C26     1.522   .     S
C25    O72     1.413   .     S
C25    H46     1.115   .     S
C26    H50     1.110   .     S
C26    H51     1.111   .     S
C26    H385    1.111   .     S
C27    H52     1.115   .     S
C27    H53     1.112   .     S
C27    C28     1.522   .     S
C27    O73     1.412   .     S
C28    H56     1.111   .     S
C28    H55     1.110   .     S
C28    H54     1.111   .     S
C29    O74     1.413   .     S
C29    C30     1.522   .     S
C29    H58     1.112   .     S
C29    H57     1.115   .     S
C30    H60     1.111   .     S
C30    H62     1.110   .     S
C30    H733    1.111   1_554 S
C31    N70     1.367   .     A
C31    O72     1.383   .     S
C31    C35     1.416   .     A
C32    C36     1.417   .     A
C32    O73     1.382   .     S
C32    N69     1.372   .     A
C33    N70     1.367   .     A
C33    O74     1.383   .     S
C34    H68     1.081   .     S
C35    H38     1.082   .     S
C36    H39     1.081   .     S
H49    C698    1.111   1_554 S
H61    C366    1.111   .     S
N69    Zn84    2.012   .     S
N70    Zn83    2.012   .     S
O71    Zn83    2.002   .     S
O75    Zn84    2.002   .     S
O76    Zn83    2.002   .     S
O77    Zn84    2.002   .     S
O78    Zn83    1.944   .     S
O79    Zn84    1.944   .     S
O80    Zn83    1.944   .     S
O81    Zn84    1.944   .     S
C85    O161    1.290   .     A
C85    C102    1.438   .     S
C85    O155    1.288   .     A
C86    C90     1.407   .     A
C86    C117    1.416   .     A
C86    H124    1.082   .     S
C87    C91     1.361   .     S
C87    O165    1.276   .     A
C87    O162    1.276   .     A
C88    C92     1.361   .     S
C88    O164    1.276   .     A
C88    O163    1.276   .     A
C89    C120    1.405   .     A
C89    C118    1.405   .     A
C89    C258    1.516   1_545 S
C90    C119    1.407   .     A
C90    C257    1.516   .     S
C91    C764    1.162   1_554 S
C92    C427    1.162   .     S
C93    C98     1.381   .     A
C93    C104    1.399   .     A
C93    H121    1.083   .     S
C94    C99     1.380   .     A
C94    C105    1.399   .     A
C94    H132    1.083   .     S
C95    H143    1.083   .     S
C95    C105    1.399   .     A
C95    C100    1.381   .     A
C96    O159    1.290   .     A
C96    O160    1.288   .     A
C96    C103    1.438   .     S
C97    H147    1.083   .     S
C97    C104    1.399   .     A
C97    C101    1.380   .     A
C98    C102    1.399   .     A
C98    H148    1.084   .     S
C99    C103    1.398   .     A
C99    H149    1.081   .     S
C100   H150    1.084   .     S
C100   C103    1.399   .     A
C101   H151    1.081   .     S
C101   C102    1.398   .     A
C105   C20     1.445   1_655 S
C106   H125    1.115   .     S
C106   C108    1.522   .     S
C106   O166    1.412   .     S
C106   H126    1.112   .     S
C107   O166    1.382   .     S
C107   N153    1.372   .     A
C107   C118    1.417   .     A
C108   H129    1.111   .     S
C108   H128    1.110   .     S
C108   H127    1.111   .     S
C109   H131    1.112   .     S
C109   C110    1.522   .     S
C109   O156    1.413   .     S
C109   H130    1.115   .     S
C110   H134    1.110   .     S
C110   H135    1.111   .     S
C110   H469    1.111   .     S
C111   H136    1.115   .     S
C111   H137    1.112   .     S
C111   C112    1.522   .     S
C111   O157    1.412   .     S
C112   H140    1.111   .     S
C112   H139    1.110   .     S
C112   H138    1.111   .     S
C113   O158    1.413   .     S
C113   C114    1.522   .     S
C113   H142    1.112   .     S
C113   H141    1.115   .     S
C114   H144    1.111   .     S
C114   H146    1.110   .     S
C114   H817    1.111   1_554 S
C115   N154    1.367   .     A
C115   O156    1.383   .     S
C115   C119    1.416   .     A
C116   C120    1.417   .     A
C116   O157    1.382   .     S
C116   N153    1.372   .     A
C117   N154    1.367   .     A
C117   O158    1.383   .     S
C118   H152    1.081   .     S
C119   H122    1.082   .     S
C120   H123    1.081   .     S
H133   C782    1.111   1_554 S
H145   C450    1.111   .     S
N153   Zn168   2.012   .     S
N154   Zn167   2.012   .     S
O155   Zn167   2.002   .     S
O159   Zn168   2.002   .     S
O160   Zn167   2.002   .     S
O161   Zn168   2.002   .     S
O162   Zn167   1.944   .     S
O163   Zn168   1.944   .     S
O164   Zn167   1.944   .     S
O165   Zn168   1.944   .     S
C169   O245    1.290   .     A
C169   C186    1.438   .     S
C169   O239    1.288   .     A
C170   C174    1.407   .     A
C170   C201    1.416   .     A
C170   H208    1.082   .     S
C171   C175    1.361   .     S
C171   O249    1.276   .     A
C171   O246    1.276   .     A
C172   C176    1.361   .     S
C172   O248    1.276   .     A
C172   O247    1.276   .     A
C173   C204    1.405   .     A
C173   C202    1.405   .     A
C174   C203    1.407   .     A
C174   C5      1.516   1_565 S
C175   C848    1.162   1_554 S
C176   C511    1.162   .     S
C177   C182    1.381   .     A
C177   C188    1.399   .     A
C177   H205    1.083   .     S
C178   C183    1.380   .     A
C178   C189    1.399   .     A
C178   H216    1.083   .     S
C179   H227    1.083   .     S
C179   C189    1.399   .     A
C179   C184    1.381   .     A
C180   O243    1.290   .     A
C180   O244    1.288   .     A
C180   C187    1.438   .     S
C181   H231    1.083   .     S
C181   C188    1.399   .     A
C181   C185    1.380   .     A
C182   C186    1.399   .     A
C182   H232    1.084   .     S
C183   C187    1.398   .     A
C183   H233    1.081   .     S
C184   H234    1.084   .     S
C184   C187    1.399   .     A
C185   H235    1.081   .     S
C185   C186    1.398   .     A
C188   C273    1.445   1_455 S
C189   C272    1.445   .     S
C190   H209    1.115   .     S
C190   C192    1.522   .     S
C190   O250    1.412   .     S
C190   H210    1.112   .     S
C191   O250    1.382   .     S
C191   N237    1.372   .     A
C191   C202    1.417   .     A
C192   H213    1.111   .     S
C192   H212    1.110   .     S
C192   H211    1.111   .     S
C193   H215    1.112   .     S
C193   C194    1.522   .     S
C193   O240    1.413   .     S
C193   H214    1.115   .     S
C194   H218    1.110   .     S
C194   H219    1.111   .     S
C194   H553    1.111   .     S
C195   H220    1.115   .     S
C195   H221    1.112   .     S
C195   C196    1.522   .     S
C195   O241    1.412   .     S
C196   H224    1.111   .     S
C196   H223    1.110   .     S
C196   H222    1.111   .     S
C197   O242    1.413   .     S
C197   C198    1.522   .     S
C197   H226    1.112   .     S
C197   H225    1.115   .     S
C198   H228    1.111   .     S
C198   H230    1.110   .     S
C198   H901    1.111   1_554 S
C199   N238    1.367   .     A
C199   O240    1.383   .     S
C199   C203    1.416   .     A
C200   C204    1.417   .     A
C200   O241    1.382   .     S
C200   N237    1.372   .     A
C201   N238    1.367   .     A
C201   O242    1.383   .     S
C202   H236    1.081   .     S
C203   H206    1.082   .     S
C204   H207    1.081   .     S
H217   C866    1.111   1_554 S
H229   C534    1.111   .     S
N237   Zn252   2.012   .     S
N238   Zn251   2.012   .     S
O239   Zn251   2.002   .     S
O243   Zn252   2.002   .     S
O244   Zn251   2.002   .     S
O245   Zn252   2.002   .     S
O246   Zn251   1.944   .     S
O247   Zn252   1.944   .     S
O248   Zn251   1.944   .     S
O249   Zn252   1.944   .     S
C253   O329    1.290   .     A
C253   C270    1.438   .     S
C253   O323    1.288   .     A
C254   C258    1.407   .     A
C254   C285    1.416   .     A
C254   H292    1.082   .     S
C255   C259    1.361   .     S
C255   O333    1.276   .     A
C255   O330    1.276   .     A
C256   C260    1.361   .     S
C256   O332    1.276   .     A
C256   O331    1.276   .     A
C257   C288    1.405   .     A
C257   C286    1.405   .     A
C258   C287    1.407   .     A
C258   C89     1.516   1_565 S
C259   C932    1.162   1_554 S
C260   C595    1.162   .     S
C261   C266    1.381   .     A
C261   C272    1.399   .     A
C261   H289    1.083   .     S
C262   C267    1.380   .     A
C262   C273    1.399   .     A
C262   H300    1.083   .     S
C263   H311    1.083   .     S
C263   C273    1.399   .     A
C263   C268    1.381   .     A
C264   O327    1.290   .     A
C264   O328    1.288   .     A
C264   C271    1.438   .     S
C265   H315    1.083   .     S
C265   C272    1.399   .     A
C265   C269    1.380   .     A
C266   C270    1.399   .     A
C266   H316    1.084   .     S
C267   C271    1.398   .     A
C267   H317    1.081   .     S
C268   H318    1.084   .     S
C268   C271    1.399   .     A
C269   H319    1.081   .     S
C269   C270    1.398   .     A
C273   C188    1.445   1_655 S
C274   H293    1.115   .     S
C274   C276    1.522   .     S
C274   O334    1.412   .     S
C274   H294    1.112   .     S
C275   O334    1.382   .     S
C275   N321    1.372   .     A
C275   C286    1.417   .     A
C276   H297    1.111   .     S
C276   H296    1.110   .     S
C276   H295    1.111   .     S
C277   H299    1.112   .     S
C277   C278    1.522   .     S
C277   O324    1.413   .     S
C277   H298    1.115   .     S
C278   H302    1.110   .     S
C278   H303    1.111   .     S
C278   H637    1.111   .     S
C279   H304    1.115   .     S
C279   H305    1.112   .     S
C279   C280    1.522   .     S
C279   O325    1.412   .     S
C280   H308    1.111   .     S
C280   H307    1.110   .     S
C280   H306    1.111   .     S
C281   O326    1.413   .     S
C281   C282    1.522   .     S
C281   H310    1.112   .     S
C281   H309    1.115   .     S
C282   H312    1.111   .     S
C282   H314    1.110   .     S
C282   H985    1.111   1_554 S
C283   N322    1.367   .     A
C283   O324    1.383   .     S
C283   C287    1.416   .     A
C284   C288    1.417   .     A
C284   O325    1.382   .     S
C284   N321    1.372   .     A
C285   N322    1.367   .     A
C285   O326    1.383   .     S
C286   H320    1.081   .     S
C287   H290    1.082   .     S
C288   H291    1.081   .     S
H301   C950    1.111   1_554 S
H313   C618    1.111   .     S
N321   Zn336   2.012   .     S
N322   Zn335   2.012   .     S
O323   Zn335   2.002   .     S
O327   Zn336   2.002   .     S
O328   Zn335   2.002   .     S
O329   Zn336   2.002   .     S
O330   Zn335   1.944   .     S
O331   Zn336   1.944   .     S
O332   Zn335   1.944   .     S
O333   Zn336   1.944   .     S
C337   O413    1.290   .     A
C337   C354    1.438   .     S
C337   O407    1.288   .     A
C338   C342    1.407   .     A
C338   C369    1.416   .     A
C338   H376    1.082   .     S
C339   C343    1.361   .     S
C339   O417    1.276   .     A
C339   O414    1.276   .     A
C340   C344    1.361   .     S
C340   O416    1.276   .     A
C340   O415    1.276   .     A
C341   C372    1.405   .     A
C341   C370    1.405   .     A
C341   C510    1.516   1_545 S
C342   C371    1.407   .     A
C342   C509    1.516   .     S
C344   C679    1.162   .     S
C345   C350    1.381   .     A
C345   C356    1.399   .     A
C345   H373    1.083   .     S
C346   C351    1.380   .     A
C346   C357    1.399   .     A
C346   H384    1.083   .     S
C347   H395    1.083   .     S
C347   C357    1.399   .     A
C347   C352    1.381   .     A
C348   O411    1.290   .     A
C348   O412    1.288   .     A
C348   C355    1.438   .     S
C349   H399    1.083   .     S
C349   C356    1.399   .     A
C349   C353    1.380   .     A
C350   C354    1.399   .     A
C350   H400    1.084   .     S
C351   C355    1.398   .     A
C351   H401    1.081   .     S
C352   H402    1.084   .     S
C352   C355    1.399   .     A
C353   H403    1.081   .     S
C353   C354    1.398   .     A
C356   C441    1.445   1_455 S
C357   C440    1.445   .     S
C358   H377    1.115   .     S
C358   C360    1.522   .     S
C358   O418    1.412   .     S
C358   H378    1.112   .     S
C359   O418    1.382   .     S
C359   N405    1.372   .     A
C359   C370    1.417   .     A
C360   H381    1.111   .     S
C360   H380    1.110   .     S
C360   H379    1.111   .     S
C361   H383    1.112   .     S
C361   C362    1.522   .     S
C361   O408    1.413   .     S
C361   H382    1.115   .     S
C362   H386    1.110   .     S
C362   H387    1.111   .     S
C362   H721    1.111   .     S
C363   H388    1.115   .     S
C363   H389    1.112   .     S
C363   C364    1.522   .     S
C363   O409    1.412   .     S
C364   H392    1.111   .     S
C364   H391    1.110   .     S
C364   H390    1.111   .     S
C365   O410    1.413   .     S
C365   C366    1.522   .     S
C365   H394    1.112   .     S
C365   H393    1.115   .     S
C366   H396    1.111   .     S
C366   H398    1.110   .     S
C367   N406    1.367   .     A
C367   O408    1.383   .     S
C367   C371    1.416   .     A
C368   C372    1.417   .     A
C368   O409    1.382   .     S
C368   N405    1.372   .     A
C369   N406    1.367   .     A
C369   O410    1.383   .     S
C370   H404    1.081   .     S
C371   H374    1.082   .     S
C372   H375    1.081   .     S
H397   C702    1.111   .     S
N405   Zn420   2.012   .     S
N406   Zn419   2.012   .     S
O407   Zn419   2.002   .     S
O411   Zn420   2.002   .     S
O412   Zn419   2.002   .     S
O413   Zn420   2.002   .     S
O414   Zn419   1.944   .     S
O415   Zn420   1.944   .     S
O416   Zn419   1.944   .     S
O417   Zn420   1.944   .     S
C421   O497    1.290   .     A
C421   C438    1.438   .     S
C421   O491    1.288   .     A
C422   C426    1.407   .     A
C422   C453    1.416   .     A
C422   H460    1.082   .     S
C423   C427    1.361   .     S
C423   O501    1.276   .     A
C423   O498    1.276   .     A
C424   C428    1.361   .     S
C424   O500    1.276   .     A
C424   O499    1.276   .     A
C425   C456    1.405   .     A
C425   C454    1.405   .     A
C425   C594    1.516   1_545 S
C426   C455    1.407   .     A
C426   C593    1.516   .     S
C428   C763    1.162   .     S
C429   C434    1.381   .     A
C429   C440    1.399   .     A
C429   H457    1.083   .     S
C430   C435    1.380   .     A
C430   C441    1.399   .     A
C430   H468    1.083   .     S
C431   H479    1.083   .     S
C431   C441    1.399   .     A
C431   C436    1.381   .     A
C432   O495    1.290   .     A
C432   O496    1.288   .     A
C432   C439    1.438   .     S
C433   H483    1.083   .     S
C433   C440    1.399   .     A
C433   C437    1.380   .     A
C434   C438    1.399   .     A
C434   H484    1.084   .     S
C435   C439    1.398   .     A
C435   H485    1.081   .     S
C436   H486    1.084   .     S
C436   C439    1.399   .     A
C437   H487    1.081   .     S
C437   C438    1.398   .     A
C441   C356    1.445   1_655 S
C442   H461    1.115   .     S
C442   C444    1.522   .     S
C442   O502    1.412   .     S
C442   H462    1.112   .     S
C443   O502    1.382   .     S
C443   N489    1.372   .     A
C443   C454    1.417   .     A
C444   H465    1.111   .     S
C444   H464    1.110   .     S
C444   H463    1.111   .     S
C445   H467    1.112   .     S
C445   C446    1.522   .     S
C445   O492    1.413   .     S
C445   H466    1.115   .     S
C446   H470    1.110   .     S
C446   H471    1.111   .     S
C446   H805    1.111   .     S
C447   H472    1.115   .     S
C447   H473    1.112   .     S
C447   C448    1.522   .     S
C447   O493    1.412   .     S
C448   H476    1.111   .     S
C448   H475    1.110   .     S
C448   H474    1.111   .     S
C449   O494    1.413   .     S
C449   C450    1.522   .     S
C449   H478    1.112   .     S
C449   H477    1.115   .     S
C450   H480    1.111   .     S
C450   H482    1.110   .     S
C451   N490    1.367   .     A
C451   O492    1.383   .     S
C451   C455    1.416   .     A
C452   C456    1.417   .     A
C452   O493    1.382   .     S
C452   N489    1.372   .     A
C453   N490    1.367   .     A
C453   O494    1.383   .     S
C454   H488    1.081   .     S
C455   H458    1.082   .     S
C456   H459    1.081   .     S
H481   C786    1.111   .     S
N489   Zn504   2.012   .     S
N490   Zn503   2.012   .     S
O491   Zn503   2.002   .     S
O495   Zn504   2.002   .     S
O496   Zn503   2.002   .     S
O497   Zn504   2.002   .     S
O498   Zn503   1.944   .     S
O499   Zn504   1.944   .     S
O500   Zn503   1.944   .     S
O501   Zn504   1.944   .     S
C505   O581    1.290   .     A
C505   C522    1.438   .     S
C505   O575    1.288   .     A
C506   C510    1.407   .     A
C506   C537    1.416   .     A
C506   H544    1.082   .     S
C507   C511    1.361   .     S
C507   O585    1.276   .     A
C507   O582    1.276   .     A
C508   C512    1.361   .     S
C508   O584    1.276   .     A
C508   O583    1.276   .     A
C509   C540    1.405   .     A
C509   C538    1.405   .     A
C510   C539    1.407   .     A
C510   C341    1.516   1_565 S
C512   C847    1.162   .     S
C513   C518    1.381   .     A
C513   C524    1.399   .     A
C513   H541    1.083   .     S
C514   C519    1.380   .     A
C514   C525    1.399   .     A
C514   H552    1.083   .     S
C515   H563    1.083   .     S
C515   C525    1.399   .     A
C515   C520    1.381   .     A
C516   O579    1.290   .     A
C516   O580    1.288   .     A
C516   C523    1.438   .     S
C517   H567    1.083   .     S
C517   C524    1.399   .     A
C517   C521    1.380   .     A
C518   C522    1.399   .     A
C518   H568    1.084   .     S
C519   C523    1.398   .     A
C519   H569    1.081   .     S
C520   H570    1.084   .     S
C520   C523    1.399   .     A
C521   H571    1.081   .     S
C521   C522    1.398   .     A
C524   C609    1.445   1_455 S
C525   C608    1.445   .     S
C526   H545    1.115   .     S
C526   C528    1.522   .     S
C526   O586    1.412   .     S
C526   H546    1.112   .     S
C527   O586    1.382   .     S
C527   N573    1.372   .     A
C527   C538    1.417   .     A
C528   H549    1.111   .     S
C528   H548    1.110   .     S
C528   H547    1.111   .     S
C529   H551    1.112   .     S
C529   C530    1.522   .     S
C529   O576    1.413   .     S
C529   H550    1.115   .     S
C530   H554    1.110   .     S
C530   H555    1.111   .     S
C530   H889    1.111   .     S
C531   H556    1.115   .     S
C531   H557    1.112   .     S
C531   C532    1.522   .     S
C531   O577    1.412   .     S
C532   H560    1.111   .     S
C532   H559    1.110   .     S
C532   H558    1.111   .     S
C533   O578    1.413   .     S
C533   C534    1.522   .     S
C533   H562    1.112   .     S
C533   H561    1.115   .     S
C534   H564    1.111   .     S
C534   H566    1.110   .     S
C535   N574    1.367   .     A
C535   O576    1.383   .     S
C535   C539    1.416   .     A
C536   C540    1.417   .     A
C536   O577    1.382   .     S
C536   N573    1.372   .     A
C537   N574    1.367   .     A
C537   O578    1.383   .     S
C538   H572    1.081   .     S
C539   H542    1.082   .     S
C540   H543    1.081   .     S
H565   C870    1.111   .     S
N573   Zn588   2.012   .     S
N574   Zn587   2.012   .     S
O575   Zn587   2.002   .     S
O579   Zn588   2.002   .     S
O580   Zn587   2.002   .     S
O581   Zn588   2.002   .     S
O582   Zn587   1.944   .     S
O583   Zn588   1.944   .     S
O584   Zn587   1.944   .     S
O585   Zn588   1.944   .     S
C589   O665    1.290   .     A
C589   C606    1.438   .     S
C589   O659    1.288   .     A
C590   C594    1.407   .     A
C590   C621    1.416   .     A
C590   H628    1.082   .     S
C591   C595    1.361   .     S
C591   O669    1.276   .     A
C591   O666    1.276   .     A
C592   C596    1.361   .     S
C592   O668    1.276   .     A
C592   O667    1.276   .     A
C593   C624    1.405   .     A
C593   C622    1.405   .     A
C594   C623    1.407   .     A
C594   C425    1.516   1_565 S
C596   C931    1.162   .     S
C597   C602    1.381   .     A
C597   C608    1.399   .     A
C597   H625    1.083   .     S
C598   C603    1.380   .     A
C598   C609    1.399   .     A
C598   H636    1.083   .     S
C599   H647    1.083   .     S
C599   C609    1.399   .     A
C599   C604    1.381   .     A
C600   O663    1.290   .     A
C600   O664    1.288   .     A
C600   C607    1.438   .     S
C601   H651    1.083   .     S
C601   C608    1.399   .     A
C601   C605    1.380   .     A
C602   C606    1.399   .     A
C602   H652    1.084   .     S
C603   C607    1.398   .     A
C603   H653    1.081   .     S
C604   H654    1.084   .     S
C604   C607    1.399   .     A
C605   H655    1.081   .     S
C605   C606    1.398   .     A
C609   C524    1.445   1_655 S
C610   H629    1.115   .     S
C610   C612    1.522   .     S
C610   O670    1.412   .     S
C610   H630    1.112   .     S
C611   O670    1.382   .     S
C611   N657    1.372   .     A
C611   C622    1.417   .     A
C612   H633    1.111   .     S
C612   H632    1.110   .     S
C612   H631    1.111   .     S
C613   H635    1.112   .     S
C613   C614    1.522   .     S
C613   O660    1.413   .     S
C613   H634    1.115   .     S
C614   H638    1.110   .     S
C614   H639    1.111   .     S
C614   H973    1.111   .     S
C615   H640    1.115   .     S
C615   H641    1.112   .     S
C615   C616    1.522   .     S
C615   O661    1.412   .     S
C616   H644    1.111   .     S
C616   H643    1.110   .     S
C616   H642    1.111   .     S
C617   O662    1.413   .     S
C617   C618    1.522   .     S
C617   H646    1.112   .     S
C617   H645    1.115   .     S
C618   H648    1.111   .     S
C618   H650    1.110   .     S
C619   N658    1.367   .     A
C619   O660    1.383   .     S
C619   C623    1.416   .     A
C620   C624    1.417   .     A
C620   O661    1.382   .     S
C620   N657    1.372   .     A
C621   N658    1.367   .     A
C621   O662    1.383   .     S
C622   H656    1.081   .     S
C623   H626    1.082   .     S
C624   H627    1.081   .     S
H649   C954    1.111   .     S
N657   Zn672   2.012   .     S
N658   Zn671   2.012   .     S
O659   Zn671   2.002   .     S
O663   Zn672   2.002   .     S
O664   Zn671   2.002   .     S
O665   Zn672   2.002   .     S
O666   Zn671   1.944   .     S
O667   Zn672   1.944   .     S
O668   Zn671   1.944   .     S
O669   Zn672   1.944   .     S
C673   O749    1.290   .     A
C673   C690    1.438   .     S
C673   O743    1.288   .     A
C674   C678    1.407   .     A
C674   C705    1.416   .     A
C674   H712    1.082   .     S
C675   C679    1.361   .     S
C675   O753    1.276   .     A
C675   O750    1.276   .     A
C676   C680    1.361   .     S
C676   O752    1.276   .     A
C676   O751    1.276   .     A
C677   C708    1.405   .     A
C677   C706    1.405   .     A
C677   C846    1.516   1_545 S
C678   C707    1.407   .     A
C678   C845    1.516   .     S
C680   C7      1.162   1_556 S
C681   C686    1.381   .     A
C681   C692    1.399   .     A
C681   H709    1.083   .     S
C682   C687    1.380   .     A
C682   C693    1.399   .     A
C682   H720    1.083   .     S
C683   H731    1.083   .     S
C683   C693    1.399   .     A
C683   C688    1.381   .     A
C684   O747    1.290   .     A
C684   O748    1.288   .     A
C684   C691    1.438   .     S
C685   H735    1.083   .     S
C685   C692    1.399   .     A
C685   C689    1.380   .     A
C686   C690    1.399   .     A
C686   H736    1.084   .     S
C687   C691    1.398   .     A
C687   H737    1.081   .     S
C688   H738    1.084   .     S
C688   C691    1.399   .     A
C689   H739    1.081   .     S
C689   C690    1.398   .     A
C692   C777    1.445   1_455 S
C693   C776    1.445   .     S
C694   H713    1.115   .     S
C694   C696    1.522   .     S
C694   O754    1.412   .     S
C694   H714    1.112   .     S
C695   O754    1.382   .     S
C695   N741    1.372   .     A
C695   C706    1.417   .     A
C696   H717    1.111   .     S
C696   H716    1.110   .     S
C696   H715    1.111   .     S
C697   H719    1.112   .     S
C697   C698    1.522   .     S
C697   O744    1.413   .     S
C697   H718    1.115   .     S
C698   H722    1.110   .     S
C698   H723    1.111   .     S
C698   H49     1.111   1_556 S
C699   H724    1.115   .     S
C699   H725    1.112   .     S
C699   C700    1.522   .     S
C699   O745    1.412   .     S
C700   H728    1.111   .     S
C700   H727    1.110   .     S
C700   H726    1.111   .     S
C701   O746    1.413   .     S
C701   C702    1.522   .     S
C701   H730    1.112   .     S
C701   H729    1.115   .     S
C702   H732    1.111   .     S
C702   H734    1.110   .     S
C703   N742    1.367   .     A
C703   O744    1.383   .     S
C703   C707    1.416   .     A
C704   C708    1.417   .     A
C704   O745    1.382   .     S
C704   N741    1.372   .     A
C705   N742    1.367   .     A
C705   O746    1.383   .     S
C706   H740    1.081   .     S
C707   H710    1.082   .     S
C708   H711    1.081   .     S
H733   C30     1.111   1_556 S
N741   Zn756   2.012   .     S
N742   Zn755   2.012   .     S
O743   Zn755   2.002   .     S
O747   Zn756   2.002   .     S
O748   Zn755   2.002   .     S
O749   Zn756   2.002   .     S
O750   Zn755   1.944   .     S
O751   Zn756   1.944   .     S
O752   Zn755   1.944   .     S
O753   Zn756   1.944   .     S
C757   O833    1.290   .     A
C757   C774    1.438   .     S
C757   O827    1.288   .     A
C758   C762    1.407   .     A
C758   C789    1.416   .     A
C758   H796    1.082   .     S
C759   C763    1.361   .     S
C759   O837    1.276   .     A
C759   O834    1.276   .     A
C760   C764    1.361   .     S
C760   O836    1.276   .     A
C760   O835    1.276   .     A
C761   C792    1.405   .     A
C761   C790    1.405   .     A
C761   C930    1.516   1_545 S
C762   C791    1.407   .     A
C762   C929    1.516   .     S
C764   C91     1.162   1_556 S
C765   C770    1.381   .     A
C765   C776    1.399   .     A
C765   H793    1.083   .     S
C766   C771    1.380   .     A
C766   C777    1.399   .     A
C766   H804    1.083   .     S
C767   H815    1.083   .     S
C767   C777    1.399   .     A
C767   C772    1.381   .     A
C768   O831    1.290   .     A
C768   O832    1.288   .     A
C768   C775    1.438   .     S
C769   H819    1.083   .     S
C769   C776    1.399   .     A
C769   C773    1.380   .     A
C770   C774    1.399   .     A
C770   H820    1.084   .     S
C771   C775    1.398   .     A
C771   H821    1.081   .     S
C772   H822    1.084   .     S
C772   C775    1.399   .     A
C773   H823    1.081   .     S
C773   C774    1.398   .     A
C777   C692    1.445   1_655 S
C778   H797    1.115   .     S
C778   C780    1.522   .     S
C778   O838    1.412   .     S
C778   H798    1.112   .     S
C779   O838    1.382   .     S
C779   N825    1.372   .     A
C779   C790    1.417   .     A
C780   H801    1.111   .     S
C780   H800    1.110   .     S
C780   H799    1.111   .     S
C781   H803    1.112   .     S
C781   C782    1.522   .     S
C781   O828    1.413   .     S
C781   H802    1.115   .     S
C782   H806    1.110   .     S
C782   H807    1.111   .     S
C782   H133    1.111   1_556 S
C783   H808    1.115   .     S
C783   H809    1.112   .     S
C783   C784    1.522   .     S
C783   O829    1.412   .     S
C784   H812    1.111   .     S
C784   H811    1.110   .     S
C784   H810    1.111   .     S
C785   O830    1.413   .     S
C785   C786    1.522   .     S
C785   H814    1.112   .     S
C785   H813    1.115   .     S
C786   H816    1.111   .     S
C786   H818    1.110   .     S
C787   N826    1.367   .     A
C787   O828    1.383   .     S
C787   C791    1.416   .     A
C788   C792    1.417   .     A
C788   O829    1.382   .     S
C788   N825    1.372   .     A
C789   N826    1.367   .     A
C789   O830    1.383   .     S
C790   H824    1.081   .     S
C791   H794    1.082   .     S
C792   H795    1.081   .     S
H817   C114    1.111   1_556 S
N825   Zn840   2.012   .     S
N826   Zn839   2.012   .     S
O827   Zn839   2.002   .     S
O831   Zn840   2.002   .     S
O832   Zn839   2.002   .     S
O833   Zn840   2.002   .     S
O834   Zn839   1.944   .     S
O835   Zn840   1.944   .     S
O836   Zn839   1.944   .     S
O837   Zn840   1.944   .     S
C841   O917    1.290   .     A
C841   C858    1.438   .     S
C841   O911    1.288   .     A
C842   C846    1.407   .     A
C842   C873    1.416   .     A
C842   H880    1.082   .     S
C843   C847    1.361   .     S
C843   O921    1.276   .     A
C843   O918    1.276   .     A
C844   C848    1.361   .     S
C844   O920    1.276   .     A
C844   O919    1.276   .     A
C845   C876    1.405   .     A
C845   C874    1.405   .     A
C846   C875    1.407   .     A
C846   C677    1.516   1_565 S
C848   C175    1.162   1_556 S
C849   C854    1.381   .     A
C849   C860    1.399   .     A
C849   H877    1.083   .     S
C850   C855    1.380   .     A
C850   C861    1.399   .     A
C850   H888    1.083   .     S
C851   H899    1.083   .     S
C851   C861    1.399   .     A
C851   C856    1.381   .     A
C852   O915    1.290   .     A
C852   O916    1.288   .     A
C852   C859    1.438   .     S
C853   H903    1.083   .     S
C853   C860    1.399   .     A
C853   C857    1.380   .     A
C854   C858    1.399   .     A
C854   H904    1.084   .     S
C855   C859    1.398   .     A
C855   H905    1.081   .     S
C856   H906    1.084   .     S
C856   C859    1.399   .     A
C857   H907    1.081   .     S
C857   C858    1.398   .     A
C860   C945    1.445   1_455 S
C861   C944    1.445   .     S
C862   H881    1.115   .     S
C862   C864    1.522   .     S
C862   O922    1.412   .     S
C862   H882    1.112   .     S
C863   O922    1.382   .     S
C863   N909    1.372   .     A
C863   C874    1.417   .     A
C864   H885    1.111   .     S
C864   H884    1.110   .     S
C864   H883    1.111   .     S
C865   H887    1.112   .     S
C865   C866    1.522   .     S
C865   O912    1.413   .     S
C865   H886    1.115   .     S
C866   H890    1.110   .     S
C866   H891    1.111   .     S
C866   H217    1.111   1_556 S
C867   H892    1.115   .     S
C867   H893    1.112   .     S
C867   C868    1.522   .     S
C867   O913    1.412   .     S
C868   H896    1.111   .     S
C868   H895    1.110   .     S
C868   H894    1.111   .     S
C869   O914    1.413   .     S
C869   C870    1.522   .     S
C869   H898    1.112   .     S
C869   H897    1.115   .     S
C870   H900    1.111   .     S
C870   H902    1.110   .     S
C871   N910    1.367   .     A
C871   O912    1.383   .     S
C871   C875    1.416   .     A
C872   C876    1.417   .     A
C872   O913    1.382   .     S
C872   N909    1.372   .     A
C873   N910    1.367   .     A
C873   O914    1.383   .     S
C874   H908    1.081   .     S
C875   H878    1.082   .     S
C876   H879    1.081   .     S
H901   C198    1.111   1_556 S
N909   Zn924   2.012   .     S
N910   Zn923   2.012   .     S
O911   Zn923   2.002   .     S
O915   Zn924   2.002   .     S
O916   Zn923   2.002   .     S
O917   Zn924   2.002   .     S
O918   Zn923   1.944   .     S
O919   Zn924   1.944   .     S
O920   Zn923   1.944   .     S
O921   Zn924   1.944   .     S
C925   O1001   1.290   .     A
C925   C942    1.438   .     S
C925   O995    1.288   .     A
C926   C930    1.407   .     A
C926   C957    1.416   .     A
C926   H964    1.082   .     S
C927   C931    1.361   .     S
C927   O1005   1.276   .     A
C927   O1002   1.276   .     A
C928   C932    1.361   .     S
C928   O1004   1.276   .     A
C928   O1003   1.276   .     A
C929   C960    1.405   .     A
C929   C958    1.405   .     A
C930   C959    1.407   .     A
C930   C761    1.516   1_565 S
C932   C259    1.162   1_556 S
C933   C938    1.381   .     A
C933   C944    1.399   .     A
C933   H961    1.083   .     S
C934   C939    1.380   .     A
C934   C945    1.399   .     A
C934   H972    1.083   .     S
C935   H983    1.083   .     S
C935   C945    1.399   .     A
C935   C940    1.381   .     A
C936   O999    1.290   .     A
C936   O1000   1.288   .     A
C936   C943    1.438   .     S
C937   H987    1.083   .     S
C937   C944    1.399   .     A
C937   C941    1.380   .     A
C938   C942    1.399   .     A
C938   H988    1.084   .     S
C939   C943    1.398   .     A
C939   H989    1.081   .     S
C940   H990    1.084   .     S
C940   C943    1.399   .     A
C941   H991    1.081   .     S
C941   C942    1.398   .     A
C945   C860    1.445   1_655 S
C946   H965    1.115   .     S
C946   C948    1.522   .     S
C946   O1006   1.412   .     S
C946   H966    1.112   .     S
C947   O1006   1.382   .     S
C947   N993    1.372   .     A
C947   C958    1.417   .     A
C948   H969    1.111   .     S
C948   H968    1.110   .     S
C948   H967    1.111   .     S
C949   H971    1.112   .     S
C949   C950    1.522   .     S
C949   O996    1.413   .     S
C949   H970    1.115   .     S
C950   H974    1.110   .     S
C950   H975    1.111   .     S
C950   H301    1.111   1_556 S
C951   H976    1.115   .     S
C951   H977    1.112   .     S
C951   C952    1.522   .     S
C951   O997    1.412   .     S
C952   H980    1.111   .     S
C952   H979    1.110   .     S
C952   H978    1.111   .     S
C953   O998    1.413   .     S
C953   C954    1.522   .     S
C953   H982    1.112   .     S
C953   H981    1.115   .     S
C954   H984    1.111   .     S
C954   H986    1.110   .     S
C955   N994    1.367   .     A
C955   O996    1.383   .     S
C955   C959    1.416   .     A
C956   C960    1.417   .     A
C956   O997    1.382   .     S
C956   N993    1.372   .     A
C957   N994    1.367   .     A
C957   O998    1.383   .     S
C958   H992    1.081   .     S
C959   H962    1.082   .     S
C960   H963    1.081   .     S
H985   C282    1.111   1_556 S
N993   Zn1008  2.012   .     S
N994   Zn1007  2.012   .     S
O995   Zn1007  2.002   .     S
O999   Zn1008  2.002   .     S
O1000  Zn1007  2.002   .     S
O1001  Zn1008  2.002   .     S
O1002  Zn1007  1.944   .     S
O1003  Zn1008  1.944   .     S
O1004  Zn1007  1.944   .     S
O1005  Zn1008  1.944   .     S
