data_str_m2_o1_o17_pcu_sym.215
_audit_creation_date              2020-01-03
_audit_creation_method            'Materials Studio'
_symmetry_space_group_name_H-M    'P1'
_symmetry_Int_Tables_number       1
_symmetry_cell_setting            triclinic
loop_
_symmetry_equiv_pos_as_xyz
  x,y,z
_cell_length_a                    32.6171
_cell_length_b                    28.6200
_cell_length_c                    30.1618
_cell_angle_alpha                 89.4067
_cell_angle_beta                  91.8716
_cell_angle_gamma                 90.1977
loop_
_atom_site_label
_atom_site_type_symbol
_atom_site_fract_x
_atom_site_fract_y
_atom_site_fract_z
_atom_site_U_iso_or_equiv
_atom_site_adp_type
_atom_site_occupancy
C1     C     0.08755   0.16653   0.25419   0.00000  Uiso   1.00
C2     C     0.24578   0.16680   0.24581   0.00000  Uiso   1.00
C3     C     0.13421   0.24389   0.02140   0.00000  Uiso   1.00
C4     C     0.19916   0.08946   0.47860   0.00000  Uiso   1.00
C5     C     0.02054   0.12367   0.25577   0.00000  Uiso   1.00
C6     C     0.31279   0.20966   0.24424   0.00000  Uiso   1.00
C7     C     0.31239   0.12420   0.24234   0.00000  Uiso   1.00
C8     C     0.02094   0.20913   0.25767   0.00000  Uiso   1.00
C9     C     0.29078   0.16699   0.24192   0.00000  Uiso   1.00
C10    C     0.04255   0.16634   0.25808   0.00000  Uiso   1.00
C11    C     0.14383   0.02523   0.21888   0.00000  Uiso   1.00
C12    C     0.18950   0.30810   0.28112   0.00000  Uiso   1.00
C13    C     0.18954   0.02466   0.28107   0.00000  Uiso   1.00
C14    C     0.14380   0.30867   0.21893   0.00000  Uiso   1.00
C15    C     0.16665   0.16681   0.16435   0.00000  Uiso   1.00
C16    C     0.16668   0.16652   0.33565   0.00000  Uiso   1.00
C17    C     0.18224   0.12833   0.40807   0.00000  Uiso   1.00
C18    C     0.15110   0.20501   0.09193   0.00000  Uiso   1.00
C19    C     0.16647   0.16644   0.38401   0.00000  Uiso   1.00
C20    C     0.16687   0.16689   0.11599   0.00000  Uiso   1.00
C21    C     0.15082   0.20481   0.40606   0.00000  Uiso   1.00
C22    C     0.18252   0.12853   0.09394   0.00000  Uiso   1.00
C23    C     0.15045   0.20538   0.45243   0.00000  Uiso   1.00
C24    C     0.18291   0.12797   0.04757   0.00000  Uiso   1.00
C25    C     0.16661   0.16664   0.47675   0.00000  Uiso   1.00
C26    C     0.16673   0.16671   0.02325   0.00000  Uiso   1.00
C27    C     0.18270   0.12785   0.45443   0.00000  Uiso   1.00
C28    C     0.15064   0.20550   0.04557   0.00000  Uiso   1.00
C29    C     0.13411   0.24383   0.47465   0.00000  Uiso   1.00
C30    C     0.19926   0.08952   0.02535   0.00000  Uiso   1.00
Cu31   Cu    0.16667   0.21355   0.25000   0.00000  Uiso   1.00
Cu32   Cu    0.16667   0.11978   0.25000   0.00000  Uiso   1.00
H33    H     0.19485   0.09945   0.39042   0.00000  Uiso   1.00
H34    H     0.13847   0.23389   0.10958   0.00000  Uiso   1.00
H35    H     0.13855   0.23399   0.38675   0.00000  Uiso   1.00
H36    H     0.19480   0.09934   0.11325   0.00000  Uiso   1.00
N37    N     0.16667   0.28402   0.25000   0.00000  Uiso   1.00
N38    N     0.16667   0.04931   0.25000   0.00000  Uiso   1.00
O39    O     0.10655   0.20625   0.24999   0.00000  Uiso   1.00
O40    O     0.22679   0.12709   0.25000   0.00000  Uiso   1.00
O41    O     0.22679   0.20625   0.25000   0.00000  Uiso   1.00
O42    O     0.10655   0.12709   0.24999   0.00000  Uiso   1.00
O43    O     0.16666   0.20627   0.18513   0.00000  Uiso   1.00
O44    O     0.16668   0.12707   0.31487   0.00000  Uiso   1.00
O45    O     0.16668   0.20627   0.31487   0.00000  Uiso   1.00
O46    O     0.16666   0.12707   0.18513   0.00000  Uiso   1.00
N47    N     0.11722   0.28251   0.44951   0.00000  Uiso   1.00
H48    H     0.13305   0.31293   0.45847   0.00000  Uiso   1.00
H49    H     0.08640   0.28629   0.45711   0.00000  Uiso   1.00
N50    N     0.21619   0.05085   0.05049   0.00000  Uiso   1.00
H51    H     0.24701   0.04709   0.04287   0.00000  Uiso   1.00
H52    H     0.20038   0.02041   0.04153   0.00000  Uiso   1.00
N53    N     0.11744   0.28267   0.04457   0.00000  Uiso   1.00
H54    H     0.08656   0.28640   0.03492   0.00000  Uiso   1.00
H55    H     0.13321   0.31308   0.03589   0.00000  Uiso   1.00
N56    N     0.21596   0.05070   0.45543   0.00000  Uiso   1.00
H57    H     0.20030   0.02025   0.46418   0.00000  Uiso   1.00
H58    H     0.24687   0.04707   0.46502   0.00000  Uiso   1.00
C59    C     0.03917   0.07805   0.27258   0.00000  Uiso   1.00
H60    H     0.06178   0.08425   0.30024   0.00000  Uiso   1.00
H61    H     0.01547   0.05476   0.28663   0.00000  Uiso   1.00
H62    H     0.05376   0.05945   0.24534   0.00000  Uiso   1.00
C63    C     0.29417   0.25529   0.22743   0.00000  Uiso   1.00
H64    H     0.27156   0.24908   0.19976   0.00000  Uiso   1.00
H65    H     0.27957   0.27388   0.25467   0.00000  Uiso   1.00
H66    H     0.31787   0.27858   0.21338   0.00000  Uiso   1.00
C67    C     0.29335   0.07995   0.22332   0.00000  Uiso   1.00
H68    H     0.27026   0.08826   0.19655   0.00000  Uiso   1.00
H69    H     0.31679   0.05821   0.20748   0.00000  Uiso   1.00
H70    H     0.27918   0.05889   0.24972   0.00000  Uiso   1.00
C71    C     0.03998   0.25338   0.27668   0.00000  Uiso   1.00
H72    H     0.06308   0.24507   0.30345   0.00000  Uiso   1.00
H73    H     0.05415   0.27444   0.25028   0.00000  Uiso   1.00
H74    H     0.01654   0.27512   0.29253   0.00000  Uiso   1.00
N75    N     0.12059   0.05075   0.18567   0.00000  Uiso   1.00
H76    H     0.09007   0.03970   0.18562   0.00000  Uiso   1.00
H77    H     0.13229   0.04327   0.15469   0.00000  Uiso   1.00
N78    N     0.21275   0.28259   0.31433   0.00000  Uiso   1.00
H79    H     0.24326   0.29363   0.31438   0.00000  Uiso   1.00
H80    H     0.20104   0.29007   0.34531   0.00000  Uiso   1.00
N81    N     0.21316   0.04952   0.31395   0.00000  Uiso   1.00
H82    H     0.24399   0.04060   0.31159   0.00000  Uiso   1.00
H83    H     0.20364   0.03844   0.34507   0.00000  Uiso   1.00
N84    N     0.12018   0.28381   0.18604   0.00000  Uiso   1.00
H85    H     0.08934   0.29274   0.18841   0.00000  Uiso   1.00
H86    H     0.12969   0.29490   0.15493   0.00000  Uiso   1.00
C87    C     0.42088   0.16653   0.25419   0.00000  Uiso   1.00
C88    C     0.57912   0.16680   0.24581   0.00000  Uiso   1.00
C89    C     0.46754   0.24389   0.02140   0.00000  Uiso   1.00
C90    C     0.53249   0.08946   0.47860   0.00000  Uiso   1.00
C91    C     0.35387   0.12367   0.25577   0.00000  Uiso   1.00
C92    C     0.64613   0.20966   0.24424   0.00000  Uiso   1.00
C93    C     0.64573   0.12420   0.24234   0.00000  Uiso   1.00
C94    C     0.35427   0.20913   0.25767   0.00000  Uiso   1.00
C95    C     0.62412   0.16699   0.24192   0.00000  Uiso   1.00
C96    C     0.37588   0.16634   0.25808   0.00000  Uiso   1.00
C97    C     0.47716   0.02523   0.21888   0.00000  Uiso   1.00
C98    C     0.52284   0.30810   0.28112   0.00000  Uiso   1.00
C99    C     0.52287   0.02466   0.28107   0.00000  Uiso   1.00
C100   C     0.47713   0.30867   0.21893   0.00000  Uiso   1.00
C101   C     0.49999   0.16681   0.16435   0.00000  Uiso   1.00
C102   C     0.50001   0.16652   0.33565   0.00000  Uiso   1.00
C103   C     0.51557   0.12833   0.40807   0.00000  Uiso   1.00
C104   C     0.48443   0.20501   0.09193   0.00000  Uiso   1.00
C105   C     0.49980   0.16644   0.38401   0.00000  Uiso   1.00
C106   C     0.50020   0.16689   0.11599   0.00000  Uiso   1.00
C107   C     0.48416   0.20481   0.40606   0.00000  Uiso   1.00
C108   C     0.51586   0.12853   0.09394   0.00000  Uiso   1.00
C109   C     0.48378   0.20538   0.45243   0.00000  Uiso   1.00
C110   C     0.51624   0.12797   0.04757   0.00000  Uiso   1.00
C111   C     0.49994   0.16664   0.47675   0.00000  Uiso   1.00
C112   C     0.50007   0.16671   0.02325   0.00000  Uiso   1.00
C113   C     0.51603   0.12785   0.45443   0.00000  Uiso   1.00
C114   C     0.48398   0.20550   0.04557   0.00000  Uiso   1.00
C115   C     0.46745   0.24383   0.47465   0.00000  Uiso   1.00
C116   C     0.53259   0.08952   0.02535   0.00000  Uiso   1.00
Cu117  Cu    0.50000   0.21355   0.25000   0.00000  Uiso   1.00
Cu118  Cu    0.50000   0.11978   0.25000   0.00000  Uiso   1.00
H119   H     0.52819   0.09945   0.39042   0.00000  Uiso   1.00
H120   H     0.47181   0.23389   0.10958   0.00000  Uiso   1.00
H121   H     0.47189   0.23399   0.38675   0.00000  Uiso   1.00
H122   H     0.52813   0.09934   0.11325   0.00000  Uiso   1.00
N123   N     0.50000   0.28402   0.25000   0.00000  Uiso   1.00
N124   N     0.50000   0.04931   0.25000   0.00000  Uiso   1.00
O125   O     0.43988   0.20625   0.24999   0.00000  Uiso   1.00
O126   O     0.56012   0.12709   0.25000   0.00000  Uiso   1.00
O127   O     0.56012   0.20625   0.25000   0.00000  Uiso   1.00
O128   O     0.43988   0.12709   0.24999   0.00000  Uiso   1.00
O129   O     0.49999   0.20627   0.18513   0.00000  Uiso   1.00
O130   O     0.50001   0.12707   0.31487   0.00000  Uiso   1.00
O131   O     0.50001   0.20627   0.31487   0.00000  Uiso   1.00
O132   O     0.49999   0.12707   0.18513   0.00000  Uiso   1.00
N133   N     0.45056   0.28251   0.44951   0.00000  Uiso   1.00
H134   H     0.46638   0.31293   0.45847   0.00000  Uiso   1.00
H135   H     0.41974   0.28629   0.45711   0.00000  Uiso   1.00
N136   N     0.54952   0.05085   0.05049   0.00000  Uiso   1.00
H137   H     0.58034   0.04709   0.04287   0.00000  Uiso   1.00
H138   H     0.53371   0.02041   0.04153   0.00000  Uiso   1.00
N139   N     0.45078   0.28267   0.04457   0.00000  Uiso   1.00
H140   H     0.41989   0.28640   0.03492   0.00000  Uiso   1.00
H141   H     0.46654   0.31308   0.03589   0.00000  Uiso   1.00
N142   N     0.54929   0.05070   0.45543   0.00000  Uiso   1.00
H143   H     0.53363   0.02025   0.46418   0.00000  Uiso   1.00
H144   H     0.58021   0.04707   0.46502   0.00000  Uiso   1.00
C145   C     0.37250   0.07805   0.27258   0.00000  Uiso   1.00
H146   H     0.39511   0.08425   0.30024   0.00000  Uiso   1.00
H147   H     0.34880   0.05476   0.28663   0.00000  Uiso   1.00
H148   H     0.38710   0.05945   0.24534   0.00000  Uiso   1.00
C149   C     0.62750   0.25529   0.22743   0.00000  Uiso   1.00
H150   H     0.60489   0.24908   0.19976   0.00000  Uiso   1.00
H151   H     0.61290   0.27388   0.25467   0.00000  Uiso   1.00
H152   H     0.65120   0.27858   0.21338   0.00000  Uiso   1.00
C153   C     0.62668   0.07995   0.22332   0.00000  Uiso   1.00
H154   H     0.60359   0.08826   0.19655   0.00000  Uiso   1.00
H155   H     0.65012   0.05821   0.20748   0.00000  Uiso   1.00
H156   H     0.61252   0.05889   0.24972   0.00000  Uiso   1.00
C157   C     0.37332   0.25338   0.27668   0.00000  Uiso   1.00
H158   H     0.39641   0.24507   0.30345   0.00000  Uiso   1.00
H159   H     0.38748   0.27444   0.25028   0.00000  Uiso   1.00
H160   H     0.34988   0.27512   0.29253   0.00000  Uiso   1.00
N161   N     0.45392   0.05075   0.18567   0.00000  Uiso   1.00
H162   H     0.42340   0.03970   0.18562   0.00000  Uiso   1.00
H163   H     0.46563   0.04327   0.15469   0.00000  Uiso   1.00
N164   N     0.54608   0.28259   0.31433   0.00000  Uiso   1.00
H165   H     0.57660   0.29363   0.31438   0.00000  Uiso   1.00
H166   H     0.53437   0.29007   0.34531   0.00000  Uiso   1.00
N167   N     0.54649   0.04952   0.31395   0.00000  Uiso   1.00
H168   H     0.57733   0.04060   0.31159   0.00000  Uiso   1.00
H169   H     0.53697   0.03844   0.34507   0.00000  Uiso   1.00
N170   N     0.45351   0.28381   0.18604   0.00000  Uiso   1.00
H171   H     0.42267   0.29274   0.18841   0.00000  Uiso   1.00
H172   H     0.46302   0.29490   0.15493   0.00000  Uiso   1.00
C173   C     0.75422   0.16653   0.25419   0.00000  Uiso   1.00
C174   C     0.91245   0.16680   0.24581   0.00000  Uiso   1.00
C175   C     0.80087   0.24389   0.02140   0.00000  Uiso   1.00
C176   C     0.86583   0.08946   0.47860   0.00000  Uiso   1.00
C177   C     0.68721   0.12367   0.25577   0.00000  Uiso   1.00
C178   C     0.97946   0.20966   0.24424   0.00000  Uiso   1.00
C179   C     0.97906   0.12420   0.24234   0.00000  Uiso   1.00
C180   C     0.68761   0.20913   0.25767   0.00000  Uiso   1.00
C181   C     0.95745   0.16699   0.24192   0.00000  Uiso   1.00
C182   C     0.70922   0.16634   0.25808   0.00000  Uiso   1.00
C183   C     0.81050   0.02523   0.21888   0.00000  Uiso   1.00
C184   C     0.85617   0.30810   0.28112   0.00000  Uiso   1.00
C185   C     0.85620   0.02466   0.28107   0.00000  Uiso   1.00
C186   C     0.81046   0.30867   0.21893   0.00000  Uiso   1.00
C187   C     0.83332   0.16681   0.16435   0.00000  Uiso   1.00
C188   C     0.83335   0.16652   0.33565   0.00000  Uiso   1.00
C189   C     0.84890   0.12833   0.40807   0.00000  Uiso   1.00
C190   C     0.81776   0.20501   0.09193   0.00000  Uiso   1.00
C191   C     0.83314   0.16644   0.38401   0.00000  Uiso   1.00
C192   C     0.83353   0.16689   0.11599   0.00000  Uiso   1.00
C193   C     0.81749   0.20481   0.40606   0.00000  Uiso   1.00
C194   C     0.84919   0.12853   0.09394   0.00000  Uiso   1.00
C195   C     0.81711   0.20538   0.45243   0.00000  Uiso   1.00
C196   C     0.84957   0.12797   0.04757   0.00000  Uiso   1.00
C197   C     0.83328   0.16664   0.47675   0.00000  Uiso   1.00
C198   C     0.83340   0.16671   0.02325   0.00000  Uiso   1.00
C199   C     0.84937   0.12785   0.45443   0.00000  Uiso   1.00
C200   C     0.81731   0.20550   0.04557   0.00000  Uiso   1.00
C201   C     0.80078   0.24383   0.47465   0.00000  Uiso   1.00
C202   C     0.86593   0.08952   0.02535   0.00000  Uiso   1.00
Cu203  Cu    0.83333   0.21355   0.25000   0.00000  Uiso   1.00
Cu204  Cu    0.83333   0.11978   0.25000   0.00000  Uiso   1.00
H205   H     0.86152   0.09945   0.39042   0.00000  Uiso   1.00
H206   H     0.80514   0.23389   0.10958   0.00000  Uiso   1.00
H207   H     0.80522   0.23399   0.38675   0.00000  Uiso   1.00
H208   H     0.86147   0.09934   0.11325   0.00000  Uiso   1.00
N209   N     0.83333   0.28402   0.25000   0.00000  Uiso   1.00
N210   N     0.83333   0.04931   0.25000   0.00000  Uiso   1.00
O211   O     0.77321   0.20625   0.24999   0.00000  Uiso   1.00
O212   O     0.89345   0.12709   0.25000   0.00000  Uiso   1.00
O213   O     0.89345   0.20625   0.25000   0.00000  Uiso   1.00
O214   O     0.77321   0.12709   0.24999   0.00000  Uiso   1.00
O215   O     0.83332   0.20627   0.18513   0.00000  Uiso   1.00
O216   O     0.83334   0.12707   0.31487   0.00000  Uiso   1.00
O217   O     0.83334   0.20627   0.31487   0.00000  Uiso   1.00
O218   O     0.83332   0.12707   0.18513   0.00000  Uiso   1.00
N219   N     0.78389   0.28251   0.44951   0.00000  Uiso   1.00
H220   H     0.79972   0.31293   0.45847   0.00000  Uiso   1.00
H221   H     0.75307   0.28629   0.45711   0.00000  Uiso   1.00
N222   N     0.88285   0.05085   0.05049   0.00000  Uiso   1.00
H223   H     0.91368   0.04709   0.04287   0.00000  Uiso   1.00
H224   H     0.86704   0.02041   0.04153   0.00000  Uiso   1.00
N225   N     0.78411   0.28267   0.04457   0.00000  Uiso   1.00
H226   H     0.75323   0.28640   0.03492   0.00000  Uiso   1.00
H227   H     0.79987   0.31308   0.03589   0.00000  Uiso   1.00
N228   N     0.88263   0.05070   0.45543   0.00000  Uiso   1.00
H229   H     0.86696   0.02025   0.46418   0.00000  Uiso   1.00
H230   H     0.91354   0.04707   0.46502   0.00000  Uiso   1.00
C231   C     0.70584   0.07805   0.27258   0.00000  Uiso   1.00
H232   H     0.72844   0.08425   0.30024   0.00000  Uiso   1.00
H233   H     0.68213   0.05476   0.28663   0.00000  Uiso   1.00
H234   H     0.72043   0.05945   0.24534   0.00000  Uiso   1.00
C235   C     0.96083   0.25529   0.22743   0.00000  Uiso   1.00
H236   H     0.93823   0.24908   0.19976   0.00000  Uiso   1.00
H237   H     0.94623   0.27388   0.25467   0.00000  Uiso   1.00
H238   H     0.98453   0.27858   0.21338   0.00000  Uiso   1.00
C239   C     0.96002   0.07995   0.22332   0.00000  Uiso   1.00
H240   H     0.93692   0.08826   0.19655   0.00000  Uiso   1.00
H241   H     0.98346   0.05821   0.20748   0.00000  Uiso   1.00
H242   H     0.94585   0.05889   0.24972   0.00000  Uiso   1.00
C243   C     0.70665   0.25338   0.27668   0.00000  Uiso   1.00
H244   H     0.72975   0.24507   0.30345   0.00000  Uiso   1.00
H245   H     0.72081   0.27444   0.25028   0.00000  Uiso   1.00
H246   H     0.68321   0.27512   0.29253   0.00000  Uiso   1.00
N247   N     0.78725   0.05075   0.18567   0.00000  Uiso   1.00
H248   H     0.75673   0.03970   0.18562   0.00000  Uiso   1.00
H249   H     0.79896   0.04327   0.15469   0.00000  Uiso   1.00
N250   N     0.87941   0.28259   0.31433   0.00000  Uiso   1.00
H251   H     0.90993   0.29363   0.31438   0.00000  Uiso   1.00
H252   H     0.86771   0.29007   0.34531   0.00000  Uiso   1.00
N253   N     0.87982   0.04952   0.31395   0.00000  Uiso   1.00
H254   H     0.91066   0.04060   0.31159   0.00000  Uiso   1.00
H255   H     0.87031   0.03844   0.34507   0.00000  Uiso   1.00
N256   N     0.78684   0.28381   0.18604   0.00000  Uiso   1.00
H257   H     0.75601   0.29274   0.18841   0.00000  Uiso   1.00
H258   H     0.79636   0.29490   0.15493   0.00000  Uiso   1.00
C259   C     0.08755   0.49987   0.25419   0.00000  Uiso   1.00
C260   C     0.24578   0.50013   0.24581   0.00000  Uiso   1.00
C261   C     0.13421   0.57723   0.02140   0.00000  Uiso   1.00
C262   C     0.19916   0.42279   0.47860   0.00000  Uiso   1.00
C263   C     0.02054   0.45700   0.25577   0.00000  Uiso   1.00
C264   C     0.31279   0.54300   0.24424   0.00000  Uiso   1.00
C265   C     0.31239   0.45753   0.24234   0.00000  Uiso   1.00
C266   C     0.02094   0.54247   0.25767   0.00000  Uiso   1.00
C267   C     0.29078   0.50033   0.24192   0.00000  Uiso   1.00
C268   C     0.04255   0.49967   0.25808   0.00000  Uiso   1.00
C269   C     0.14383   0.35857   0.21888   0.00000  Uiso   1.00
C270   C     0.18950   0.64143   0.28112   0.00000  Uiso   1.00
C271   C     0.18954   0.35800   0.28107   0.00000  Uiso   1.00
C272   C     0.14380   0.64200   0.21893   0.00000  Uiso   1.00
C273   C     0.16665   0.50015   0.16435   0.00000  Uiso   1.00
C274   C     0.16668   0.49985   0.33565   0.00000  Uiso   1.00
C275   C     0.18224   0.46166   0.40807   0.00000  Uiso   1.00
C276   C     0.15110   0.53835   0.09193   0.00000  Uiso   1.00
C277   C     0.16647   0.49977   0.38401   0.00000  Uiso   1.00
C278   C     0.16687   0.50023   0.11599   0.00000  Uiso   1.00
C279   C     0.15082   0.53815   0.40606   0.00000  Uiso   1.00
C280   C     0.18252   0.46186   0.09394   0.00000  Uiso   1.00
C281   C     0.15045   0.53871   0.45243   0.00000  Uiso   1.00
C282   C     0.18291   0.46130   0.04757   0.00000  Uiso   1.00
C283   C     0.16661   0.49997   0.47675   0.00000  Uiso   1.00
C284   C     0.16673   0.50004   0.02325   0.00000  Uiso   1.00
C285   C     0.18270   0.46118   0.45443   0.00000  Uiso   1.00
C286   C     0.15064   0.53883   0.04557   0.00000  Uiso   1.00
C287   C     0.13411   0.57716   0.47465   0.00000  Uiso   1.00
C288   C     0.19926   0.42285   0.02535   0.00000  Uiso   1.00
Cu289  Cu    0.16667   0.54689   0.25000   0.00000  Uiso   1.00
Cu290  Cu    0.16667   0.45311   0.25000   0.00000  Uiso   1.00
H291   H     0.19485   0.43278   0.39042   0.00000  Uiso   1.00
H292   H     0.13847   0.56723   0.10958   0.00000  Uiso   1.00
H293   H     0.13855   0.56733   0.38675   0.00000  Uiso   1.00
H294   H     0.19480   0.43268   0.11325   0.00000  Uiso   1.00
N295   N     0.16667   0.61736   0.25000   0.00000  Uiso   1.00
N296   N     0.16667   0.38264   0.25000   0.00000  Uiso   1.00
O297   O     0.10655   0.53958   0.24999   0.00000  Uiso   1.00
O298   O     0.22679   0.46042   0.25000   0.00000  Uiso   1.00
O299   O     0.22679   0.53958   0.25000   0.00000  Uiso   1.00
O300   O     0.10655   0.46042   0.24999   0.00000  Uiso   1.00
O301   O     0.16666   0.53960   0.18513   0.00000  Uiso   1.00
O302   O     0.16668   0.46040   0.31487   0.00000  Uiso   1.00
O303   O     0.16668   0.53960   0.31487   0.00000  Uiso   1.00
O304   O     0.16666   0.46040   0.18513   0.00000  Uiso   1.00
N305   N     0.11722   0.61584   0.44951   0.00000  Uiso   1.00
H306   H     0.13305   0.64627   0.45847   0.00000  Uiso   1.00
H307   H     0.08640   0.61963   0.45711   0.00000  Uiso   1.00
N308   N     0.21619   0.38419   0.05049   0.00000  Uiso   1.00
H309   H     0.24701   0.38042   0.04287   0.00000  Uiso   1.00
H310   H     0.20038   0.35374   0.04153   0.00000  Uiso   1.00
N311   N     0.11744   0.61601   0.04457   0.00000  Uiso   1.00
H312   H     0.08656   0.61974   0.03492   0.00000  Uiso   1.00
H313   H     0.13321   0.64641   0.03589   0.00000  Uiso   1.00
N314   N     0.21596   0.38403   0.45543   0.00000  Uiso   1.00
H315   H     0.20030   0.35359   0.46418   0.00000  Uiso   1.00
H316   H     0.24687   0.38040   0.46502   0.00000  Uiso   1.00
C317   C     0.03917   0.41138   0.27258   0.00000  Uiso   1.00
H318   H     0.06178   0.41758   0.30024   0.00000  Uiso   1.00
H319   H     0.01547   0.38809   0.28663   0.00000  Uiso   1.00
H320   H     0.05376   0.39279   0.24534   0.00000  Uiso   1.00
C321   C     0.29417   0.58862   0.22743   0.00000  Uiso   1.00
H322   H     0.27156   0.58242   0.19976   0.00000  Uiso   1.00
H323   H     0.27957   0.60721   0.25467   0.00000  Uiso   1.00
H324   H     0.31787   0.61191   0.21338   0.00000  Uiso   1.00
C325   C     0.29335   0.41329   0.22332   0.00000  Uiso   1.00
H326   H     0.27026   0.42159   0.19655   0.00000  Uiso   1.00
H327   H     0.31679   0.39154   0.20748   0.00000  Uiso   1.00
H328   H     0.27918   0.39223   0.24972   0.00000  Uiso   1.00
C329   C     0.03998   0.58671   0.27668   0.00000  Uiso   1.00
H330   H     0.06308   0.57840   0.30345   0.00000  Uiso   1.00
H331   H     0.05415   0.60778   0.25028   0.00000  Uiso   1.00
H332   H     0.01654   0.60845   0.29253   0.00000  Uiso   1.00
N333   N     0.12059   0.38408   0.18567   0.00000  Uiso   1.00
H334   H     0.09007   0.37304   0.18562   0.00000  Uiso   1.00
H335   H     0.13229   0.37660   0.15469   0.00000  Uiso   1.00
N336   N     0.21275   0.61592   0.31433   0.00000  Uiso   1.00
H337   H     0.24326   0.62696   0.31438   0.00000  Uiso   1.00
H338   H     0.20104   0.62340   0.34531   0.00000  Uiso   1.00
N339   N     0.21316   0.38285   0.31395   0.00000  Uiso   1.00
H340   H     0.24399   0.37393   0.31159   0.00000  Uiso   1.00
H341   H     0.20364   0.37177   0.34507   0.00000  Uiso   1.00
N342   N     0.12018   0.61715   0.18604   0.00000  Uiso   1.00
H343   H     0.08934   0.62607   0.18841   0.00000  Uiso   1.00
H344   H     0.12969   0.62823   0.15493   0.00000  Uiso   1.00
C345   C     0.42088   0.49987   0.25419   0.00000  Uiso   1.00
C346   C     0.57912   0.50013   0.24581   0.00000  Uiso   1.00
C347   C     0.46754   0.57723   0.02140   0.00000  Uiso   1.00
C348   C     0.53249   0.42279   0.47860   0.00000  Uiso   1.00
C349   C     0.35387   0.45700   0.25577   0.00000  Uiso   1.00
C350   C     0.64613   0.54300   0.24424   0.00000  Uiso   1.00
C351   C     0.64573   0.45753   0.24234   0.00000  Uiso   1.00
C352   C     0.35427   0.54247   0.25767   0.00000  Uiso   1.00
C353   C     0.62412   0.50033   0.24192   0.00000  Uiso   1.00
C354   C     0.37588   0.49967   0.25808   0.00000  Uiso   1.00
C355   C     0.47716   0.35857   0.21888   0.00000  Uiso   1.00
C356   C     0.52284   0.64143   0.28112   0.00000  Uiso   1.00
C357   C     0.52287   0.35800   0.28107   0.00000  Uiso   1.00
C358   C     0.47713   0.64200   0.21893   0.00000  Uiso   1.00
C359   C     0.49999   0.50015   0.16435   0.00000  Uiso   1.00
C360   C     0.50001   0.49985   0.33565   0.00000  Uiso   1.00
C361   C     0.51557   0.46166   0.40807   0.00000  Uiso   1.00
C362   C     0.48443   0.53835   0.09193   0.00000  Uiso   1.00
C363   C     0.49980   0.49977   0.38401   0.00000  Uiso   1.00
C364   C     0.50020   0.50023   0.11599   0.00000  Uiso   1.00
C365   C     0.48416   0.53815   0.40606   0.00000  Uiso   1.00
C366   C     0.51586   0.46186   0.09394   0.00000  Uiso   1.00
C367   C     0.48378   0.53871   0.45243   0.00000  Uiso   1.00
C368   C     0.51624   0.46130   0.04757   0.00000  Uiso   1.00
C369   C     0.49994   0.49997   0.47675   0.00000  Uiso   1.00
C370   C     0.50007   0.50004   0.02325   0.00000  Uiso   1.00
C371   C     0.51603   0.46118   0.45443   0.00000  Uiso   1.00
C372   C     0.48398   0.53883   0.04557   0.00000  Uiso   1.00
C373   C     0.46745   0.57716   0.47465   0.00000  Uiso   1.00
C374   C     0.53259   0.42285   0.02535   0.00000  Uiso   1.00
Cu375  Cu    0.50000   0.54689   0.25000   0.00000  Uiso   1.00
Cu376  Cu    0.50000   0.45311   0.25000   0.00000  Uiso   1.00
H377   H     0.52819   0.43278   0.39042   0.00000  Uiso   1.00
H378   H     0.47181   0.56723   0.10958   0.00000  Uiso   1.00
H379   H     0.47189   0.56733   0.38675   0.00000  Uiso   1.00
H380   H     0.52813   0.43268   0.11325   0.00000  Uiso   1.00
N381   N     0.50000   0.61736   0.25000   0.00000  Uiso   1.00
N382   N     0.50000   0.38264   0.25000   0.00000  Uiso   1.00
O383   O     0.43988   0.53958   0.24999   0.00000  Uiso   1.00
O384   O     0.56012   0.46042   0.25000   0.00000  Uiso   1.00
O385   O     0.56012   0.53958   0.25000   0.00000  Uiso   1.00
O386   O     0.43988   0.46042   0.24999   0.00000  Uiso   1.00
O387   O     0.49999   0.53960   0.18513   0.00000  Uiso   1.00
O388   O     0.50001   0.46040   0.31487   0.00000  Uiso   1.00
O389   O     0.50001   0.53960   0.31487   0.00000  Uiso   1.00
O390   O     0.49999   0.46040   0.18513   0.00000  Uiso   1.00
N391   N     0.45056   0.61584   0.44951   0.00000  Uiso   1.00
H392   H     0.46638   0.64627   0.45847   0.00000  Uiso   1.00
H393   H     0.41974   0.61963   0.45711   0.00000  Uiso   1.00
N394   N     0.54952   0.38419   0.05049   0.00000  Uiso   1.00
H395   H     0.58034   0.38042   0.04287   0.00000  Uiso   1.00
H396   H     0.53371   0.35374   0.04153   0.00000  Uiso   1.00
N397   N     0.45078   0.61601   0.04457   0.00000  Uiso   1.00
H398   H     0.41989   0.61974   0.03492   0.00000  Uiso   1.00
H399   H     0.46654   0.64641   0.03589   0.00000  Uiso   1.00
N400   N     0.54929   0.38403   0.45543   0.00000  Uiso   1.00
H401   H     0.53363   0.35359   0.46418   0.00000  Uiso   1.00
H402   H     0.58021   0.38040   0.46502   0.00000  Uiso   1.00
C403   C     0.37250   0.41138   0.27258   0.00000  Uiso   1.00
H404   H     0.39511   0.41758   0.30024   0.00000  Uiso   1.00
H405   H     0.34880   0.38809   0.28663   0.00000  Uiso   1.00
H406   H     0.38710   0.39279   0.24534   0.00000  Uiso   1.00
C407   C     0.62750   0.58862   0.22743   0.00000  Uiso   1.00
H408   H     0.60489   0.58242   0.19976   0.00000  Uiso   1.00
H409   H     0.61290   0.60721   0.25467   0.00000  Uiso   1.00
H410   H     0.65120   0.61191   0.21338   0.00000  Uiso   1.00
C411   C     0.62668   0.41329   0.22332   0.00000  Uiso   1.00
H412   H     0.60359   0.42159   0.19655   0.00000  Uiso   1.00
H413   H     0.65012   0.39154   0.20748   0.00000  Uiso   1.00
H414   H     0.61252   0.39223   0.24972   0.00000  Uiso   1.00
C415   C     0.37332   0.58671   0.27668   0.00000  Uiso   1.00
H416   H     0.39641   0.57840   0.30345   0.00000  Uiso   1.00
H417   H     0.38748   0.60778   0.25028   0.00000  Uiso   1.00
H418   H     0.34988   0.60845   0.29253   0.00000  Uiso   1.00
N419   N     0.45392   0.38408   0.18567   0.00000  Uiso   1.00
H420   H     0.42340   0.37304   0.18562   0.00000  Uiso   1.00
H421   H     0.46563   0.37660   0.15469   0.00000  Uiso   1.00
N422   N     0.54608   0.61592   0.31433   0.00000  Uiso   1.00
H423   H     0.57660   0.62696   0.31438   0.00000  Uiso   1.00
H424   H     0.53437   0.62340   0.34531   0.00000  Uiso   1.00
N425   N     0.54649   0.38285   0.31395   0.00000  Uiso   1.00
H426   H     0.57733   0.37393   0.31159   0.00000  Uiso   1.00
H427   H     0.53697   0.37177   0.34507   0.00000  Uiso   1.00
N428   N     0.45351   0.61715   0.18604   0.00000  Uiso   1.00
H429   H     0.42267   0.62607   0.18841   0.00000  Uiso   1.00
H430   H     0.46302   0.62823   0.15493   0.00000  Uiso   1.00
C431   C     0.75422   0.49987   0.25419   0.00000  Uiso   1.00
C432   C     0.91245   0.50013   0.24581   0.00000  Uiso   1.00
C433   C     0.80087   0.57723   0.02140   0.00000  Uiso   1.00
C434   C     0.86583   0.42279   0.47860   0.00000  Uiso   1.00
C435   C     0.68721   0.45700   0.25577   0.00000  Uiso   1.00
C436   C     0.97946   0.54300   0.24424   0.00000  Uiso   1.00
C437   C     0.97906   0.45753   0.24234   0.00000  Uiso   1.00
C438   C     0.68761   0.54247   0.25767   0.00000  Uiso   1.00
C439   C     0.95745   0.50033   0.24192   0.00000  Uiso   1.00
C440   C     0.70922   0.49967   0.25808   0.00000  Uiso   1.00
C441   C     0.81050   0.35857   0.21888   0.00000  Uiso   1.00
C442   C     0.85617   0.64143   0.28112   0.00000  Uiso   1.00
C443   C     0.85620   0.35800   0.28107   0.00000  Uiso   1.00
C444   C     0.81046   0.64200   0.21893   0.00000  Uiso   1.00
C445   C     0.83332   0.50015   0.16435   0.00000  Uiso   1.00
C446   C     0.83335   0.49985   0.33565   0.00000  Uiso   1.00
C447   C     0.84890   0.46166   0.40807   0.00000  Uiso   1.00
C448   C     0.81776   0.53835   0.09193   0.00000  Uiso   1.00
C449   C     0.83314   0.49977   0.38401   0.00000  Uiso   1.00
C450   C     0.83353   0.50023   0.11599   0.00000  Uiso   1.00
C451   C     0.81749   0.53815   0.40606   0.00000  Uiso   1.00
C452   C     0.84919   0.46186   0.09394   0.00000  Uiso   1.00
C453   C     0.81711   0.53871   0.45243   0.00000  Uiso   1.00
C454   C     0.84957   0.46130   0.04757   0.00000  Uiso   1.00
C455   C     0.83328   0.49997   0.47675   0.00000  Uiso   1.00
C456   C     0.83340   0.50004   0.02325   0.00000  Uiso   1.00
C457   C     0.84937   0.46118   0.45443   0.00000  Uiso   1.00
C458   C     0.81731   0.53883   0.04557   0.00000  Uiso   1.00
C459   C     0.80078   0.57716   0.47465   0.00000  Uiso   1.00
C460   C     0.86593   0.42285   0.02535   0.00000  Uiso   1.00
Cu461  Cu    0.83333   0.54689   0.25000   0.00000  Uiso   1.00
Cu462  Cu    0.83333   0.45311   0.25000   0.00000  Uiso   1.00
H463   H     0.86152   0.43278   0.39042   0.00000  Uiso   1.00
H464   H     0.80514   0.56723   0.10958   0.00000  Uiso   1.00
H465   H     0.80522   0.56733   0.38675   0.00000  Uiso   1.00
H466   H     0.86147   0.43268   0.11325   0.00000  Uiso   1.00
N467   N     0.83333   0.61736   0.25000   0.00000  Uiso   1.00
N468   N     0.83333   0.38264   0.25000   0.00000  Uiso   1.00
O469   O     0.77321   0.53958   0.24999   0.00000  Uiso   1.00
O470   O     0.89345   0.46042   0.25000   0.00000  Uiso   1.00
O471   O     0.89345   0.53958   0.25000   0.00000  Uiso   1.00
O472   O     0.77321   0.46042   0.24999   0.00000  Uiso   1.00
O473   O     0.83332   0.53960   0.18513   0.00000  Uiso   1.00
O474   O     0.83334   0.46040   0.31487   0.00000  Uiso   1.00
O475   O     0.83334   0.53960   0.31487   0.00000  Uiso   1.00
O476   O     0.83332   0.46040   0.18513   0.00000  Uiso   1.00
N477   N     0.78389   0.61584   0.44951   0.00000  Uiso   1.00
H478   H     0.79972   0.64627   0.45847   0.00000  Uiso   1.00
H479   H     0.75307   0.61963   0.45711   0.00000  Uiso   1.00
N480   N     0.88285   0.38419   0.05049   0.00000  Uiso   1.00
H481   H     0.91368   0.38042   0.04287   0.00000  Uiso   1.00
H482   H     0.86704   0.35374   0.04153   0.00000  Uiso   1.00
N483   N     0.78411   0.61601   0.04457   0.00000  Uiso   1.00
H484   H     0.75323   0.61974   0.03492   0.00000  Uiso   1.00
H485   H     0.79987   0.64641   0.03589   0.00000  Uiso   1.00
N486   N     0.88263   0.38403   0.45543   0.00000  Uiso   1.00
H487   H     0.86696   0.35359   0.46418   0.00000  Uiso   1.00
H488   H     0.91354   0.38040   0.46502   0.00000  Uiso   1.00
C489   C     0.70584   0.41138   0.27258   0.00000  Uiso   1.00
H490   H     0.72844   0.41758   0.30024   0.00000  Uiso   1.00
H491   H     0.68213   0.38809   0.28663   0.00000  Uiso   1.00
H492   H     0.72043   0.39279   0.24534   0.00000  Uiso   1.00
C493   C     0.96083   0.58862   0.22743   0.00000  Uiso   1.00
H494   H     0.93823   0.58242   0.19976   0.00000  Uiso   1.00
H495   H     0.94623   0.60721   0.25467   0.00000  Uiso   1.00
H496   H     0.98453   0.61191   0.21338   0.00000  Uiso   1.00
C497   C     0.96002   0.41329   0.22332   0.00000  Uiso   1.00
H498   H     0.93692   0.42159   0.19655   0.00000  Uiso   1.00
H499   H     0.98346   0.39154   0.20748   0.00000  Uiso   1.00
H500   H     0.94585   0.39223   0.24972   0.00000  Uiso   1.00
C501   C     0.70665   0.58671   0.27668   0.00000  Uiso   1.00
H502   H     0.72975   0.57840   0.30345   0.00000  Uiso   1.00
H503   H     0.72081   0.60778   0.25028   0.00000  Uiso   1.00
H504   H     0.68321   0.60845   0.29253   0.00000  Uiso   1.00
N505   N     0.78725   0.38408   0.18567   0.00000  Uiso   1.00
H506   H     0.75673   0.37304   0.18562   0.00000  Uiso   1.00
H507   H     0.79896   0.37660   0.15469   0.00000  Uiso   1.00
N508   N     0.87941   0.61592   0.31433   0.00000  Uiso   1.00
H509   H     0.90993   0.62696   0.31438   0.00000  Uiso   1.00
H510   H     0.86771   0.62340   0.34531   0.00000  Uiso   1.00
N511   N     0.87982   0.38285   0.31395   0.00000  Uiso   1.00
H512   H     0.91066   0.37393   0.31159   0.00000  Uiso   1.00
H513   H     0.87031   0.37177   0.34507   0.00000  Uiso   1.00
N514   N     0.78684   0.61715   0.18604   0.00000  Uiso   1.00
H515   H     0.75601   0.62607   0.18841   0.00000  Uiso   1.00
H516   H     0.79636   0.62823   0.15493   0.00000  Uiso   1.00
C517   C     0.08755   0.83320   0.25419   0.00000  Uiso   1.00
C518   C     0.24578   0.83347   0.24581   0.00000  Uiso   1.00
C519   C     0.13421   0.91056   0.02140   0.00000  Uiso   1.00
C520   C     0.19916   0.75613   0.47860   0.00000  Uiso   1.00
C521   C     0.02054   0.79034   0.25577   0.00000  Uiso   1.00
C522   C     0.31279   0.87633   0.24424   0.00000  Uiso   1.00
C523   C     0.31239   0.79087   0.24234   0.00000  Uiso   1.00
C524   C     0.02094   0.87580   0.25767   0.00000  Uiso   1.00
C525   C     0.29078   0.83366   0.24192   0.00000  Uiso   1.00
C526   C     0.04255   0.83300   0.25808   0.00000  Uiso   1.00
C527   C     0.14383   0.69190   0.21888   0.00000  Uiso   1.00
C528   C     0.18950   0.97477   0.28112   0.00000  Uiso   1.00
C529   C     0.18954   0.69133   0.28107   0.00000  Uiso   1.00
C530   C     0.14380   0.97534   0.21893   0.00000  Uiso   1.00
C531   C     0.16665   0.83348   0.16435   0.00000  Uiso   1.00
C532   C     0.16668   0.83319   0.33565   0.00000  Uiso   1.00
C533   C     0.18224   0.79499   0.40807   0.00000  Uiso   1.00
C534   C     0.15110   0.87168   0.09193   0.00000  Uiso   1.00
C535   C     0.16647   0.83311   0.38401   0.00000  Uiso   1.00
C536   C     0.16687   0.83356   0.11599   0.00000  Uiso   1.00
C537   C     0.15082   0.87148   0.40606   0.00000  Uiso   1.00
C538   C     0.18252   0.79519   0.09394   0.00000  Uiso   1.00
C539   C     0.15045   0.87204   0.45243   0.00000  Uiso   1.00
C540   C     0.18291   0.79463   0.04757   0.00000  Uiso   1.00
C541   C     0.16661   0.83330   0.47675   0.00000  Uiso   1.00
C542   C     0.16673   0.83337   0.02325   0.00000  Uiso   1.00
C543   C     0.18270   0.79451   0.45443   0.00000  Uiso   1.00
C544   C     0.15064   0.87216   0.04557   0.00000  Uiso   1.00
C545   C     0.13411   0.91050   0.47465   0.00000  Uiso   1.00
C546   C     0.19926   0.75619   0.02535   0.00000  Uiso   1.00
Cu547  Cu    0.16667   0.88022   0.25000   0.00000  Uiso   1.00
Cu548  Cu    0.16667   0.78645   0.25000   0.00000  Uiso   1.00
H549   H     0.19485   0.76611   0.39042   0.00000  Uiso   1.00
H550   H     0.13847   0.90056   0.10958   0.00000  Uiso   1.00
H551   H     0.13855   0.90066   0.38675   0.00000  Uiso   1.00
H552   H     0.19480   0.76601   0.11325   0.00000  Uiso   1.00
N553   N     0.16667   0.95069   0.25000   0.00000  Uiso   1.00
N554   N     0.16667   0.71598   0.25000   0.00000  Uiso   1.00
O555   O     0.10655   0.87291   0.24999   0.00000  Uiso   1.00
O556   O     0.22679   0.79375   0.25000   0.00000  Uiso   1.00
O557   O     0.22679   0.87291   0.25000   0.00000  Uiso   1.00
O558   O     0.10655   0.79375   0.24999   0.00000  Uiso   1.00
O559   O     0.16666   0.87293   0.18513   0.00000  Uiso   1.00
O560   O     0.16668   0.79373   0.31487   0.00000  Uiso   1.00
O561   O     0.16668   0.87293   0.31487   0.00000  Uiso   1.00
O562   O     0.16666   0.79373   0.18513   0.00000  Uiso   1.00
N563   N     0.11722   0.94918   0.44951   0.00000  Uiso   1.00
H564   H     0.13305   0.97960   0.45847   0.00000  Uiso   1.00
H565   H     0.08640   0.95296   0.45711   0.00000  Uiso   1.00
N566   N     0.21619   0.71752   0.05049   0.00000  Uiso   1.00
H567   H     0.24701   0.71375   0.04287   0.00000  Uiso   1.00
H568   H     0.20038   0.68708   0.04153   0.00000  Uiso   1.00
N569   N     0.11744   0.94934   0.04457   0.00000  Uiso   1.00
H570   H     0.08656   0.95307   0.03492   0.00000  Uiso   1.00
H571   H     0.13321   0.97975   0.03589   0.00000  Uiso   1.00
N572   N     0.21596   0.71737   0.45543   0.00000  Uiso   1.00
H573   H     0.20030   0.68692   0.46418   0.00000  Uiso   1.00
H574   H     0.24687   0.71374   0.46502   0.00000  Uiso   1.00
C575   C     0.03917   0.74471   0.27258   0.00000  Uiso   1.00
H576   H     0.06178   0.75092   0.30024   0.00000  Uiso   1.00
H577   H     0.01547   0.72143   0.28663   0.00000  Uiso   1.00
H578   H     0.05376   0.72612   0.24534   0.00000  Uiso   1.00
C579   C     0.29417   0.92195   0.22743   0.00000  Uiso   1.00
H580   H     0.27156   0.91575   0.19976   0.00000  Uiso   1.00
H581   H     0.27957   0.94054   0.25467   0.00000  Uiso   1.00
H582   H     0.31787   0.94524   0.21338   0.00000  Uiso   1.00
C583   C     0.29335   0.74662   0.22332   0.00000  Uiso   1.00
H584   H     0.27026   0.75493   0.19655   0.00000  Uiso   1.00
H585   H     0.31679   0.72488   0.20748   0.00000  Uiso   1.00
H586   H     0.27918   0.72556   0.24972   0.00000  Uiso   1.00
C587   C     0.03998   0.92004   0.27668   0.00000  Uiso   1.00
H588   H     0.06308   0.91174   0.30345   0.00000  Uiso   1.00
H589   H     0.05415   0.94111   0.25028   0.00000  Uiso   1.00
H590   H     0.01654   0.94179   0.29253   0.00000  Uiso   1.00
N591   N     0.12059   0.71741   0.18567   0.00000  Uiso   1.00
H592   H     0.09007   0.70637   0.18562   0.00000  Uiso   1.00
H593   H     0.13229   0.70994   0.15469   0.00000  Uiso   1.00
N594   N     0.21275   0.94925   0.31433   0.00000  Uiso   1.00
H595   H     0.24326   0.96030   0.31438   0.00000  Uiso   1.00
H596   H     0.20104   0.95673   0.34531   0.00000  Uiso   1.00
N597   N     0.21316   0.71619   0.31395   0.00000  Uiso   1.00
H598   H     0.24399   0.70726   0.31159   0.00000  Uiso   1.00
H599   H     0.20364   0.70511   0.34507   0.00000  Uiso   1.00
N600   N     0.12018   0.95048   0.18604   0.00000  Uiso   1.00
H601   H     0.08934   0.95940   0.18841   0.00000  Uiso   1.00
H602   H     0.12969   0.96156   0.15493   0.00000  Uiso   1.00
C603   C     0.42088   0.83320   0.25419   0.00000  Uiso   1.00
C604   C     0.57912   0.83347   0.24581   0.00000  Uiso   1.00
C605   C     0.46754   0.91056   0.02140   0.00000  Uiso   1.00
C606   C     0.53249   0.75613   0.47860   0.00000  Uiso   1.00
C607   C     0.35387   0.79034   0.25577   0.00000  Uiso   1.00
C608   C     0.64613   0.87633   0.24424   0.00000  Uiso   1.00
C609   C     0.64573   0.79087   0.24234   0.00000  Uiso   1.00
C610   C     0.35427   0.87580   0.25767   0.00000  Uiso   1.00
C611   C     0.62412   0.83366   0.24192   0.00000  Uiso   1.00
C612   C     0.37588   0.83300   0.25808   0.00000  Uiso   1.00
C613   C     0.47716   0.69190   0.21888   0.00000  Uiso   1.00
C614   C     0.52284   0.97477   0.28112   0.00000  Uiso   1.00
C615   C     0.52287   0.69133   0.28107   0.00000  Uiso   1.00
C616   C     0.47713   0.97534   0.21893   0.00000  Uiso   1.00
C617   C     0.49999   0.83348   0.16435   0.00000  Uiso   1.00
C618   C     0.50001   0.83319   0.33565   0.00000  Uiso   1.00
C619   C     0.51557   0.79499   0.40807   0.00000  Uiso   1.00
C620   C     0.48443   0.87168   0.09193   0.00000  Uiso   1.00
C621   C     0.49980   0.83311   0.38401   0.00000  Uiso   1.00
C622   C     0.50020   0.83356   0.11599   0.00000  Uiso   1.00
C623   C     0.48416   0.87148   0.40606   0.00000  Uiso   1.00
C624   C     0.51586   0.79519   0.09394   0.00000  Uiso   1.00
C625   C     0.48378   0.87204   0.45243   0.00000  Uiso   1.00
C626   C     0.51624   0.79463   0.04757   0.00000  Uiso   1.00
C627   C     0.49994   0.83330   0.47675   0.00000  Uiso   1.00
C628   C     0.50007   0.83337   0.02325   0.00000  Uiso   1.00
C629   C     0.51603   0.79451   0.45443   0.00000  Uiso   1.00
C630   C     0.48398   0.87216   0.04557   0.00000  Uiso   1.00
C631   C     0.46745   0.91050   0.47465   0.00000  Uiso   1.00
C632   C     0.53259   0.75619   0.02535   0.00000  Uiso   1.00
Cu633  Cu    0.50000   0.88022   0.25000   0.00000  Uiso   1.00
Cu634  Cu    0.50000   0.78645   0.25000   0.00000  Uiso   1.00
H635   H     0.52819   0.76611   0.39042   0.00000  Uiso   1.00
H636   H     0.47181   0.90056   0.10958   0.00000  Uiso   1.00
H637   H     0.47189   0.90066   0.38675   0.00000  Uiso   1.00
H638   H     0.52813   0.76601   0.11325   0.00000  Uiso   1.00
N639   N     0.50000   0.95069   0.25000   0.00000  Uiso   1.00
N640   N     0.50000   0.71598   0.25000   0.00000  Uiso   1.00
O641   O     0.43988   0.87291   0.24999   0.00000  Uiso   1.00
O642   O     0.56012   0.79375   0.25000   0.00000  Uiso   1.00
O643   O     0.56012   0.87291   0.25000   0.00000  Uiso   1.00
O644   O     0.43988   0.79375   0.24999   0.00000  Uiso   1.00
O645   O     0.49999   0.87293   0.18513   0.00000  Uiso   1.00
O646   O     0.50001   0.79373   0.31487   0.00000  Uiso   1.00
O647   O     0.50001   0.87293   0.31487   0.00000  Uiso   1.00
O648   O     0.49999   0.79373   0.18513   0.00000  Uiso   1.00
N649   N     0.45056   0.94918   0.44951   0.00000  Uiso   1.00
H650   H     0.46638   0.97960   0.45847   0.00000  Uiso   1.00
H651   H     0.41974   0.95296   0.45711   0.00000  Uiso   1.00
N652   N     0.54952   0.71752   0.05049   0.00000  Uiso   1.00
H653   H     0.58034   0.71375   0.04287   0.00000  Uiso   1.00
H654   H     0.53371   0.68708   0.04153   0.00000  Uiso   1.00
N655   N     0.45078   0.94934   0.04457   0.00000  Uiso   1.00
H656   H     0.41989   0.95307   0.03492   0.00000  Uiso   1.00
H657   H     0.46654   0.97975   0.03589   0.00000  Uiso   1.00
N658   N     0.54929   0.71737   0.45543   0.00000  Uiso   1.00
H659   H     0.53363   0.68692   0.46418   0.00000  Uiso   1.00
H660   H     0.58021   0.71374   0.46502   0.00000  Uiso   1.00
C661   C     0.37250   0.74471   0.27258   0.00000  Uiso   1.00
H662   H     0.39511   0.75092   0.30024   0.00000  Uiso   1.00
H663   H     0.34880   0.72143   0.28663   0.00000  Uiso   1.00
H664   H     0.38710   0.72612   0.24534   0.00000  Uiso   1.00
C665   C     0.62750   0.92195   0.22743   0.00000  Uiso   1.00
H666   H     0.60489   0.91575   0.19976   0.00000  Uiso   1.00
H667   H     0.61290   0.94054   0.25467   0.00000  Uiso   1.00
H668   H     0.65120   0.94524   0.21338   0.00000  Uiso   1.00
C669   C     0.62668   0.74662   0.22332   0.00000  Uiso   1.00
H670   H     0.60359   0.75493   0.19655   0.00000  Uiso   1.00
H671   H     0.65012   0.72488   0.20748   0.00000  Uiso   1.00
H672   H     0.61252   0.72556   0.24972   0.00000  Uiso   1.00
C673   C     0.37332   0.92004   0.27668   0.00000  Uiso   1.00
H674   H     0.39641   0.91174   0.30345   0.00000  Uiso   1.00
H675   H     0.38748   0.94111   0.25028   0.00000  Uiso   1.00
H676   H     0.34988   0.94179   0.29253   0.00000  Uiso   1.00
N677   N     0.45392   0.71741   0.18567   0.00000  Uiso   1.00
H678   H     0.42340   0.70637   0.18562   0.00000  Uiso   1.00
H679   H     0.46563   0.70994   0.15469   0.00000  Uiso   1.00
N680   N     0.54608   0.94925   0.31433   0.00000  Uiso   1.00
H681   H     0.57660   0.96030   0.31438   0.00000  Uiso   1.00
H682   H     0.53437   0.95673   0.34531   0.00000  Uiso   1.00
N683   N     0.54649   0.71619   0.31395   0.00000  Uiso   1.00
H684   H     0.57733   0.70726   0.31159   0.00000  Uiso   1.00
H685   H     0.53697   0.70511   0.34507   0.00000  Uiso   1.00
N686   N     0.45351   0.95048   0.18604   0.00000  Uiso   1.00
H687   H     0.42267   0.95940   0.18841   0.00000  Uiso   1.00
H688   H     0.46302   0.96156   0.15493   0.00000  Uiso   1.00
C689   C     0.75422   0.83320   0.25419   0.00000  Uiso   1.00
C690   C     0.91245   0.83347   0.24581   0.00000  Uiso   1.00
C691   C     0.80087   0.91056   0.02140   0.00000  Uiso   1.00
C692   C     0.86583   0.75613   0.47860   0.00000  Uiso   1.00
C693   C     0.68721   0.79034   0.25577   0.00000  Uiso   1.00
C694   C     0.97946   0.87633   0.24424   0.00000  Uiso   1.00
C695   C     0.97906   0.79087   0.24234   0.00000  Uiso   1.00
C696   C     0.68761   0.87580   0.25767   0.00000  Uiso   1.00
C697   C     0.95745   0.83366   0.24192   0.00000  Uiso   1.00
C698   C     0.70922   0.83300   0.25808   0.00000  Uiso   1.00
C699   C     0.81050   0.69190   0.21888   0.00000  Uiso   1.00
C700   C     0.85617   0.97477   0.28112   0.00000  Uiso   1.00
C701   C     0.85620   0.69133   0.28107   0.00000  Uiso   1.00
C702   C     0.81046   0.97534   0.21893   0.00000  Uiso   1.00
C703   C     0.83332   0.83348   0.16435   0.00000  Uiso   1.00
C704   C     0.83335   0.83319   0.33565   0.00000  Uiso   1.00
C705   C     0.84890   0.79499   0.40807   0.00000  Uiso   1.00
C706   C     0.81776   0.87168   0.09193   0.00000  Uiso   1.00
C707   C     0.83314   0.83311   0.38401   0.00000  Uiso   1.00
C708   C     0.83353   0.83356   0.11599   0.00000  Uiso   1.00
C709   C     0.81749   0.87148   0.40606   0.00000  Uiso   1.00
C710   C     0.84919   0.79519   0.09394   0.00000  Uiso   1.00
C711   C     0.81711   0.87204   0.45243   0.00000  Uiso   1.00
C712   C     0.84957   0.79463   0.04757   0.00000  Uiso   1.00
C713   C     0.83328   0.83330   0.47675   0.00000  Uiso   1.00
C714   C     0.83340   0.83337   0.02325   0.00000  Uiso   1.00
C715   C     0.84937   0.79451   0.45443   0.00000  Uiso   1.00
C716   C     0.81731   0.87216   0.04557   0.00000  Uiso   1.00
C717   C     0.80078   0.91050   0.47465   0.00000  Uiso   1.00
C718   C     0.86593   0.75619   0.02535   0.00000  Uiso   1.00
Cu719  Cu    0.83333   0.88022   0.25000   0.00000  Uiso   1.00
Cu720  Cu    0.83333   0.78645   0.25000   0.00000  Uiso   1.00
H721   H     0.86152   0.76611   0.39042   0.00000  Uiso   1.00
H722   H     0.80514   0.90056   0.10958   0.00000  Uiso   1.00
H723   H     0.80522   0.90066   0.38675   0.00000  Uiso   1.00
H724   H     0.86147   0.76601   0.11325   0.00000  Uiso   1.00
N725   N     0.83333   0.95069   0.25000   0.00000  Uiso   1.00
N726   N     0.83333   0.71598   0.25000   0.00000  Uiso   1.00
O727   O     0.77321   0.87291   0.24999   0.00000  Uiso   1.00
O728   O     0.89345   0.79375   0.25000   0.00000  Uiso   1.00
O729   O     0.89345   0.87291   0.25000   0.00000  Uiso   1.00
O730   O     0.77321   0.79375   0.24999   0.00000  Uiso   1.00
O731   O     0.83332   0.87293   0.18513   0.00000  Uiso   1.00
O732   O     0.83334   0.79373   0.31487   0.00000  Uiso   1.00
O733   O     0.83334   0.87293   0.31487   0.00000  Uiso   1.00
O734   O     0.83332   0.79373   0.18513   0.00000  Uiso   1.00
N735   N     0.78389   0.94918   0.44951   0.00000  Uiso   1.00
H736   H     0.79972   0.97960   0.45847   0.00000  Uiso   1.00
H737   H     0.75307   0.95296   0.45711   0.00000  Uiso   1.00
N738   N     0.88285   0.71752   0.05049   0.00000  Uiso   1.00
H739   H     0.91368   0.71375   0.04287   0.00000  Uiso   1.00
H740   H     0.86704   0.68708   0.04153   0.00000  Uiso   1.00
N741   N     0.78411   0.94934   0.04457   0.00000  Uiso   1.00
H742   H     0.75323   0.95307   0.03492   0.00000  Uiso   1.00
H743   H     0.79987   0.97975   0.03589   0.00000  Uiso   1.00
N744   N     0.88263   0.71737   0.45543   0.00000  Uiso   1.00
H745   H     0.86696   0.68692   0.46418   0.00000  Uiso   1.00
H746   H     0.91354   0.71374   0.46502   0.00000  Uiso   1.00
C747   C     0.70584   0.74471   0.27258   0.00000  Uiso   1.00
H748   H     0.72844   0.75092   0.30024   0.00000  Uiso   1.00
H749   H     0.68213   0.72143   0.28663   0.00000  Uiso   1.00
H750   H     0.72043   0.72612   0.24534   0.00000  Uiso   1.00
C751   C     0.96083   0.92195   0.22743   0.00000  Uiso   1.00
H752   H     0.93823   0.91575   0.19976   0.00000  Uiso   1.00
H753   H     0.94623   0.94054   0.25467   0.00000  Uiso   1.00
H754   H     0.98453   0.94524   0.21338   0.00000  Uiso   1.00
C755   C     0.96002   0.74662   0.22332   0.00000  Uiso   1.00
H756   H     0.93692   0.75493   0.19655   0.00000  Uiso   1.00
H757   H     0.98346   0.72488   0.20748   0.00000  Uiso   1.00
H758   H     0.94585   0.72556   0.24972   0.00000  Uiso   1.00
C759   C     0.70665   0.92004   0.27668   0.00000  Uiso   1.00
H760   H     0.72975   0.91174   0.30345   0.00000  Uiso   1.00
H761   H     0.72081   0.94111   0.25028   0.00000  Uiso   1.00
H762   H     0.68321   0.94179   0.29253   0.00000  Uiso   1.00
N763   N     0.78725   0.71741   0.18567   0.00000  Uiso   1.00
H764   H     0.75673   0.70637   0.18562   0.00000  Uiso   1.00
H765   H     0.79896   0.70994   0.15469   0.00000  Uiso   1.00
N766   N     0.87941   0.94925   0.31433   0.00000  Uiso   1.00
H767   H     0.90993   0.96030   0.31438   0.00000  Uiso   1.00
H768   H     0.86771   0.95673   0.34531   0.00000  Uiso   1.00
N769   N     0.87982   0.71619   0.31395   0.00000  Uiso   1.00
H770   H     0.91066   0.70726   0.31159   0.00000  Uiso   1.00
H771   H     0.87031   0.70511   0.34507   0.00000  Uiso   1.00
N772   N     0.78684   0.95048   0.18604   0.00000  Uiso   1.00
H773   H     0.75601   0.95940   0.18841   0.00000  Uiso   1.00
H774   H     0.79636   0.96156   0.15493   0.00000  Uiso   1.00
C775   C     0.08755   0.16653   0.75419   0.00000  Uiso   1.00
C776   C     0.24578   0.16680   0.74581   0.00000  Uiso   1.00
C777   C     0.13421   0.24389   0.52140   0.00000  Uiso   1.00
C778   C     0.19916   0.08946   0.97860   0.00000  Uiso   1.00
C779   C     0.02054   0.12367   0.75577   0.00000  Uiso   1.00
C780   C     0.31279   0.20966   0.74424   0.00000  Uiso   1.00
C781   C     0.31239   0.12420   0.74234   0.00000  Uiso   1.00
C782   C     0.02094   0.20913   0.75767   0.00000  Uiso   1.00
C783   C     0.29078   0.16699   0.74192   0.00000  Uiso   1.00
C784   C     0.04255   0.16634   0.75808   0.00000  Uiso   1.00
C785   C     0.14383   0.02523   0.71888   0.00000  Uiso   1.00
C786   C     0.18950   0.30810   0.78112   0.00000  Uiso   1.00
C787   C     0.18954   0.02466   0.78107   0.00000  Uiso   1.00
C788   C     0.14380   0.30867   0.71893   0.00000  Uiso   1.00
C789   C     0.16665   0.16681   0.66435   0.00000  Uiso   1.00
C790   C     0.16668   0.16652   0.83565   0.00000  Uiso   1.00
C791   C     0.18224   0.12833   0.90807   0.00000  Uiso   1.00
C792   C     0.15110   0.20501   0.59193   0.00000  Uiso   1.00
C793   C     0.16647   0.16644   0.88401   0.00000  Uiso   1.00
C794   C     0.16687   0.16689   0.61599   0.00000  Uiso   1.00
C795   C     0.15082   0.20481   0.90606   0.00000  Uiso   1.00
C796   C     0.18252   0.12853   0.59394   0.00000  Uiso   1.00
C797   C     0.15045   0.20538   0.95243   0.00000  Uiso   1.00
C798   C     0.18291   0.12797   0.54757   0.00000  Uiso   1.00
C799   C     0.16661   0.16664   0.97675   0.00000  Uiso   1.00
C800   C     0.16673   0.16671   0.52325   0.00000  Uiso   1.00
C801   C     0.18270   0.12785   0.95443   0.00000  Uiso   1.00
C802   C     0.15064   0.20550   0.54557   0.00000  Uiso   1.00
C803   C     0.13411   0.24383   0.97465   0.00000  Uiso   1.00
C804   C     0.19926   0.08952   0.52535   0.00000  Uiso   1.00
Cu805  Cu    0.16667   0.21355   0.75000   0.00000  Uiso   1.00
Cu806  Cu    0.16667   0.11978   0.75000   0.00000  Uiso   1.00
H807   H     0.19485   0.09945   0.89042   0.00000  Uiso   1.00
H808   H     0.13847   0.23389   0.60958   0.00000  Uiso   1.00
H809   H     0.13855   0.23399   0.88675   0.00000  Uiso   1.00
H810   H     0.19480   0.09934   0.61325   0.00000  Uiso   1.00
N811   N     0.16667   0.28402   0.75000   0.00000  Uiso   1.00
N812   N     0.16667   0.04931   0.75000   0.00000  Uiso   1.00
O813   O     0.10655   0.20625   0.74999   0.00000  Uiso   1.00
O814   O     0.22679   0.12709   0.75000   0.00000  Uiso   1.00
O815   O     0.22679   0.20625   0.75000   0.00000  Uiso   1.00
O816   O     0.10655   0.12709   0.74999   0.00000  Uiso   1.00
O817   O     0.16666   0.20627   0.68513   0.00000  Uiso   1.00
O818   O     0.16668   0.12707   0.81487   0.00000  Uiso   1.00
O819   O     0.16668   0.20627   0.81487   0.00000  Uiso   1.00
O820   O     0.16666   0.12707   0.68513   0.00000  Uiso   1.00
N821   N     0.11722   0.28251   0.94951   0.00000  Uiso   1.00
H822   H     0.13305   0.31293   0.95847   0.00000  Uiso   1.00
H823   H     0.08640   0.28629   0.95711   0.00000  Uiso   1.00
N824   N     0.21619   0.05085   0.55049   0.00000  Uiso   1.00
H825   H     0.24701   0.04709   0.54287   0.00000  Uiso   1.00
H826   H     0.20038   0.02041   0.54153   0.00000  Uiso   1.00
N827   N     0.11744   0.28267   0.54457   0.00000  Uiso   1.00
H828   H     0.08656   0.28640   0.53492   0.00000  Uiso   1.00
H829   H     0.13321   0.31308   0.53589   0.00000  Uiso   1.00
N830   N     0.21596   0.05070   0.95543   0.00000  Uiso   1.00
H831   H     0.20030   0.02025   0.96418   0.00000  Uiso   1.00
H832   H     0.24687   0.04707   0.96502   0.00000  Uiso   1.00
C833   C     0.03917   0.07805   0.77258   0.00000  Uiso   1.00
H834   H     0.06178   0.08425   0.80024   0.00000  Uiso   1.00
H835   H     0.01547   0.05476   0.78663   0.00000  Uiso   1.00
H836   H     0.05376   0.05945   0.74534   0.00000  Uiso   1.00
C837   C     0.29417   0.25529   0.72743   0.00000  Uiso   1.00
H838   H     0.27156   0.24908   0.69976   0.00000  Uiso   1.00
H839   H     0.27957   0.27388   0.75467   0.00000  Uiso   1.00
H840   H     0.31787   0.27858   0.71338   0.00000  Uiso   1.00
C841   C     0.29335   0.07995   0.72332   0.00000  Uiso   1.00
H842   H     0.27026   0.08826   0.69655   0.00000  Uiso   1.00
H843   H     0.31679   0.05821   0.70748   0.00000  Uiso   1.00
H844   H     0.27918   0.05889   0.74972   0.00000  Uiso   1.00
C845   C     0.03998   0.25338   0.77668   0.00000  Uiso   1.00
H846   H     0.06308   0.24507   0.80345   0.00000  Uiso   1.00
H847   H     0.05415   0.27444   0.75028   0.00000  Uiso   1.00
H848   H     0.01654   0.27512   0.79253   0.00000  Uiso   1.00
N849   N     0.12059   0.05075   0.68567   0.00000  Uiso   1.00
H850   H     0.09007   0.03970   0.68562   0.00000  Uiso   1.00
H851   H     0.13229   0.04327   0.65469   0.00000  Uiso   1.00
N852   N     0.21275   0.28259   0.81433   0.00000  Uiso   1.00
H853   H     0.24326   0.29363   0.81438   0.00000  Uiso   1.00
H854   H     0.20104   0.29007   0.84531   0.00000  Uiso   1.00
N855   N     0.21316   0.04952   0.81395   0.00000  Uiso   1.00
H856   H     0.24399   0.04060   0.81159   0.00000  Uiso   1.00
H857   H     0.20364   0.03844   0.84507   0.00000  Uiso   1.00
N858   N     0.12018   0.28381   0.68604   0.00000  Uiso   1.00
H859   H     0.08934   0.29274   0.68841   0.00000  Uiso   1.00
H860   H     0.12969   0.29490   0.65493   0.00000  Uiso   1.00
C861   C     0.42088   0.16653   0.75419   0.00000  Uiso   1.00
C862   C     0.57912   0.16680   0.74581   0.00000  Uiso   1.00
C863   C     0.46754   0.24389   0.52140   0.00000  Uiso   1.00
C864   C     0.53249   0.08946   0.97860   0.00000  Uiso   1.00
C865   C     0.35387   0.12367   0.75577   0.00000  Uiso   1.00
C866   C     0.64613   0.20966   0.74424   0.00000  Uiso   1.00
C867   C     0.64573   0.12420   0.74234   0.00000  Uiso   1.00
C868   C     0.35427   0.20913   0.75767   0.00000  Uiso   1.00
C869   C     0.62412   0.16699   0.74192   0.00000  Uiso   1.00
C870   C     0.37588   0.16634   0.75808   0.00000  Uiso   1.00
C871   C     0.47716   0.02523   0.71888   0.00000  Uiso   1.00
C872   C     0.52284   0.30810   0.78112   0.00000  Uiso   1.00
C873   C     0.52287   0.02466   0.78107   0.00000  Uiso   1.00
C874   C     0.47713   0.30867   0.71893   0.00000  Uiso   1.00
C875   C     0.49999   0.16681   0.66435   0.00000  Uiso   1.00
C876   C     0.50001   0.16652   0.83565   0.00000  Uiso   1.00
C877   C     0.51557   0.12833   0.90807   0.00000  Uiso   1.00
C878   C     0.48443   0.20501   0.59193   0.00000  Uiso   1.00
C879   C     0.49980   0.16644   0.88401   0.00000  Uiso   1.00
C880   C     0.50020   0.16689   0.61599   0.00000  Uiso   1.00
C881   C     0.48416   0.20481   0.90606   0.00000  Uiso   1.00
C882   C     0.51586   0.12853   0.59394   0.00000  Uiso   1.00
C883   C     0.48378   0.20538   0.95243   0.00000  Uiso   1.00
C884   C     0.51624   0.12797   0.54757   0.00000  Uiso   1.00
C885   C     0.49994   0.16664   0.97675   0.00000  Uiso   1.00
C886   C     0.50007   0.16671   0.52325   0.00000  Uiso   1.00
C887   C     0.51603   0.12785   0.95443   0.00000  Uiso   1.00
C888   C     0.48398   0.20550   0.54557   0.00000  Uiso   1.00
C889   C     0.46745   0.24383   0.97465   0.00000  Uiso   1.00
C890   C     0.53259   0.08952   0.52535   0.00000  Uiso   1.00
Cu891  Cu    0.50000   0.21355   0.75000   0.00000  Uiso   1.00
Cu892  Cu    0.50000   0.11978   0.75000   0.00000  Uiso   1.00
H893   H     0.52819   0.09945   0.89042   0.00000  Uiso   1.00
H894   H     0.47181   0.23389   0.60958   0.00000  Uiso   1.00
H895   H     0.47189   0.23399   0.88675   0.00000  Uiso   1.00
H896   H     0.52813   0.09934   0.61325   0.00000  Uiso   1.00
N897   N     0.50000   0.28402   0.75000   0.00000  Uiso   1.00
N898   N     0.50000   0.04931   0.75000   0.00000  Uiso   1.00
O899   O     0.43988   0.20625   0.74999   0.00000  Uiso   1.00
O900   O     0.56012   0.12709   0.75000   0.00000  Uiso   1.00
O901   O     0.56012   0.20625   0.75000   0.00000  Uiso   1.00
O902   O     0.43988   0.12709   0.74999   0.00000  Uiso   1.00
O903   O     0.49999   0.20627   0.68513   0.00000  Uiso   1.00
O904   O     0.50001   0.12707   0.81487   0.00000  Uiso   1.00
O905   O     0.50001   0.20627   0.81487   0.00000  Uiso   1.00
O906   O     0.49999   0.12707   0.68513   0.00000  Uiso   1.00
N907   N     0.45056   0.28251   0.94951   0.00000  Uiso   1.00
H908   H     0.46638   0.31293   0.95847   0.00000  Uiso   1.00
H909   H     0.41974   0.28629   0.95711   0.00000  Uiso   1.00
N910   N     0.54952   0.05085   0.55049   0.00000  Uiso   1.00
H911   H     0.58034   0.04709   0.54287   0.00000  Uiso   1.00
H912   H     0.53371   0.02041   0.54153   0.00000  Uiso   1.00
N913   N     0.45078   0.28267   0.54457   0.00000  Uiso   1.00
H914   H     0.41989   0.28640   0.53492   0.00000  Uiso   1.00
H915   H     0.46654   0.31308   0.53589   0.00000  Uiso   1.00
N916   N     0.54929   0.05070   0.95543   0.00000  Uiso   1.00
H917   H     0.53363   0.02025   0.96418   0.00000  Uiso   1.00
H918   H     0.58021   0.04707   0.96502   0.00000  Uiso   1.00
C919   C     0.37250   0.07805   0.77258   0.00000  Uiso   1.00
H920   H     0.39511   0.08425   0.80024   0.00000  Uiso   1.00
H921   H     0.34880   0.05476   0.78663   0.00000  Uiso   1.00
H922   H     0.38710   0.05945   0.74534   0.00000  Uiso   1.00
C923   C     0.62750   0.25529   0.72743   0.00000  Uiso   1.00
H924   H     0.60489   0.24908   0.69976   0.00000  Uiso   1.00
H925   H     0.61290   0.27388   0.75467   0.00000  Uiso   1.00
H926   H     0.65120   0.27858   0.71338   0.00000  Uiso   1.00
C927   C     0.62668   0.07995   0.72332   0.00000  Uiso   1.00
H928   H     0.60359   0.08826   0.69655   0.00000  Uiso   1.00
H929   H     0.65012   0.05821   0.70748   0.00000  Uiso   1.00
H930   H     0.61252   0.05889   0.74972   0.00000  Uiso   1.00
C931   C     0.37332   0.25338   0.77668   0.00000  Uiso   1.00
H932   H     0.39641   0.24507   0.80345   0.00000  Uiso   1.00
H933   H     0.38748   0.27444   0.75028   0.00000  Uiso   1.00
H934   H     0.34988   0.27512   0.79253   0.00000  Uiso   1.00
N935   N     0.45392   0.05075   0.68567   0.00000  Uiso   1.00
H936   H     0.42340   0.03970   0.68562   0.00000  Uiso   1.00
H937   H     0.46563   0.04327   0.65469   0.00000  Uiso   1.00
N938   N     0.54608   0.28259   0.81433   0.00000  Uiso   1.00
H939   H     0.57660   0.29363   0.81438   0.00000  Uiso   1.00
H940   H     0.53437   0.29007   0.84531   0.00000  Uiso   1.00
N941   N     0.54649   0.04952   0.81395   0.00000  Uiso   1.00
H942   H     0.57733   0.04060   0.81159   0.00000  Uiso   1.00
H943   H     0.53697   0.03844   0.84507   0.00000  Uiso   1.00
N944   N     0.45351   0.28381   0.68604   0.00000  Uiso   1.00
H945   H     0.42267   0.29274   0.68841   0.00000  Uiso   1.00
H946   H     0.46302   0.29490   0.65493   0.00000  Uiso   1.00
C947   C     0.75422   0.16653   0.75419   0.00000  Uiso   1.00
C948   C     0.91245   0.16680   0.74581   0.00000  Uiso   1.00
C949   C     0.80087   0.24389   0.52140   0.00000  Uiso   1.00
C950   C     0.86583   0.08946   0.97860   0.00000  Uiso   1.00
C951   C     0.68721   0.12367   0.75577   0.00000  Uiso   1.00
C952   C     0.97946   0.20966   0.74424   0.00000  Uiso   1.00
C953   C     0.97906   0.12420   0.74234   0.00000  Uiso   1.00
C954   C     0.68761   0.20913   0.75767   0.00000  Uiso   1.00
C955   C     0.95745   0.16699   0.74192   0.00000  Uiso   1.00
C956   C     0.70922   0.16634   0.75808   0.00000  Uiso   1.00
C957   C     0.81050   0.02523   0.71888   0.00000  Uiso   1.00
C958   C     0.85617   0.30810   0.78112   0.00000  Uiso   1.00
C959   C     0.85620   0.02466   0.78107   0.00000  Uiso   1.00
C960   C     0.81046   0.30867   0.71893   0.00000  Uiso   1.00
C961   C     0.83332   0.16681   0.66435   0.00000  Uiso   1.00
C962   C     0.83335   0.16652   0.83565   0.00000  Uiso   1.00
C963   C     0.84890   0.12833   0.90807   0.00000  Uiso   1.00
C964   C     0.81776   0.20501   0.59193   0.00000  Uiso   1.00
C965   C     0.83314   0.16644   0.88401   0.00000  Uiso   1.00
C966   C     0.83353   0.16689   0.61599   0.00000  Uiso   1.00
C967   C     0.81749   0.20481   0.90606   0.00000  Uiso   1.00
C968   C     0.84919   0.12853   0.59394   0.00000  Uiso   1.00
C969   C     0.81711   0.20538   0.95243   0.00000  Uiso   1.00
C970   C     0.84957   0.12797   0.54757   0.00000  Uiso   1.00
C971   C     0.83328   0.16664   0.97675   0.00000  Uiso   1.00
C972   C     0.83340   0.16671   0.52325   0.00000  Uiso   1.00
C973   C     0.84937   0.12785   0.95443   0.00000  Uiso   1.00
C974   C     0.81731   0.20550   0.54557   0.00000  Uiso   1.00
C975   C     0.80078   0.24383   0.97465   0.00000  Uiso   1.00
C976   C     0.86593   0.08952   0.52535   0.00000  Uiso   1.00
Cu977  Cu    0.83333   0.21355   0.75000   0.00000  Uiso   1.00
Cu978  Cu    0.83333   0.11978   0.75000   0.00000  Uiso   1.00
H979   H     0.86152   0.09945   0.89042   0.00000  Uiso   1.00
H980   H     0.80514   0.23389   0.60958   0.00000  Uiso   1.00
H981   H     0.80522   0.23399   0.88675   0.00000  Uiso   1.00
H982   H     0.86147   0.09934   0.61325   0.00000  Uiso   1.00
N983   N     0.83333   0.28402   0.75000   0.00000  Uiso   1.00
N984   N     0.83333   0.04931   0.75000   0.00000  Uiso   1.00
O985   O     0.77321   0.20625   0.74999   0.00000  Uiso   1.00
O986   O     0.89345   0.12709   0.75000   0.00000  Uiso   1.00
O987   O     0.89345   0.20625   0.75000   0.00000  Uiso   1.00
O988   O     0.77321   0.12709   0.74999   0.00000  Uiso   1.00
O989   O     0.83332   0.20627   0.68513   0.00000  Uiso   1.00
O990   O     0.83334   0.12707   0.81487   0.00000  Uiso   1.00
O991   O     0.83334   0.20627   0.81487   0.00000  Uiso   1.00
O992   O     0.83332   0.12707   0.68513   0.00000  Uiso   1.00
N993   N     0.78389   0.28251   0.94951   0.00000  Uiso   1.00
H994   H     0.79972   0.31293   0.95847   0.00000  Uiso   1.00
H995   H     0.75307   0.28629   0.95711   0.00000  Uiso   1.00
N996   N     0.88285   0.05085   0.55049   0.00000  Uiso   1.00
H997   H     0.91368   0.04709   0.54287   0.00000  Uiso   1.00
H998   H     0.86704   0.02041   0.54153   0.00000  Uiso   1.00
N999   N     0.78411   0.28267   0.54457   0.00000  Uiso   1.00
H1000  H     0.75323   0.28640   0.53492   0.00000  Uiso   1.00
H1001  H     0.79987   0.31308   0.53589   0.00000  Uiso   1.00
N1002  N     0.88263   0.05070   0.95543   0.00000  Uiso   1.00
H1003  H     0.86696   0.02025   0.96418   0.00000  Uiso   1.00
H1004  H     0.91354   0.04707   0.96502   0.00000  Uiso   1.00
C1005  C     0.70584   0.07805   0.77258   0.00000  Uiso   1.00
H1006  H     0.72844   0.08425   0.80024   0.00000  Uiso   1.00
H1007  H     0.68213   0.05476   0.78663   0.00000  Uiso   1.00
H1008  H     0.72043   0.05945   0.74534   0.00000  Uiso   1.00
C1009  C     0.96083   0.25529   0.72743   0.00000  Uiso   1.00
H1010  H     0.93823   0.24908   0.69976   0.00000  Uiso   1.00
H1011  H     0.94623   0.27388   0.75467   0.00000  Uiso   1.00
H1012  H     0.98453   0.27858   0.71338   0.00000  Uiso   1.00
C1013  C     0.96002   0.07995   0.72332   0.00000  Uiso   1.00
H1014  H     0.93692   0.08826   0.69655   0.00000  Uiso   1.00
H1015  H     0.98346   0.05821   0.70748   0.00000  Uiso   1.00
H1016  H     0.94585   0.05889   0.74972   0.00000  Uiso   1.00
C1017  C     0.70665   0.25338   0.77668   0.00000  Uiso   1.00
H1018  H     0.72975   0.24507   0.80345   0.00000  Uiso   1.00
H1019  H     0.72081   0.27444   0.75028   0.00000  Uiso   1.00
H1020  H     0.68321   0.27512   0.79253   0.00000  Uiso   1.00
N1021  N     0.78725   0.05075   0.68567   0.00000  Uiso   1.00
H1022  H     0.75673   0.03970   0.68562   0.00000  Uiso   1.00
H1023  H     0.79896   0.04327   0.65469   0.00000  Uiso   1.00
N1024  N     0.87941   0.28259   0.81433   0.00000  Uiso   1.00
H1025  H     0.90993   0.29363   0.81438   0.00000  Uiso   1.00
H1026  H     0.86771   0.29007   0.84531   0.00000  Uiso   1.00
N1027  N     0.87982   0.04952   0.81395   0.00000  Uiso   1.00
H1028  H     0.91066   0.04060   0.81159   0.00000  Uiso   1.00
H1029  H     0.87031   0.03844   0.84507   0.00000  Uiso   1.00
N1030  N     0.78684   0.28381   0.68604   0.00000  Uiso   1.00
H1031  H     0.75601   0.29274   0.68841   0.00000  Uiso   1.00
H1032  H     0.79636   0.29490   0.65493   0.00000  Uiso   1.00
C1033  C     0.08755   0.49987   0.75419   0.00000  Uiso   1.00
C1034  C     0.24578   0.50013   0.74581   0.00000  Uiso   1.00
C1035  C     0.13421   0.57723   0.52140   0.00000  Uiso   1.00
C1036  C     0.19916   0.42279   0.97860   0.00000  Uiso   1.00
C1037  C     0.02054   0.45700   0.75577   0.00000  Uiso   1.00
C1038  C     0.31279   0.54300   0.74424   0.00000  Uiso   1.00
C1039  C     0.31239   0.45753   0.74234   0.00000  Uiso   1.00
C1040  C     0.02094   0.54247   0.75767   0.00000  Uiso   1.00
C1041  C     0.29078   0.50033   0.74192   0.00000  Uiso   1.00
C1042  C     0.04255   0.49967   0.75808   0.00000  Uiso   1.00
C1043  C     0.14383   0.35857   0.71888   0.00000  Uiso   1.00
C1044  C     0.18950   0.64143   0.78112   0.00000  Uiso   1.00
C1045  C     0.18954   0.35800   0.78107   0.00000  Uiso   1.00
C1046  C     0.14380   0.64200   0.71893   0.00000  Uiso   1.00
C1047  C     0.16665   0.50015   0.66435   0.00000  Uiso   1.00
C1048  C     0.16668   0.49985   0.83565   0.00000  Uiso   1.00
C1049  C     0.18224   0.46166   0.90807   0.00000  Uiso   1.00
C1050  C     0.15110   0.53835   0.59193   0.00000  Uiso   1.00
C1051  C     0.16647   0.49977   0.88401   0.00000  Uiso   1.00
C1052  C     0.16687   0.50023   0.61599   0.00000  Uiso   1.00
C1053  C     0.15082   0.53815   0.90606   0.00000  Uiso   1.00
C1054  C     0.18252   0.46186   0.59394   0.00000  Uiso   1.00
C1055  C     0.15045   0.53871   0.95243   0.00000  Uiso   1.00
C1056  C     0.18291   0.46130   0.54757   0.00000  Uiso   1.00
C1057  C     0.16661   0.49997   0.97675   0.00000  Uiso   1.00
C1058  C     0.16673   0.50004   0.52325   0.00000  Uiso   1.00
C1059  C     0.18270   0.46118   0.95443   0.00000  Uiso   1.00
C1060  C     0.15064   0.53883   0.54557   0.00000  Uiso   1.00
C1061  C     0.13411   0.57716   0.97465   0.00000  Uiso   1.00
C1062  C     0.19926   0.42285   0.52535   0.00000  Uiso   1.00
Cu1063 Cu    0.16667   0.54689   0.75000   0.00000  Uiso   1.00
Cu1064 Cu    0.16667   0.45311   0.75000   0.00000  Uiso   1.00
H1065  H     0.19485   0.43278   0.89042   0.00000  Uiso   1.00
H1066  H     0.13847   0.56723   0.60958   0.00000  Uiso   1.00
H1067  H     0.13855   0.56733   0.88675   0.00000  Uiso   1.00
H1068  H     0.19480   0.43268   0.61325   0.00000  Uiso   1.00
N1069  N     0.16667   0.61736   0.75000   0.00000  Uiso   1.00
N1070  N     0.16667   0.38264   0.75000   0.00000  Uiso   1.00
O1071  O     0.10655   0.53958   0.74999   0.00000  Uiso   1.00
O1072  O     0.22679   0.46042   0.75000   0.00000  Uiso   1.00
O1073  O     0.22679   0.53958   0.75000   0.00000  Uiso   1.00
O1074  O     0.10655   0.46042   0.74999   0.00000  Uiso   1.00
O1075  O     0.16666   0.53960   0.68513   0.00000  Uiso   1.00
O1076  O     0.16668   0.46040   0.81487   0.00000  Uiso   1.00
O1077  O     0.16668   0.53960   0.81487   0.00000  Uiso   1.00
O1078  O     0.16666   0.46040   0.68513   0.00000  Uiso   1.00
N1079  N     0.11722   0.61584   0.94951   0.00000  Uiso   1.00
H1080  H     0.13305   0.64627   0.95847   0.00000  Uiso   1.00
H1081  H     0.08640   0.61963   0.95711   0.00000  Uiso   1.00
N1082  N     0.21619   0.38419   0.55049   0.00000  Uiso   1.00
H1083  H     0.24701   0.38042   0.54287   0.00000  Uiso   1.00
H1084  H     0.20038   0.35374   0.54153   0.00000  Uiso   1.00
N1085  N     0.11744   0.61601   0.54457   0.00000  Uiso   1.00
H1086  H     0.08656   0.61974   0.53492   0.00000  Uiso   1.00
H1087  H     0.13321   0.64641   0.53589   0.00000  Uiso   1.00
N1088  N     0.21596   0.38403   0.95543   0.00000  Uiso   1.00
H1089  H     0.20030   0.35359   0.96418   0.00000  Uiso   1.00
H1090  H     0.24687   0.38040   0.96502   0.00000  Uiso   1.00
C1091  C     0.03917   0.41138   0.77258   0.00000  Uiso   1.00
H1092  H     0.06178   0.41758   0.80024   0.00000  Uiso   1.00
H1093  H     0.01547   0.38809   0.78663   0.00000  Uiso   1.00
H1094  H     0.05376   0.39279   0.74534   0.00000  Uiso   1.00
C1095  C     0.29417   0.58862   0.72743   0.00000  Uiso   1.00
H1096  H     0.27156   0.58242   0.69976   0.00000  Uiso   1.00
H1097  H     0.27957   0.60721   0.75467   0.00000  Uiso   1.00
H1098  H     0.31787   0.61191   0.71338   0.00000  Uiso   1.00
C1099  C     0.29335   0.41329   0.72332   0.00000  Uiso   1.00
H1100  H     0.27026   0.42159   0.69655   0.00000  Uiso   1.00
H1101  H     0.31679   0.39154   0.70748   0.00000  Uiso   1.00
H1102  H     0.27918   0.39223   0.74972   0.00000  Uiso   1.00
C1103  C     0.03998   0.58671   0.77668   0.00000  Uiso   1.00
H1104  H     0.06308   0.57840   0.80345   0.00000  Uiso   1.00
H1105  H     0.05415   0.60778   0.75028   0.00000  Uiso   1.00
H1106  H     0.01654   0.60845   0.79253   0.00000  Uiso   1.00
N1107  N     0.12059   0.38408   0.68567   0.00000  Uiso   1.00
H1108  H     0.09007   0.37304   0.68562   0.00000  Uiso   1.00
H1109  H     0.13229   0.37660   0.65469   0.00000  Uiso   1.00
N1110  N     0.21275   0.61592   0.81433   0.00000  Uiso   1.00
H1111  H     0.24326   0.62696   0.81438   0.00000  Uiso   1.00
H1112  H     0.20104   0.62340   0.84531   0.00000  Uiso   1.00
N1113  N     0.21316   0.38285   0.81395   0.00000  Uiso   1.00
H1114  H     0.24399   0.37393   0.81159   0.00000  Uiso   1.00
H1115  H     0.20364   0.37177   0.84507   0.00000  Uiso   1.00
N1116  N     0.12018   0.61715   0.68604   0.00000  Uiso   1.00
H1117  H     0.08934   0.62607   0.68841   0.00000  Uiso   1.00
H1118  H     0.12969   0.62823   0.65493   0.00000  Uiso   1.00
C1119  C     0.42088   0.49987   0.75419   0.00000  Uiso   1.00
C1120  C     0.57912   0.50013   0.74581   0.00000  Uiso   1.00
C1121  C     0.46754   0.57723   0.52140   0.00000  Uiso   1.00
C1122  C     0.53249   0.42279   0.97860   0.00000  Uiso   1.00
C1123  C     0.35387   0.45700   0.75577   0.00000  Uiso   1.00
C1124  C     0.64613   0.54300   0.74424   0.00000  Uiso   1.00
C1125  C     0.64573   0.45753   0.74234   0.00000  Uiso   1.00
C1126  C     0.35427   0.54247   0.75767   0.00000  Uiso   1.00
C1127  C     0.62412   0.50033   0.74192   0.00000  Uiso   1.00
C1128  C     0.37588   0.49967   0.75808   0.00000  Uiso   1.00
C1129  C     0.47716   0.35857   0.71888   0.00000  Uiso   1.00
C1130  C     0.52284   0.64143   0.78112   0.00000  Uiso   1.00
C1131  C     0.52287   0.35800   0.78107   0.00000  Uiso   1.00
C1132  C     0.47713   0.64200   0.71893   0.00000  Uiso   1.00
C1133  C     0.49999   0.50015   0.66435   0.00000  Uiso   1.00
C1134  C     0.50001   0.49985   0.83565   0.00000  Uiso   1.00
C1135  C     0.51557   0.46166   0.90807   0.00000  Uiso   1.00
C1136  C     0.48443   0.53835   0.59193   0.00000  Uiso   1.00
C1137  C     0.49980   0.49977   0.88401   0.00000  Uiso   1.00
C1138  C     0.50020   0.50023   0.61599   0.00000  Uiso   1.00
C1139  C     0.48416   0.53815   0.90606   0.00000  Uiso   1.00
C1140  C     0.51586   0.46186   0.59394   0.00000  Uiso   1.00
C1141  C     0.48378   0.53871   0.95243   0.00000  Uiso   1.00
C1142  C     0.51624   0.46130   0.54757   0.00000  Uiso   1.00
C1143  C     0.49994   0.49997   0.97675   0.00000  Uiso   1.00
C1144  C     0.50007   0.50004   0.52325   0.00000  Uiso   1.00
C1145  C     0.51603   0.46118   0.95443   0.00000  Uiso   1.00
C1146  C     0.48398   0.53883   0.54557   0.00000  Uiso   1.00
C1147  C     0.46745   0.57716   0.97465   0.00000  Uiso   1.00
C1148  C     0.53259   0.42285   0.52535   0.00000  Uiso   1.00
Cu1149 Cu    0.50000   0.54689   0.75000   0.00000  Uiso   1.00
Cu1150 Cu    0.50000   0.45311   0.75000   0.00000  Uiso   1.00
H1151  H     0.52819   0.43278   0.89042   0.00000  Uiso   1.00
H1152  H     0.47181   0.56723   0.60958   0.00000  Uiso   1.00
H1153  H     0.47189   0.56733   0.88675   0.00000  Uiso   1.00
H1154  H     0.52813   0.43268   0.61325   0.00000  Uiso   1.00
N1155  N     0.50000   0.61736   0.75000   0.00000  Uiso   1.00
N1156  N     0.50000   0.38264   0.75000   0.00000  Uiso   1.00
O1157  O     0.43988   0.53958   0.74999   0.00000  Uiso   1.00
O1158  O     0.56012   0.46042   0.75000   0.00000  Uiso   1.00
O1159  O     0.56012   0.53958   0.75000   0.00000  Uiso   1.00
O1160  O     0.43988   0.46042   0.74999   0.00000  Uiso   1.00
O1161  O     0.49999   0.53960   0.68513   0.00000  Uiso   1.00
O1162  O     0.50001   0.46040   0.81487   0.00000  Uiso   1.00
O1163  O     0.50001   0.53960   0.81487   0.00000  Uiso   1.00
O1164  O     0.49999   0.46040   0.68513   0.00000  Uiso   1.00
N1165  N     0.45056   0.61584   0.94951   0.00000  Uiso   1.00
H1166  H     0.46638   0.64627   0.95847   0.00000  Uiso   1.00
H1167  H     0.41974   0.61963   0.95711   0.00000  Uiso   1.00
N1168  N     0.54952   0.38419   0.55049   0.00000  Uiso   1.00
H1169  H     0.58034   0.38042   0.54287   0.00000  Uiso   1.00
H1170  H     0.53371   0.35374   0.54153   0.00000  Uiso   1.00
N1171  N     0.45078   0.61601   0.54457   0.00000  Uiso   1.00
H1172  H     0.41989   0.61974   0.53492   0.00000  Uiso   1.00
H1173  H     0.46654   0.64641   0.53589   0.00000  Uiso   1.00
N1174  N     0.54929   0.38403   0.95543   0.00000  Uiso   1.00
H1175  H     0.53363   0.35359   0.96418   0.00000  Uiso   1.00
H1176  H     0.58021   0.38040   0.96502   0.00000  Uiso   1.00
C1177  C     0.37250   0.41138   0.77258   0.00000  Uiso   1.00
H1178  H     0.39511   0.41758   0.80024   0.00000  Uiso   1.00
H1179  H     0.34880   0.38809   0.78663   0.00000  Uiso   1.00
H1180  H     0.38710   0.39279   0.74534   0.00000  Uiso   1.00
C1181  C     0.62750   0.58862   0.72743   0.00000  Uiso   1.00
H1182  H     0.60489   0.58242   0.69976   0.00000  Uiso   1.00
H1183  H     0.61290   0.60721   0.75467   0.00000  Uiso   1.00
H1184  H     0.65120   0.61191   0.71338   0.00000  Uiso   1.00
C1185  C     0.62668   0.41329   0.72332   0.00000  Uiso   1.00
H1186  H     0.60359   0.42159   0.69655   0.00000  Uiso   1.00
H1187  H     0.65012   0.39154   0.70748   0.00000  Uiso   1.00
H1188  H     0.61252   0.39223   0.74972   0.00000  Uiso   1.00
C1189  C     0.37332   0.58671   0.77668   0.00000  Uiso   1.00
H1190  H     0.39641   0.57840   0.80345   0.00000  Uiso   1.00
H1191  H     0.38748   0.60778   0.75028   0.00000  Uiso   1.00
H1192  H     0.34988   0.60845   0.79253   0.00000  Uiso   1.00
N1193  N     0.45392   0.38408   0.68567   0.00000  Uiso   1.00
H1194  H     0.42340   0.37304   0.68562   0.00000  Uiso   1.00
H1195  H     0.46563   0.37660   0.65469   0.00000  Uiso   1.00
N1196  N     0.54608   0.61592   0.81433   0.00000  Uiso   1.00
H1197  H     0.57660   0.62696   0.81438   0.00000  Uiso   1.00
H1198  H     0.53437   0.62340   0.84531   0.00000  Uiso   1.00
N1199  N     0.54649   0.38285   0.81395   0.00000  Uiso   1.00
H1200  H     0.57733   0.37393   0.81159   0.00000  Uiso   1.00
H1201  H     0.53697   0.37177   0.84507   0.00000  Uiso   1.00
N1202  N     0.45351   0.61715   0.68604   0.00000  Uiso   1.00
H1203  H     0.42267   0.62607   0.68841   0.00000  Uiso   1.00
H1204  H     0.46302   0.62823   0.65493   0.00000  Uiso   1.00
C1205  C     0.75422   0.49987   0.75419   0.00000  Uiso   1.00
C1206  C     0.91245   0.50013   0.74581   0.00000  Uiso   1.00
C1207  C     0.80087   0.57723   0.52140   0.00000  Uiso   1.00
C1208  C     0.86583   0.42279   0.97860   0.00000  Uiso   1.00
C1209  C     0.68721   0.45700   0.75577   0.00000  Uiso   1.00
C1210  C     0.97946   0.54300   0.74424   0.00000  Uiso   1.00
C1211  C     0.97906   0.45753   0.74234   0.00000  Uiso   1.00
C1212  C     0.68761   0.54247   0.75767   0.00000  Uiso   1.00
C1213  C     0.95745   0.50033   0.74192   0.00000  Uiso   1.00
C1214  C     0.70922   0.49967   0.75808   0.00000  Uiso   1.00
C1215  C     0.81050   0.35857   0.71888   0.00000  Uiso   1.00
C1216  C     0.85617   0.64143   0.78112   0.00000  Uiso   1.00
C1217  C     0.85620   0.35800   0.78107   0.00000  Uiso   1.00
C1218  C     0.81046   0.64200   0.71893   0.00000  Uiso   1.00
C1219  C     0.83332   0.50015   0.66435   0.00000  Uiso   1.00
C1220  C     0.83335   0.49985   0.83565   0.00000  Uiso   1.00
C1221  C     0.84890   0.46166   0.90807   0.00000  Uiso   1.00
C1222  C     0.81776   0.53835   0.59193   0.00000  Uiso   1.00
C1223  C     0.83314   0.49977   0.88401   0.00000  Uiso   1.00
C1224  C     0.83353   0.50023   0.61599   0.00000  Uiso   1.00
C1225  C     0.81749   0.53815   0.90606   0.00000  Uiso   1.00
C1226  C     0.84919   0.46186   0.59394   0.00000  Uiso   1.00
C1227  C     0.81711   0.53871   0.95243   0.00000  Uiso   1.00
C1228  C     0.84957   0.46130   0.54757   0.00000  Uiso   1.00
C1229  C     0.83328   0.49997   0.97675   0.00000  Uiso   1.00
C1230  C     0.83340   0.50004   0.52325   0.00000  Uiso   1.00
C1231  C     0.84937   0.46118   0.95443   0.00000  Uiso   1.00
C1232  C     0.81731   0.53883   0.54557   0.00000  Uiso   1.00
C1233  C     0.80078   0.57716   0.97465   0.00000  Uiso   1.00
C1234  C     0.86593   0.42285   0.52535   0.00000  Uiso   1.00
Cu1235 Cu    0.83333   0.54689   0.75000   0.00000  Uiso   1.00
Cu1236 Cu    0.83333   0.45311   0.75000   0.00000  Uiso   1.00
H1237  H     0.86152   0.43278   0.89042   0.00000  Uiso   1.00
H1238  H     0.80514   0.56723   0.60958   0.00000  Uiso   1.00
H1239  H     0.80522   0.56733   0.88675   0.00000  Uiso   1.00
H1240  H     0.86147   0.43268   0.61325   0.00000  Uiso   1.00
N1241  N     0.83333   0.61736   0.75000   0.00000  Uiso   1.00
N1242  N     0.83333   0.38264   0.75000   0.00000  Uiso   1.00
O1243  O     0.77321   0.53958   0.74999   0.00000  Uiso   1.00
O1244  O     0.89345   0.46042   0.75000   0.00000  Uiso   1.00
O1245  O     0.89345   0.53958   0.75000   0.00000  Uiso   1.00
O1246  O     0.77321   0.46042   0.74999   0.00000  Uiso   1.00
O1247  O     0.83332   0.53960   0.68513   0.00000  Uiso   1.00
O1248  O     0.83334   0.46040   0.81487   0.00000  Uiso   1.00
O1249  O     0.83334   0.53960   0.81487   0.00000  Uiso   1.00
O1250  O     0.83332   0.46040   0.68513   0.00000  Uiso   1.00
N1251  N     0.78389   0.61584   0.94951   0.00000  Uiso   1.00
H1252  H     0.79972   0.64627   0.95847   0.00000  Uiso   1.00
H1253  H     0.75307   0.61963   0.95711   0.00000  Uiso   1.00
N1254  N     0.88285   0.38419   0.55049   0.00000  Uiso   1.00
H1255  H     0.91368   0.38042   0.54287   0.00000  Uiso   1.00
H1256  H     0.86704   0.35374   0.54153   0.00000  Uiso   1.00
N1257  N     0.78411   0.61601   0.54457   0.00000  Uiso   1.00
H1258  H     0.75323   0.61974   0.53492   0.00000  Uiso   1.00
H1259  H     0.79987   0.64641   0.53589   0.00000  Uiso   1.00
N1260  N     0.88263   0.38403   0.95543   0.00000  Uiso   1.00
H1261  H     0.86696   0.35359   0.96418   0.00000  Uiso   1.00
H1262  H     0.91354   0.38040   0.96502   0.00000  Uiso   1.00
C1263  C     0.70584   0.41138   0.77258   0.00000  Uiso   1.00
H1264  H     0.72844   0.41758   0.80024   0.00000  Uiso   1.00
H1265  H     0.68213   0.38809   0.78663   0.00000  Uiso   1.00
H1266  H     0.72043   0.39279   0.74534   0.00000  Uiso   1.00
C1267  C     0.96083   0.58862   0.72743   0.00000  Uiso   1.00
H1268  H     0.93823   0.58242   0.69976   0.00000  Uiso   1.00
H1269  H     0.94623   0.60721   0.75467   0.00000  Uiso   1.00
H1270  H     0.98453   0.61191   0.71338   0.00000  Uiso   1.00
C1271  C     0.96002   0.41329   0.72332   0.00000  Uiso   1.00
H1272  H     0.93692   0.42159   0.69655   0.00000  Uiso   1.00
H1273  H     0.98346   0.39154   0.70748   0.00000  Uiso   1.00
H1274  H     0.94585   0.39223   0.74972   0.00000  Uiso   1.00
C1275  C     0.70665   0.58671   0.77668   0.00000  Uiso   1.00
H1276  H     0.72975   0.57840   0.80345   0.00000  Uiso   1.00
H1277  H     0.72081   0.60778   0.75028   0.00000  Uiso   1.00
H1278  H     0.68321   0.60845   0.79253   0.00000  Uiso   1.00
N1279  N     0.78725   0.38408   0.68567   0.00000  Uiso   1.00
H1280  H     0.75673   0.37304   0.68562   0.00000  Uiso   1.00
H1281  H     0.79896   0.37660   0.65469   0.00000  Uiso   1.00
N1282  N     0.87941   0.61592   0.81433   0.00000  Uiso   1.00
H1283  H     0.90993   0.62696   0.81438   0.00000  Uiso   1.00
H1284  H     0.86771   0.62340   0.84531   0.00000  Uiso   1.00
N1285  N     0.87982   0.38285   0.81395   0.00000  Uiso   1.00
H1286  H     0.91066   0.37393   0.81159   0.00000  Uiso   1.00
H1287  H     0.87031   0.37177   0.84507   0.00000  Uiso   1.00
N1288  N     0.78684   0.61715   0.68604   0.00000  Uiso   1.00
H1289  H     0.75601   0.62607   0.68841   0.00000  Uiso   1.00
H1290  H     0.79636   0.62823   0.65493   0.00000  Uiso   1.00
C1291  C     0.08755   0.83320   0.75419   0.00000  Uiso   1.00
C1292  C     0.24578   0.83347   0.74581   0.00000  Uiso   1.00
C1293  C     0.13421   0.91056   0.52140   0.00000  Uiso   1.00
C1294  C     0.19916   0.75613   0.97860   0.00000  Uiso   1.00
C1295  C     0.02054   0.79034   0.75577   0.00000  Uiso   1.00
C1296  C     0.31279   0.87633   0.74424   0.00000  Uiso   1.00
C1297  C     0.31239   0.79087   0.74234   0.00000  Uiso   1.00
C1298  C     0.02094   0.87580   0.75767   0.00000  Uiso   1.00
C1299  C     0.29078   0.83366   0.74192   0.00000  Uiso   1.00
C1300  C     0.04255   0.83300   0.75808   0.00000  Uiso   1.00
C1301  C     0.14383   0.69190   0.71888   0.00000  Uiso   1.00
C1302  C     0.18950   0.97477   0.78112   0.00000  Uiso   1.00
C1303  C     0.18954   0.69133   0.78107   0.00000  Uiso   1.00
C1304  C     0.14380   0.97534   0.71893   0.00000  Uiso   1.00
C1305  C     0.16665   0.83348   0.66435   0.00000  Uiso   1.00
C1306  C     0.16668   0.83319   0.83565   0.00000  Uiso   1.00
C1307  C     0.18224   0.79499   0.90807   0.00000  Uiso   1.00
C1308  C     0.15110   0.87168   0.59193   0.00000  Uiso   1.00
C1309  C     0.16647   0.83311   0.88401   0.00000  Uiso   1.00
C1310  C     0.16687   0.83356   0.61599   0.00000  Uiso   1.00
C1311  C     0.15082   0.87148   0.90606   0.00000  Uiso   1.00
C1312  C     0.18252   0.79519   0.59394   0.00000  Uiso   1.00
C1313  C     0.15045   0.87204   0.95243   0.00000  Uiso   1.00
C1314  C     0.18291   0.79463   0.54757   0.00000  Uiso   1.00
C1315  C     0.16661   0.83330   0.97675   0.00000  Uiso   1.00
C1316  C     0.16673   0.83337   0.52325   0.00000  Uiso   1.00
C1317  C     0.18270   0.79451   0.95443   0.00000  Uiso   1.00
C1318  C     0.15064   0.87216   0.54557   0.00000  Uiso   1.00
C1319  C     0.13411   0.91050   0.97465   0.00000  Uiso   1.00
C1320  C     0.19926   0.75619   0.52535   0.00000  Uiso   1.00
Cu1321 Cu    0.16667   0.88022   0.75000   0.00000  Uiso   1.00
Cu1322 Cu    0.16667   0.78645   0.75000   0.00000  Uiso   1.00
H1323  H     0.19485   0.76611   0.89042   0.00000  Uiso   1.00
H1324  H     0.13847   0.90056   0.60958   0.00000  Uiso   1.00
H1325  H     0.13855   0.90066   0.88675   0.00000  Uiso   1.00
H1326  H     0.19480   0.76601   0.61325   0.00000  Uiso   1.00
N1327  N     0.16667   0.95069   0.75000   0.00000  Uiso   1.00
N1328  N     0.16667   0.71598   0.75000   0.00000  Uiso   1.00
O1329  O     0.10655   0.87291   0.74999   0.00000  Uiso   1.00
O1330  O     0.22679   0.79375   0.75000   0.00000  Uiso   1.00
O1331  O     0.22679   0.87291   0.75000   0.00000  Uiso   1.00
O1332  O     0.10655   0.79375   0.74999   0.00000  Uiso   1.00
O1333  O     0.16666   0.87293   0.68513   0.00000  Uiso   1.00
O1334  O     0.16668   0.79373   0.81487   0.00000  Uiso   1.00
O1335  O     0.16668   0.87293   0.81487   0.00000  Uiso   1.00
O1336  O     0.16666   0.79373   0.68513   0.00000  Uiso   1.00
N1337  N     0.11722   0.94918   0.94951   0.00000  Uiso   1.00
H1338  H     0.13305   0.97960   0.95847   0.00000  Uiso   1.00
H1339  H     0.08640   0.95296   0.95711   0.00000  Uiso   1.00
N1340  N     0.21619   0.71752   0.55049   0.00000  Uiso   1.00
H1341  H     0.24701   0.71375   0.54287   0.00000  Uiso   1.00
H1342  H     0.20038   0.68708   0.54153   0.00000  Uiso   1.00
N1343  N     0.11744   0.94934   0.54457   0.00000  Uiso   1.00
H1344  H     0.08656   0.95307   0.53492   0.00000  Uiso   1.00
H1345  H     0.13321   0.97975   0.53589   0.00000  Uiso   1.00
N1346  N     0.21596   0.71737   0.95543   0.00000  Uiso   1.00
H1347  H     0.20030   0.68692   0.96418   0.00000  Uiso   1.00
H1348  H     0.24687   0.71374   0.96502   0.00000  Uiso   1.00
C1349  C     0.03917   0.74471   0.77258   0.00000  Uiso   1.00
H1350  H     0.06178   0.75092   0.80024   0.00000  Uiso   1.00
H1351  H     0.01547   0.72143   0.78663   0.00000  Uiso   1.00
H1352  H     0.05376   0.72612   0.74534   0.00000  Uiso   1.00
C1353  C     0.29417   0.92195   0.72743   0.00000  Uiso   1.00
H1354  H     0.27156   0.91575   0.69976   0.00000  Uiso   1.00
H1355  H     0.27957   0.94054   0.75467   0.00000  Uiso   1.00
H1356  H     0.31787   0.94524   0.71338   0.00000  Uiso   1.00
C1357  C     0.29335   0.74662   0.72332   0.00000  Uiso   1.00
H1358  H     0.27026   0.75493   0.69655   0.00000  Uiso   1.00
H1359  H     0.31679   0.72488   0.70748   0.00000  Uiso   1.00
H1360  H     0.27918   0.72556   0.74972   0.00000  Uiso   1.00
C1361  C     0.03998   0.92004   0.77668   0.00000  Uiso   1.00
H1362  H     0.06308   0.91174   0.80345   0.00000  Uiso   1.00
H1363  H     0.05415   0.94111   0.75028   0.00000  Uiso   1.00
H1364  H     0.01654   0.94179   0.79253   0.00000  Uiso   1.00
N1365  N     0.12059   0.71741   0.68567   0.00000  Uiso   1.00
H1366  H     0.09007   0.70637   0.68562   0.00000  Uiso   1.00
H1367  H     0.13229   0.70994   0.65469   0.00000  Uiso   1.00
N1368  N     0.21275   0.94925   0.81433   0.00000  Uiso   1.00
H1369  H     0.24326   0.96030   0.81438   0.00000  Uiso   1.00
H1370  H     0.20104   0.95673   0.84531   0.00000  Uiso   1.00
N1371  N     0.21316   0.71619   0.81395   0.00000  Uiso   1.00
H1372  H     0.24399   0.70726   0.81159   0.00000  Uiso   1.00
H1373  H     0.20364   0.70511   0.84507   0.00000  Uiso   1.00
N1374  N     0.12018   0.95048   0.68604   0.00000  Uiso   1.00
H1375  H     0.08934   0.95940   0.68841   0.00000  Uiso   1.00
H1376  H     0.12969   0.96156   0.65493   0.00000  Uiso   1.00
C1377  C     0.42088   0.83320   0.75419   0.00000  Uiso   1.00
C1378  C     0.57912   0.83347   0.74581   0.00000  Uiso   1.00
C1379  C     0.46754   0.91056   0.52140   0.00000  Uiso   1.00
C1380  C     0.53249   0.75613   0.97860   0.00000  Uiso   1.00
C1381  C     0.35387   0.79034   0.75577   0.00000  Uiso   1.00
C1382  C     0.64613   0.87633   0.74424   0.00000  Uiso   1.00
C1383  C     0.64573   0.79087   0.74234   0.00000  Uiso   1.00
C1384  C     0.35427   0.87580   0.75767   0.00000  Uiso   1.00
C1385  C     0.62412   0.83366   0.74192   0.00000  Uiso   1.00
C1386  C     0.37588   0.83300   0.75808   0.00000  Uiso   1.00
C1387  C     0.47716   0.69190   0.71888   0.00000  Uiso   1.00
C1388  C     0.52284   0.97477   0.78112   0.00000  Uiso   1.00
C1389  C     0.52287   0.69133   0.78107   0.00000  Uiso   1.00
C1390  C     0.47713   0.97534   0.71893   0.00000  Uiso   1.00
C1391  C     0.49999   0.83348   0.66435   0.00000  Uiso   1.00
C1392  C     0.50001   0.83319   0.83565   0.00000  Uiso   1.00
C1393  C     0.51557   0.79499   0.90807   0.00000  Uiso   1.00
C1394  C     0.48443   0.87168   0.59193   0.00000  Uiso   1.00
C1395  C     0.49980   0.83311   0.88401   0.00000  Uiso   1.00
C1396  C     0.50020   0.83356   0.61599   0.00000  Uiso   1.00
C1397  C     0.48416   0.87148   0.90606   0.00000  Uiso   1.00
C1398  C     0.51586   0.79519   0.59394   0.00000  Uiso   1.00
C1399  C     0.48378   0.87204   0.95243   0.00000  Uiso   1.00
C1400  C     0.51624   0.79463   0.54757   0.00000  Uiso   1.00
C1401  C     0.49994   0.83330   0.97675   0.00000  Uiso   1.00
C1402  C     0.50007   0.83337   0.52325   0.00000  Uiso   1.00
C1403  C     0.51603   0.79451   0.95443   0.00000  Uiso   1.00
C1404  C     0.48398   0.87216   0.54557   0.00000  Uiso   1.00
C1405  C     0.46745   0.91050   0.97465   0.00000  Uiso   1.00
C1406  C     0.53259   0.75619   0.52535   0.00000  Uiso   1.00
Cu1407 Cu    0.50000   0.88022   0.75000   0.00000  Uiso   1.00
Cu1408 Cu    0.50000   0.78645   0.75000   0.00000  Uiso   1.00
H1409  H     0.52819   0.76611   0.89042   0.00000  Uiso   1.00
H1410  H     0.47181   0.90056   0.60958   0.00000  Uiso   1.00
H1411  H     0.47189   0.90066   0.88675   0.00000  Uiso   1.00
H1412  H     0.52813   0.76601   0.61325   0.00000  Uiso   1.00
N1413  N     0.50000   0.95069   0.75000   0.00000  Uiso   1.00
N1414  N     0.50000   0.71598   0.75000   0.00000  Uiso   1.00
O1415  O     0.43988   0.87291   0.74999   0.00000  Uiso   1.00
O1416  O     0.56012   0.79375   0.75000   0.00000  Uiso   1.00
O1417  O     0.56012   0.87291   0.75000   0.00000  Uiso   1.00
O1418  O     0.43988   0.79375   0.74999   0.00000  Uiso   1.00
O1419  O     0.49999   0.87293   0.68513   0.00000  Uiso   1.00
O1420  O     0.50001   0.79373   0.81487   0.00000  Uiso   1.00
O1421  O     0.50001   0.87293   0.81487   0.00000  Uiso   1.00
O1422  O     0.49999   0.79373   0.68513   0.00000  Uiso   1.00
N1423  N     0.45056   0.94918   0.94951   0.00000  Uiso   1.00
H1424  H     0.46638   0.97960   0.95847   0.00000  Uiso   1.00
H1425  H     0.41974   0.95296   0.95711   0.00000  Uiso   1.00
N1426  N     0.54952   0.71752   0.55049   0.00000  Uiso   1.00
H1427  H     0.58034   0.71375   0.54287   0.00000  Uiso   1.00
H1428  H     0.53371   0.68708   0.54153   0.00000  Uiso   1.00
N1429  N     0.45078   0.94934   0.54457   0.00000  Uiso   1.00
H1430  H     0.41989   0.95307   0.53492   0.00000  Uiso   1.00
H1431  H     0.46654   0.97975   0.53589   0.00000  Uiso   1.00
N1432  N     0.54929   0.71737   0.95543   0.00000  Uiso   1.00
H1433  H     0.53363   0.68692   0.96418   0.00000  Uiso   1.00
H1434  H     0.58021   0.71374   0.96502   0.00000  Uiso   1.00
C1435  C     0.37250   0.74471   0.77258   0.00000  Uiso   1.00
H1436  H     0.39511   0.75092   0.80024   0.00000  Uiso   1.00
H1437  H     0.34880   0.72143   0.78663   0.00000  Uiso   1.00
H1438  H     0.38710   0.72612   0.74534   0.00000  Uiso   1.00
C1439  C     0.62750   0.92195   0.72743   0.00000  Uiso   1.00
H1440  H     0.60489   0.91575   0.69976   0.00000  Uiso   1.00
H1441  H     0.61290   0.94054   0.75467   0.00000  Uiso   1.00
H1442  H     0.65120   0.94524   0.71338   0.00000  Uiso   1.00
C1443  C     0.62668   0.74662   0.72332   0.00000  Uiso   1.00
H1444  H     0.60359   0.75493   0.69655   0.00000  Uiso   1.00
H1445  H     0.65012   0.72488   0.70748   0.00000  Uiso   1.00
H1446  H     0.61252   0.72556   0.74972   0.00000  Uiso   1.00
C1447  C     0.37332   0.92004   0.77668   0.00000  Uiso   1.00
H1448  H     0.39641   0.91174   0.80345   0.00000  Uiso   1.00
H1449  H     0.38748   0.94111   0.75028   0.00000  Uiso   1.00
H1450  H     0.34988   0.94179   0.79253   0.00000  Uiso   1.00
N1451  N     0.45392   0.71741   0.68567   0.00000  Uiso   1.00
H1452  H     0.42340   0.70637   0.68562   0.00000  Uiso   1.00
H1453  H     0.46563   0.70994   0.65469   0.00000  Uiso   1.00
N1454  N     0.54608   0.94925   0.81433   0.00000  Uiso   1.00
H1455  H     0.57660   0.96030   0.81438   0.00000  Uiso   1.00
H1456  H     0.53437   0.95673   0.84531   0.00000  Uiso   1.00
N1457  N     0.54649   0.71619   0.81395   0.00000  Uiso   1.00
H1458  H     0.57733   0.70726   0.81159   0.00000  Uiso   1.00
H1459  H     0.53697   0.70511   0.84507   0.00000  Uiso   1.00
N1460  N     0.45351   0.95048   0.68604   0.00000  Uiso   1.00
H1461  H     0.42267   0.95940   0.68841   0.00000  Uiso   1.00
H1462  H     0.46302   0.96156   0.65493   0.00000  Uiso   1.00
C1463  C     0.75422   0.83320   0.75419   0.00000  Uiso   1.00
C1464  C     0.91245   0.83347   0.74581   0.00000  Uiso   1.00
C1465  C     0.80087   0.91056   0.52140   0.00000  Uiso   1.00
C1466  C     0.86583   0.75613   0.97860   0.00000  Uiso   1.00
C1467  C     0.68721   0.79034   0.75577   0.00000  Uiso   1.00
C1468  C     0.97946   0.87633   0.74424   0.00000  Uiso   1.00
C1469  C     0.97906   0.79087   0.74234   0.00000  Uiso   1.00
C1470  C     0.68761   0.87580   0.75767   0.00000  Uiso   1.00
C1471  C     0.95745   0.83366   0.74192   0.00000  Uiso   1.00
C1472  C     0.70922   0.83300   0.75808   0.00000  Uiso   1.00
C1473  C     0.81050   0.69190   0.71888   0.00000  Uiso   1.00
C1474  C     0.85617   0.97477   0.78112   0.00000  Uiso   1.00
C1475  C     0.85620   0.69133   0.78107   0.00000  Uiso   1.00
C1476  C     0.81046   0.97534   0.71893   0.00000  Uiso   1.00
C1477  C     0.83332   0.83348   0.66435   0.00000  Uiso   1.00
C1478  C     0.83335   0.83319   0.83565   0.00000  Uiso   1.00
C1479  C     0.84890   0.79499   0.90807   0.00000  Uiso   1.00
C1480  C     0.81776   0.87168   0.59193   0.00000  Uiso   1.00
C1481  C     0.83314   0.83311   0.88401   0.00000  Uiso   1.00
C1482  C     0.83353   0.83356   0.61599   0.00000  Uiso   1.00
C1483  C     0.81749   0.87148   0.90606   0.00000  Uiso   1.00
C1484  C     0.84919   0.79519   0.59394   0.00000  Uiso   1.00
C1485  C     0.81711   0.87204   0.95243   0.00000  Uiso   1.00
C1486  C     0.84957   0.79463   0.54757   0.00000  Uiso   1.00
C1487  C     0.83328   0.83330   0.97675   0.00000  Uiso   1.00
C1488  C     0.83340   0.83337   0.52325   0.00000  Uiso   1.00
C1489  C     0.84937   0.79451   0.95443   0.00000  Uiso   1.00
C1490  C     0.81731   0.87216   0.54557   0.00000  Uiso   1.00
C1491  C     0.80078   0.91050   0.97465   0.00000  Uiso   1.00
C1492  C     0.86593   0.75619   0.52535   0.00000  Uiso   1.00
Cu1493 Cu    0.83333   0.88022   0.75000   0.00000  Uiso   1.00
Cu1494 Cu    0.83333   0.78645   0.75000   0.00000  Uiso   1.00
H1495  H     0.86152   0.76611   0.89042   0.00000  Uiso   1.00
H1496  H     0.80514   0.90056   0.60958   0.00000  Uiso   1.00
H1497  H     0.80522   0.90066   0.88675   0.00000  Uiso   1.00
H1498  H     0.86147   0.76601   0.61325   0.00000  Uiso   1.00
N1499  N     0.83333   0.95069   0.75000   0.00000  Uiso   1.00
N1500  N     0.83333   0.71598   0.75000   0.00000  Uiso   1.00
O1501  O     0.77321   0.87291   0.74999   0.00000  Uiso   1.00
O1502  O     0.89345   0.79375   0.75000   0.00000  Uiso   1.00
O1503  O     0.89345   0.87291   0.75000   0.00000  Uiso   1.00
O1504  O     0.77321   0.79375   0.74999   0.00000  Uiso   1.00
O1505  O     0.83332   0.87293   0.68513   0.00000  Uiso   1.00
O1506  O     0.83334   0.79373   0.81487   0.00000  Uiso   1.00
O1507  O     0.83334   0.87293   0.81487   0.00000  Uiso   1.00
O1508  O     0.83332   0.79373   0.68513   0.00000  Uiso   1.00
N1509  N     0.78389   0.94918   0.94951   0.00000  Uiso   1.00
H1510  H     0.79972   0.97960   0.95847   0.00000  Uiso   1.00
H1511  H     0.75307   0.95296   0.95711   0.00000  Uiso   1.00
N1512  N     0.88285   0.71752   0.55049   0.00000  Uiso   1.00
H1513  H     0.91368   0.71375   0.54287   0.00000  Uiso   1.00
H1514  H     0.86704   0.68708   0.54153   0.00000  Uiso   1.00
N1515  N     0.78411   0.94934   0.54457   0.00000  Uiso   1.00
H1516  H     0.75323   0.95307   0.53492   0.00000  Uiso   1.00
H1517  H     0.79987   0.97975   0.53589   0.00000  Uiso   1.00
N1518  N     0.88263   0.71737   0.95543   0.00000  Uiso   1.00
H1519  H     0.86696   0.68692   0.96418   0.00000  Uiso   1.00
H1520  H     0.91354   0.71374   0.96502   0.00000  Uiso   1.00
C1521  C     0.70584   0.74471   0.77258   0.00000  Uiso   1.00
H1522  H     0.72844   0.75092   0.80024   0.00000  Uiso   1.00
H1523  H     0.68213   0.72143   0.78663   0.00000  Uiso   1.00
H1524  H     0.72043   0.72612   0.74534   0.00000  Uiso   1.00
C1525  C     0.96083   0.92195   0.72743   0.00000  Uiso   1.00
H1526  H     0.93823   0.91575   0.69976   0.00000  Uiso   1.00
H1527  H     0.94623   0.94054   0.75467   0.00000  Uiso   1.00
H1528  H     0.98453   0.94524   0.71338   0.00000  Uiso   1.00
C1529  C     0.96002   0.74662   0.72332   0.00000  Uiso   1.00
H1530  H     0.93692   0.75493   0.69655   0.00000  Uiso   1.00
H1531  H     0.98346   0.72488   0.70748   0.00000  Uiso   1.00
H1532  H     0.94585   0.72556   0.74972   0.00000  Uiso   1.00
C1533  C     0.70665   0.92004   0.77668   0.00000  Uiso   1.00
H1534  H     0.72975   0.91174   0.80345   0.00000  Uiso   1.00
H1535  H     0.72081   0.94111   0.75028   0.00000  Uiso   1.00
H1536  H     0.68321   0.94179   0.79253   0.00000  Uiso   1.00
N1537  N     0.78725   0.71741   0.68567   0.00000  Uiso   1.00
H1538  H     0.75673   0.70637   0.68562   0.00000  Uiso   1.00
H1539  H     0.79896   0.70994   0.65469   0.00000  Uiso   1.00
N1540  N     0.87941   0.94925   0.81433   0.00000  Uiso   1.00
H1541  H     0.90993   0.96030   0.81438   0.00000  Uiso   1.00
H1542  H     0.86771   0.95673   0.84531   0.00000  Uiso   1.00
N1543  N     0.87982   0.71619   0.81395   0.00000  Uiso   1.00
H1544  H     0.91066   0.70726   0.81159   0.00000  Uiso   1.00
H1545  H     0.87031   0.70511   0.84507   0.00000  Uiso   1.00
N1546  N     0.78684   0.95048   0.68604   0.00000  Uiso   1.00
H1547  H     0.75601   0.95940   0.68841   0.00000  Uiso   1.00
H1548  H     0.79636   0.96156   0.65493   0.00000  Uiso   1.00
loop_
_geom_bond_atom_site_label_1
_geom_bond_atom_site_label_2
_geom_bond_distance
_geom_bond_site_symmetry_2
_ccdc_geom_bond_type
C1     C10     1.476   .     S
C1     O39     1.300   .     A
C1     O42     1.299   .     A
C2     O41     1.299   .     A
C2     O40     1.300   .     A
C2     C9      1.476   .     S
C3     C28     1.410   .     A
C3     N53     1.437   .     S
C3     C803    1.410   1_554 S
C4     N56     1.437   .     S
C4     C27     1.410   .     A
C4     C804    1.410   .     S
C5     C59     1.517   .     S
C5     C10     1.416   .     A
C5     C179    1.400   1_455 S
C6     C9      1.416   .     A
C6     C63     1.517   .     S
C6     C94     1.400   .     S
C7     C9      1.415   .     A
C7     C67     1.518   .     S
C7     C91     1.400   .     S
C8     C71     1.518   .     S
C8     C10     1.415   .     A
C8     C178    1.400   1_455 S
C11    N38     1.369   .     A
C11    N75     1.432   .     S
C11    C530    1.428   1_545 S
C12    N37     1.369   .     A
C12    N78     1.432   .     S
C12    C271    1.428   .     S
C13    N81     1.430   .     S
C13    N38     1.370   .     A
C13    C528    1.428   1_545 S
C14    N84     1.430   .     S
C14    N37     1.370   .     A
C14    C269    1.428   .     S
C15    C20     1.459   .     S
C15    O43     1.297   .     A
C15    O46     1.293   .     A
C16    O44     1.297   .     A
C16    O45     1.293   .     A
C16    C19     1.459   .     S
C17    H33     1.078   .     S
C17    C27     1.398   .     A
C17    C19     1.394   .     A
C18    C28     1.398   .     A
C18    H34     1.078   .     S
C18    C20     1.394   .     A
C19    C21     1.396   .     A
C20    C22     1.396   .     A
C21    C23     1.399   .     A
C21    H35     1.084   .     S
C22    C24     1.399   .     A
C22    H36     1.084   .     S
C23    C29     1.410   .     A
C23    C25     1.417   .     A
C24    C26     1.417   .     A
C24    C30     1.410   .     A
C25    C27     1.416   .     A
C25    C800    1.402   .     S
C26    C28     1.416   .     A
C26    C799    1.402   1_554 S
C29    N47     1.437   .     S
C29    C777    1.410   .     S
C30    N50     1.437   .     S
C30    C778    1.410   1_554 S
Cu31   O43     1.970   .     S
Cu31   Cu32    2.684   .     S
Cu31   N37     2.017   .     S
Cu31   O41     1.973   .     S
Cu31   O39     1.971   .     S
Cu31   O45     1.966   .     S
Cu32   N38     2.017   .     S
Cu32   O44     1.970   .     S
Cu32   O46     1.966   .     S
Cu32   O40     1.971   .     S
Cu32   O42     1.973   .     S
N47    H49     1.045   .     S
N47    H48     1.044   .     S
N50    H52     1.044   .     S
N50    H51     1.045   .     S
N53    H54     1.045   .     S
N53    H55     1.045   .     S
N56    H57     1.044   .     S
N56    H58     1.045   .     S
C59    H62     1.105   .     S
C59    H60     1.111   .     S
C59    H61     1.111   .     S
C63    H65     1.105   .     S
C63    H66     1.111   .     S
C63    H64     1.111   .     S
C67    H68     1.111   .     S
C67    H69     1.111   .     S
C67    H70     1.106   .     S
C71    H73     1.106   .     S
C71    H74     1.111   .     S
C71    H72     1.111   .     S
N75    H76     1.043   .     S
N75    H77     1.045   .     S
N78    H80     1.045   .     S
N78    H79     1.043   .     S
N81    H82     1.043   .     S
N81    H83     1.044   .     S
N84    H86     1.044   .     S
N84    H85     1.043   .     S
C87    C96     1.476   .     S
C87    O125    1.300   .     A
C87    O128    1.299   .     A
C88    O127    1.299   .     A
C88    O126    1.300   .     A
C88    C95     1.476   .     S
C89    C114    1.410   .     A
C89    N139    1.437   .     S
C89    C889    1.410   1_554 S
C90    N142    1.437   .     S
C90    C113    1.410   .     A
C90    C890    1.410   .     S
C91    C145    1.517   .     S
C91    C96     1.416   .     A
C92    C95     1.416   .     A
C92    C149    1.517   .     S
C92    C180    1.400   .     S
C93    C95     1.415   .     A
C93    C153    1.518   .     S
C93    C177    1.400   .     S
C94    C157    1.518   .     S
C94    C96     1.415   .     A
C97    N124    1.369   .     A
C97    N161    1.432   .     S
C97    C616    1.428   1_545 S
C98    N123    1.369   .     A
C98    N164    1.432   .     S
C98    C357    1.428   .     S
C99    N167    1.430   .     S
C99    N124    1.370   .     A
C99    C614    1.428   1_545 S
C100   N170    1.430   .     S
C100   N123    1.370   .     A
C100   C355    1.428   .     S
C101   C106    1.459   .     S
C101   O129    1.297   .     A
C101   O132    1.293   .     A
C102   O130    1.297   .     A
C102   O131    1.293   .     A
C102   C105    1.459   .     S
C103   H119    1.078   .     S
C103   C113    1.398   .     A
C103   C105    1.394   .     A
C104   C114    1.398   .     A
C104   H120    1.078   .     S
C104   C106    1.394   .     A
C105   C107    1.396   .     A
C106   C108    1.396   .     A
C107   C109    1.399   .     A
C107   H121    1.084   .     S
C108   C110    1.399   .     A
C108   H122    1.084   .     S
C109   C115    1.410   .     A
C109   C111    1.417   .     A
C110   C112    1.417   .     A
C110   C116    1.410   .     A
C111   C113    1.416   .     A
C111   C886    1.402   .     S
C112   C114    1.416   .     A
C112   C885    1.402   1_554 S
C115   N133    1.437   .     S
C115   C863    1.410   .     S
C116   N136    1.437   .     S
C116   C864    1.410   1_554 S
Cu117  O129    1.970   .     S
Cu117  Cu118   2.684   .     S
Cu117  N123    2.017   .     S
Cu117  O127    1.973   .     S
Cu117  O125    1.971   .     S
Cu117  O131    1.966   .     S
Cu118  N124    2.017   .     S
Cu118  O130    1.970   .     S
Cu118  O132    1.966   .     S
Cu118  O126    1.971   .     S
Cu118  O128    1.973   .     S
N133   H135    1.045   .     S
N133   H134    1.044   .     S
N136   H138    1.044   .     S
N136   H137    1.045   .     S
N139   H140    1.045   .     S
N139   H141    1.045   .     S
N142   H143    1.044   .     S
N142   H144    1.045   .     S
C145   H148    1.105   .     S
C145   H146    1.111   .     S
C145   H147    1.111   .     S
C149   H151    1.105   .     S
C149   H152    1.111   .     S
C149   H150    1.111   .     S
C153   H154    1.111   .     S
C153   H155    1.111   .     S
C153   H156    1.106   .     S
C157   H159    1.106   .     S
C157   H160    1.111   .     S
C157   H158    1.111   .     S
N161   H162    1.043   .     S
N161   H163    1.045   .     S
N164   H166    1.045   .     S
N164   H165    1.043   .     S
N167   H168    1.043   .     S
N167   H169    1.044   .     S
N170   H172    1.044   .     S
N170   H171    1.043   .     S
C173   C182    1.476   .     S
C173   O211    1.300   .     A
C173   O214    1.299   .     A
C174   O213    1.299   .     A
C174   O212    1.300   .     A
C174   C181    1.476   .     S
C175   C200    1.410   .     A
C175   N225    1.437   .     S
C175   C975    1.410   1_554 S
C176   N228    1.437   .     S
C176   C199    1.410   .     A
C176   C976    1.410   .     S
C177   C231    1.517   .     S
C177   C182    1.416   .     A
C178   C181    1.416   .     A
C178   C235    1.517   .     S
C178   C8      1.400   1_655 S
C179   C181    1.415   .     A
C179   C239    1.518   .     S
C179   C5      1.400   1_655 S
C180   C243    1.518   .     S
C180   C182    1.415   .     A
C183   N210    1.369   .     A
C183   N247    1.432   .     S
C183   C702    1.428   1_545 S
C184   N209    1.369   .     A
C184   N250    1.432   .     S
C184   C443    1.428   .     S
C185   N253    1.430   .     S
C185   N210    1.370   .     A
C185   C700    1.428   1_545 S
C186   N256    1.430   .     S
C186   N209    1.370   .     A
C186   C441    1.428   .     S
C187   C192    1.459   .     S
C187   O215    1.297   .     A
C187   O218    1.293   .     A
C188   O216    1.297   .     A
C188   O217    1.293   .     A
C188   C191    1.459   .     S
C189   H205    1.078   .     S
C189   C199    1.398   .     A
C189   C191    1.394   .     A
C190   C200    1.398   .     A
C190   H206    1.078   .     S
C190   C192    1.394   .     A
C191   C193    1.396   .     A
C192   C194    1.396   .     A
C193   C195    1.399   .     A
C193   H207    1.084   .     S
C194   C196    1.399   .     A
C194   H208    1.084   .     S
C195   C201    1.410   .     A
C195   C197    1.417   .     A
C196   C198    1.417   .     A
C196   C202    1.410   .     A
C197   C199    1.416   .     A
C197   C972    1.402   .     S
C198   C200    1.416   .     A
C198   C971    1.402   1_554 S
C201   N219    1.437   .     S
C201   C949    1.410   .     S
C202   N222    1.437   .     S
C202   C950    1.410   1_554 S
Cu203  O215    1.970   .     S
Cu203  Cu204   2.684   .     S
Cu203  N209    2.017   .     S
Cu203  O213    1.973   .     S
Cu203  O211    1.971   .     S
Cu203  O217    1.966   .     S
Cu204  N210    2.017   .     S
Cu204  O216    1.970   .     S
Cu204  O218    1.966   .     S
Cu204  O212    1.971   .     S
Cu204  O214    1.973   .     S
N219   H221    1.045   .     S
N219   H220    1.044   .     S
N222   H224    1.044   .     S
N222   H223    1.045   .     S
N225   H226    1.045   .     S
N225   H227    1.045   .     S
N228   H229    1.044   .     S
N228   H230    1.045   .     S
C231   H234    1.105   .     S
C231   H232    1.111   .     S
C231   H233    1.111   .     S
C235   H237    1.105   .     S
C235   H238    1.111   .     S
C235   H236    1.111   .     S
C239   H240    1.111   .     S
C239   H241    1.111   .     S
C239   H242    1.106   .     S
C243   H245    1.106   .     S
C243   H246    1.111   .     S
C243   H244    1.111   .     S
N247   H248    1.043   .     S
N247   H249    1.045   .     S
N250   H252    1.045   .     S
N250   H251    1.043   .     S
N253   H254    1.043   .     S
N253   H255    1.044   .     S
N256   H258    1.044   .     S
N256   H257    1.043   .     S
C259   C268    1.476   .     S
C259   O297    1.300   .     A
C259   O300    1.299   .     A
C260   O299    1.299   .     A
C260   O298    1.300   .     A
C260   C267    1.476   .     S
C261   C286    1.410   .     A
C261   N311    1.437   .     S
C261   C1061   1.410   1_554 S
C262   N314    1.437   .     S
C262   C285    1.410   .     A
C262   C1062   1.410   .     S
C263   C317    1.517   .     S
C263   C268    1.416   .     A
C263   C437    1.400   1_455 S
C264   C267    1.416   .     A
C264   C321    1.517   .     S
C264   C352    1.400   .     S
C265   C267    1.415   .     A
C265   C325    1.518   .     S
C265   C349    1.400   .     S
C266   C329    1.518   .     S
C266   C268    1.415   .     A
C266   C436    1.400   1_455 S
C269   N296    1.369   .     A
C269   N333    1.432   .     S
C270   N295    1.369   .     A
C270   N336    1.432   .     S
C270   C529    1.428   .     S
C271   N339    1.430   .     S
C271   N296    1.370   .     A
C272   N342    1.430   .     S
C272   N295    1.370   .     A
C272   C527    1.428   .     S
C273   C278    1.459   .     S
C273   O301    1.297   .     A
C273   O304    1.293   .     A
C274   O302    1.297   .     A
C274   O303    1.293   .     A
C274   C277    1.459   .     S
C275   H291    1.078   .     S
C275   C285    1.398   .     A
C275   C277    1.394   .     A
C276   C286    1.398   .     A
C276   H292    1.078   .     S
C276   C278    1.394   .     A
C277   C279    1.396   .     A
C278   C280    1.396   .     A
C279   C281    1.399   .     A
C279   H293    1.084   .     S
C280   C282    1.399   .     A
C280   H294    1.084   .     S
C281   C287    1.410   .     A
C281   C283    1.417   .     A
C282   C284    1.417   .     A
C282   C288    1.410   .     A
C283   C285    1.416   .     A
C283   C1058   1.402   .     S
C284   C286    1.416   .     A
C284   C1057   1.402   1_554 S
C287   N305    1.437   .     S
C287   C1035   1.410   .     S
C288   N308    1.437   .     S
C288   C1036   1.410   1_554 S
Cu289  O301    1.970   .     S
Cu289  Cu290   2.684   .     S
Cu289  N295    2.017   .     S
Cu289  O299    1.973   .     S
Cu289  O297    1.971   .     S
Cu289  O303    1.966   .     S
Cu290  N296    2.017   .     S
Cu290  O302    1.970   .     S
Cu290  O304    1.966   .     S
Cu290  O298    1.971   .     S
Cu290  O300    1.973   .     S
N305   H307    1.045   .     S
N305   H306    1.044   .     S
N308   H310    1.044   .     S
N308   H309    1.045   .     S
N311   H312    1.045   .     S
N311   H313    1.045   .     S
N314   H315    1.044   .     S
N314   H316    1.045   .     S
C317   H320    1.105   .     S
C317   H318    1.111   .     S
C317   H319    1.111   .     S
C321   H323    1.105   .     S
C321   H324    1.111   .     S
C321   H322    1.111   .     S
C325   H326    1.111   .     S
C325   H327    1.111   .     S
C325   H328    1.106   .     S
C329   H331    1.106   .     S
C329   H332    1.111   .     S
C329   H330    1.111   .     S
N333   H334    1.043   .     S
N333   H335    1.045   .     S
N336   H338    1.045   .     S
N336   H337    1.043   .     S
N339   H340    1.043   .     S
N339   H341    1.044   .     S
N342   H344    1.044   .     S
N342   H343    1.043   .     S
C345   C354    1.476   .     S
C345   O383    1.300   .     A
C345   O386    1.299   .     A
C346   O385    1.299   .     A
C346   O384    1.300   .     A
C346   C353    1.476   .     S
C347   C372    1.410   .     A
C347   N397    1.437   .     S
C347   C1147   1.410   1_554 S
C348   N400    1.437   .     S
C348   C371    1.410   .     A
C348   C1148   1.410   .     S
C349   C403    1.517   .     S
C349   C354    1.416   .     A
C350   C353    1.416   .     A
C350   C407    1.517   .     S
C350   C438    1.400   .     S
C351   C353    1.415   .     A
C351   C411    1.518   .     S
C351   C435    1.400   .     S
C352   C415    1.518   .     S
C352   C354    1.415   .     A
C355   N382    1.369   .     A
C355   N419    1.432   .     S
C356   N381    1.369   .     A
C356   N422    1.432   .     S
C356   C615    1.428   .     S
C357   N425    1.430   .     S
C357   N382    1.370   .     A
C358   N428    1.430   .     S
C358   N381    1.370   .     A
C358   C613    1.428   .     S
C359   C364    1.459   .     S
C359   O387    1.297   .     A
C359   O390    1.293   .     A
C360   O388    1.297   .     A
C360   O389    1.293   .     A
C360   C363    1.459   .     S
C361   H377    1.078   .     S
C361   C371    1.398   .     A
C361   C363    1.394   .     A
C362   C372    1.398   .     A
C362   H378    1.078   .     S
C362   C364    1.394   .     A
C363   C365    1.396   .     A
C364   C366    1.396   .     A
C365   C367    1.399   .     A
C365   H379    1.084   .     S
C366   C368    1.399   .     A
C366   H380    1.084   .     S
C367   C373    1.410   .     A
C367   C369    1.417   .     A
C368   C370    1.417   .     A
C368   C374    1.410   .     A
C369   C371    1.416   .     A
C369   C1144   1.402   .     S
C370   C372    1.416   .     A
C370   C1143   1.402   1_554 S
C373   N391    1.437   .     S
C373   C1121   1.410   .     S
C374   N394    1.437   .     S
C374   C1122   1.410   1_554 S
Cu375  O387    1.970   .     S
Cu375  Cu376   2.684   .     S
Cu375  N381    2.017   .     S
Cu375  O385    1.973   .     S
Cu375  O383    1.971   .     S
Cu375  O389    1.966   .     S
Cu376  N382    2.017   .     S
Cu376  O388    1.970   .     S
Cu376  O390    1.966   .     S
Cu376  O384    1.971   .     S
Cu376  O386    1.973   .     S
N391   H393    1.045   .     S
N391   H392    1.044   .     S
N394   H396    1.044   .     S
N394   H395    1.045   .     S
N397   H398    1.045   .     S
N397   H399    1.045   .     S
N400   H401    1.044   .     S
N400   H402    1.045   .     S
C403   H406    1.105   .     S
C403   H404    1.111   .     S
C403   H405    1.111   .     S
C407   H409    1.105   .     S
C407   H410    1.111   .     S
C407   H408    1.111   .     S
C411   H412    1.111   .     S
C411   H413    1.111   .     S
C411   H414    1.106   .     S
C415   H417    1.106   .     S
C415   H418    1.111   .     S
C415   H416    1.111   .     S
N419   H420    1.043   .     S
N419   H421    1.045   .     S
N422   H424    1.045   .     S
N422   H423    1.043   .     S
N425   H426    1.043   .     S
N425   H427    1.044   .     S
N428   H430    1.044   .     S
N428   H429    1.043   .     S
C431   C440    1.476   .     S
C431   O469    1.300   .     A
C431   O472    1.299   .     A
C432   O471    1.299   .     A
C432   O470    1.300   .     A
C432   C439    1.476   .     S
C433   C458    1.410   .     A
C433   N483    1.437   .     S
C433   C1233   1.410   1_554 S
C434   N486    1.437   .     S
C434   C457    1.410   .     A
C434   C1234   1.410   .     S
C435   C489    1.517   .     S
C435   C440    1.416   .     A
C436   C439    1.416   .     A
C436   C493    1.517   .     S
C436   C266    1.400   1_655 S
C437   C439    1.415   .     A
C437   C497    1.518   .     S
C437   C263    1.400   1_655 S
C438   C501    1.518   .     S
C438   C440    1.415   .     A
C441   N468    1.369   .     A
C441   N505    1.432   .     S
C442   N467    1.369   .     A
C442   N508    1.432   .     S
C442   C701    1.428   .     S
C443   N511    1.430   .     S
C443   N468    1.370   .     A
C444   N514    1.430   .     S
C444   N467    1.370   .     A
C444   C699    1.428   .     S
C445   C450    1.459   .     S
C445   O473    1.297   .     A
C445   O476    1.293   .     A
C446   O474    1.297   .     A
C446   O475    1.293   .     A
C446   C449    1.459   .     S
C447   H463    1.078   .     S
C447   C457    1.398   .     A
C447   C449    1.394   .     A
C448   C458    1.398   .     A
C448   H464    1.078   .     S
C448   C450    1.394   .     A
C449   C451    1.396   .     A
C450   C452    1.396   .     A
C451   C453    1.399   .     A
C451   H465    1.084   .     S
C452   C454    1.399   .     A
C452   H466    1.084   .     S
C453   C459    1.410   .     A
C453   C455    1.417   .     A
C454   C456    1.417   .     A
C454   C460    1.410   .     A
C455   C457    1.416   .     A
C455   C1230   1.402   .     S
C456   C458    1.416   .     A
C456   C1229   1.402   1_554 S
C459   N477    1.437   .     S
C459   C1207   1.410   .     S
C460   N480    1.437   .     S
C460   C1208   1.410   1_554 S
Cu461  O473    1.970   .     S
Cu461  Cu462   2.684   .     S
Cu461  N467    2.017   .     S
Cu461  O471    1.973   .     S
Cu461  O469    1.971   .     S
Cu461  O475    1.966   .     S
Cu462  N468    2.017   .     S
Cu462  O474    1.970   .     S
Cu462  O476    1.966   .     S
Cu462  O470    1.971   .     S
Cu462  O472    1.973   .     S
N477   H479    1.045   .     S
N477   H478    1.044   .     S
N480   H482    1.044   .     S
N480   H481    1.045   .     S
N483   H484    1.045   .     S
N483   H485    1.045   .     S
N486   H487    1.044   .     S
N486   H488    1.045   .     S
C489   H492    1.105   .     S
C489   H490    1.111   .     S
C489   H491    1.111   .     S
C493   H495    1.105   .     S
C493   H496    1.111   .     S
C493   H494    1.111   .     S
C497   H498    1.111   .     S
C497   H499    1.111   .     S
C497   H500    1.106   .     S
C501   H503    1.106   .     S
C501   H504    1.111   .     S
C501   H502    1.111   .     S
N505   H506    1.043   .     S
N505   H507    1.045   .     S
N508   H510    1.045   .     S
N508   H509    1.043   .     S
N511   H512    1.043   .     S
N511   H513    1.044   .     S
N514   H516    1.044   .     S
N514   H515    1.043   .     S
C517   C526    1.476   .     S
C517   O555    1.300   .     A
C517   O558    1.299   .     A
C518   O557    1.299   .     A
C518   O556    1.300   .     A
C518   C525    1.476   .     S
C519   C544    1.410   .     A
C519   N569    1.437   .     S
C519   C1319   1.410   1_554 S
C520   N572    1.437   .     S
C520   C543    1.410   .     A
C520   C1320   1.410   .     S
C521   C575    1.517   .     S
C521   C526    1.416   .     A
C521   C695    1.400   1_455 S
C522   C525    1.416   .     A
C522   C579    1.517   .     S
C522   C610    1.400   .     S
C523   C525    1.415   .     A
C523   C583    1.518   .     S
C523   C607    1.400   .     S
C524   C587    1.518   .     S
C524   C526    1.415   .     A
C524   C694    1.400   1_455 S
C527   N554    1.369   .     A
C527   N591    1.432   .     S
C528   N553    1.369   .     A
C528   N594    1.432   .     S
C528   C13     1.428   1_565 S
C529   N597    1.430   .     S
C529   N554    1.370   .     A
C530   N600    1.430   .     S
C530   N553    1.370   .     A
C530   C11     1.428   1_565 S
C531   C536    1.459   .     S
C531   O559    1.297   .     A
C531   O562    1.293   .     A
C532   O560    1.297   .     A
C532   O561    1.293   .     A
C532   C535    1.459   .     S
C533   H549    1.078   .     S
C533   C543    1.398   .     A
C533   C535    1.394   .     A
C534   C544    1.398   .     A
C534   H550    1.078   .     S
C534   C536    1.394   .     A
C535   C537    1.396   .     A
C536   C538    1.396   .     A
C537   C539    1.399   .     A
C537   H551    1.084   .     S
C538   C540    1.399   .     A
C538   H552    1.084   .     S
C539   C545    1.410   .     A
C539   C541    1.417   .     A
C540   C542    1.417   .     A
C540   C546    1.410   .     A
C541   C543    1.416   .     A
C541   C1316   1.402   .     S
C542   C544    1.416   .     A
C542   C1315   1.402   1_554 S
C545   N563    1.437   .     S
C545   C1293   1.410   .     S
C546   N566    1.437   .     S
C546   C1294   1.410   1_554 S
Cu547  O559    1.970   .     S
Cu547  Cu548   2.684   .     S
Cu547  N553    2.017   .     S
Cu547  O557    1.973   .     S
Cu547  O555    1.971   .     S
Cu547  O561    1.966   .     S
Cu548  N554    2.017   .     S
Cu548  O560    1.970   .     S
Cu548  O562    1.966   .     S
Cu548  O556    1.971   .     S
Cu548  O558    1.973   .     S
N563   H565    1.045   .     S
N563   H564    1.044   .     S
N566   H568    1.044   .     S
N566   H567    1.045   .     S
N569   H570    1.045   .     S
N569   H571    1.045   .     S
N572   H573    1.044   .     S
N572   H574    1.045   .     S
C575   H578    1.105   .     S
C575   H576    1.111   .     S
C575   H577    1.111   .     S
C579   H581    1.105   .     S
C579   H582    1.111   .     S
C579   H580    1.111   .     S
C583   H584    1.111   .     S
C583   H585    1.111   .     S
C583   H586    1.106   .     S
C587   H589    1.106   .     S
C587   H590    1.111   .     S
C587   H588    1.111   .     S
N591   H592    1.043   .     S
N591   H593    1.045   .     S
N594   H596    1.045   .     S
N594   H595    1.043   .     S
N597   H598    1.043   .     S
N597   H599    1.044   .     S
N600   H602    1.044   .     S
N600   H601    1.043   .     S
C603   C612    1.476   .     S
C603   O641    1.300   .     A
C603   O644    1.299   .     A
C604   O643    1.299   .     A
C604   O642    1.300   .     A
C604   C611    1.476   .     S
C605   C630    1.410   .     A
C605   N655    1.437   .     S
C605   C1405   1.410   1_554 S
C606   N658    1.437   .     S
C606   C629    1.410   .     A
C606   C1406   1.410   .     S
C607   C661    1.517   .     S
C607   C612    1.416   .     A
C608   C611    1.416   .     A
C608   C665    1.517   .     S
C608   C696    1.400   .     S
C609   C611    1.415   .     A
C609   C669    1.518   .     S
C609   C693    1.400   .     S
C610   C673    1.518   .     S
C610   C612    1.415   .     A
C613   N640    1.369   .     A
C613   N677    1.432   .     S
C614   N639    1.369   .     A
C614   N680    1.432   .     S
C614   C99     1.428   1_565 S
C615   N683    1.430   .     S
C615   N640    1.370   .     A
C616   N686    1.430   .     S
C616   N639    1.370   .     A
C616   C97     1.428   1_565 S
C617   C622    1.459   .     S
C617   O645    1.297   .     A
C617   O648    1.293   .     A
C618   O646    1.297   .     A
C618   O647    1.293   .     A
C618   C621    1.459   .     S
C619   H635    1.078   .     S
C619   C629    1.398   .     A
C619   C621    1.394   .     A
C620   C630    1.398   .     A
C620   H636    1.078   .     S
C620   C622    1.394   .     A
C621   C623    1.396   .     A
C622   C624    1.396   .     A
C623   C625    1.399   .     A
C623   H637    1.084   .     S
C624   C626    1.399   .     A
C624   H638    1.084   .     S
C625   C631    1.410   .     A
C625   C627    1.417   .     A
C626   C628    1.417   .     A
C626   C632    1.410   .     A
C627   C629    1.416   .     A
C627   C1402   1.402   .     S
C628   C630    1.416   .     A
C628   C1401   1.402   1_554 S
C631   N649    1.437   .     S
C631   C1379   1.410   .     S
C632   N652    1.437   .     S
C632   C1380   1.410   1_554 S
Cu633  O645    1.970   .     S
Cu633  Cu634   2.684   .     S
Cu633  N639    2.017   .     S
Cu633  O643    1.973   .     S
Cu633  O641    1.971   .     S
Cu633  O647    1.966   .     S
Cu634  N640    2.017   .     S
Cu634  O646    1.970   .     S
Cu634  O648    1.966   .     S
Cu634  O642    1.971   .     S
Cu634  O644    1.973   .     S
N649   H651    1.045   .     S
N649   H650    1.044   .     S
N652   H654    1.044   .     S
N652   H653    1.045   .     S
N655   H656    1.045   .     S
N655   H657    1.045   .     S
N658   H659    1.044   .     S
N658   H660    1.045   .     S
C661   H664    1.105   .     S
C661   H662    1.111   .     S
C661   H663    1.111   .     S
C665   H667    1.105   .     S
C665   H668    1.111   .     S
C665   H666    1.111   .     S
C669   H670    1.111   .     S
C669   H671    1.111   .     S
C669   H672    1.106   .     S
C673   H675    1.106   .     S
C673   H676    1.111   .     S
C673   H674    1.111   .     S
N677   H678    1.043   .     S
N677   H679    1.045   .     S
N680   H682    1.045   .     S
N680   H681    1.043   .     S
N683   H684    1.043   .     S
N683   H685    1.044   .     S
N686   H688    1.044   .     S
N686   H687    1.043   .     S
C689   C698    1.476   .     S
C689   O727    1.300   .     A
C689   O730    1.299   .     A
C690   O729    1.299   .     A
C690   O728    1.300   .     A
C690   C697    1.476   .     S
C691   C716    1.410   .     A
C691   N741    1.437   .     S
C691   C1491   1.410   1_554 S
C692   N744    1.437   .     S
C692   C715    1.410   .     A
C692   C1492   1.410   .     S
C693   C747    1.517   .     S
C693   C698    1.416   .     A
C694   C697    1.416   .     A
C694   C751    1.517   .     S
C694   C524    1.400   1_655 S
C695   C697    1.415   .     A
C695   C755    1.518   .     S
C695   C521    1.400   1_655 S
C696   C759    1.518   .     S
C696   C698    1.415   .     A
C699   N726    1.369   .     A
C699   N763    1.432   .     S
C700   N725    1.369   .     A
C700   N766    1.432   .     S
C700   C185    1.428   1_565 S
C701   N769    1.430   .     S
C701   N726    1.370   .     A
C702   N772    1.430   .     S
C702   N725    1.370   .     A
C702   C183    1.428   1_565 S
C703   C708    1.459   .     S
C703   O731    1.297   .     A
C703   O734    1.293   .     A
C704   O732    1.297   .     A
C704   O733    1.293   .     A
C704   C707    1.459   .     S
C705   H721    1.078   .     S
C705   C715    1.398   .     A
C705   C707    1.394   .     A
C706   C716    1.398   .     A
C706   H722    1.078   .     S
C706   C708    1.394   .     A
C707   C709    1.396   .     A
C708   C710    1.396   .     A
C709   C711    1.399   .     A
C709   H723    1.084   .     S
C710   C712    1.399   .     A
C710   H724    1.084   .     S
C711   C717    1.410   .     A
C711   C713    1.417   .     A
C712   C714    1.417   .     A
C712   C718    1.410   .     A
C713   C715    1.416   .     A
C713   C1488   1.402   .     S
C714   C716    1.416   .     A
C714   C1487   1.402   1_554 S
C717   N735    1.437   .     S
C717   C1465   1.410   .     S
C718   N738    1.437   .     S
C718   C1466   1.410   1_554 S
Cu719  O731    1.970   .     S
Cu719  Cu720   2.684   .     S
Cu719  N725    2.017   .     S
Cu719  O729    1.973   .     S
Cu719  O727    1.971   .     S
Cu719  O733    1.966   .     S
Cu720  N726    2.017   .     S
Cu720  O732    1.970   .     S
Cu720  O734    1.966   .     S
Cu720  O728    1.971   .     S
Cu720  O730    1.973   .     S
N735   H737    1.045   .     S
N735   H736    1.044   .     S
N738   H740    1.044   .     S
N738   H739    1.045   .     S
N741   H742    1.045   .     S
N741   H743    1.045   .     S
N744   H745    1.044   .     S
N744   H746    1.045   .     S
C747   H750    1.105   .     S
C747   H748    1.111   .     S
C747   H749    1.111   .     S
C751   H753    1.105   .     S
C751   H754    1.111   .     S
C751   H752    1.111   .     S
C755   H756    1.111   .     S
C755   H757    1.111   .     S
C755   H758    1.106   .     S
C759   H761    1.106   .     S
C759   H762    1.111   .     S
C759   H760    1.111   .     S
N763   H764    1.043   .     S
N763   H765    1.045   .     S
N766   H768    1.045   .     S
N766   H767    1.043   .     S
N769   H770    1.043   .     S
N769   H771    1.044   .     S
N772   H774    1.044   .     S
N772   H773    1.043   .     S
C775   C784    1.476   .     S
C775   O813    1.300   .     A
C775   O816    1.299   .     A
C776   O815    1.299   .     A
C776   O814    1.300   .     A
C776   C783    1.476   .     S
C777   C802    1.410   .     A
C777   N827    1.437   .     S
C778   N830    1.437   .     S
C778   C801    1.410   .     A
C778   C30     1.410   1_556 S
C779   C833    1.517   .     S
C779   C784    1.416   .     A
C779   C953    1.400   1_455 S
C780   C783    1.416   .     A
C780   C837    1.517   .     S
C780   C868    1.400   .     S
C781   C783    1.415   .     A
C781   C841    1.518   .     S
C781   C865    1.400   .     S
C782   C845    1.518   .     S
C782   C784    1.415   .     A
C782   C952    1.400   1_455 S
C785   N812    1.369   .     A
C785   N849    1.432   .     S
C785   C1304   1.428   1_545 S
C786   N811    1.369   .     A
C786   N852    1.432   .     S
C786   C1045   1.428   .     S
C787   N855    1.430   .     S
C787   N812    1.370   .     A
C787   C1302   1.428   1_545 S
C788   N858    1.430   .     S
C788   N811    1.370   .     A
C788   C1043   1.428   .     S
C789   C794    1.459   .     S
C789   O817    1.297   .     A
C789   O820    1.293   .     A
C790   O818    1.297   .     A
C790   O819    1.293   .     A
C790   C793    1.459   .     S
C791   H807    1.078   .     S
C791   C801    1.398   .     A
C791   C793    1.394   .     A
C792   C802    1.398   .     A
C792   H808    1.078   .     S
C792   C794    1.394   .     A
C793   C795    1.396   .     A
C794   C796    1.396   .     A
C795   C797    1.399   .     A
C795   H809    1.084   .     S
C796   C798    1.399   .     A
C796   H810    1.084   .     S
C797   C803    1.410   .     A
C797   C799    1.417   .     A
C798   C800    1.417   .     A
C798   C804    1.410   .     A
C799   C801    1.416   .     A
C799   C26     1.402   1_556 S
C800   C802    1.416   .     A
C803   N821    1.437   .     S
C803   C3      1.410   1_556 S
C804   N824    1.437   .     S
Cu805  O817    1.970   .     S
Cu805  Cu806   2.684   .     S
Cu805  N811    2.017   .     S
Cu805  O815    1.973   .     S
Cu805  O813    1.971   .     S
Cu805  O819    1.966   .     S
Cu806  N812    2.017   .     S
Cu806  O818    1.970   .     S
Cu806  O820    1.966   .     S
Cu806  O814    1.971   .     S
Cu806  O816    1.973   .     S
N821   H823    1.045   .     S
N821   H822    1.044   .     S
N824   H826    1.044   .     S
N824   H825    1.045   .     S
N827   H828    1.045   .     S
N827   H829    1.045   .     S
N830   H831    1.044   .     S
N830   H832    1.045   .     S
C833   H836    1.105   .     S
C833   H834    1.111   .     S
C833   H835    1.111   .     S
C837   H839    1.105   .     S
C837   H840    1.111   .     S
C837   H838    1.111   .     S
C841   H842    1.111   .     S
C841   H843    1.111   .     S
C841   H844    1.106   .     S
C845   H847    1.106   .     S
C845   H848    1.111   .     S
C845   H846    1.111   .     S
N849   H850    1.043   .     S
N849   H851    1.045   .     S
N852   H854    1.045   .     S
N852   H853    1.043   .     S
N855   H856    1.043   .     S
N855   H857    1.044   .     S
N858   H860    1.044   .     S
N858   H859    1.043   .     S
C861   C870    1.476   .     S
C861   O899    1.300   .     A
C861   O902    1.299   .     A
C862   O901    1.299   .     A
C862   O900    1.300   .     A
C862   C869    1.476   .     S
C863   C888    1.410   .     A
C863   N913    1.437   .     S
C864   N916    1.437   .     S
C864   C887    1.410   .     A
C864   C116    1.410   1_556 S
C865   C919    1.517   .     S
C865   C870    1.416   .     A
C866   C869    1.416   .     A
C866   C923    1.517   .     S
C866   C954    1.400   .     S
C867   C869    1.415   .     A
C867   C927    1.518   .     S
C867   C951    1.400   .     S
C868   C931    1.518   .     S
C868   C870    1.415   .     A
C871   N898    1.369   .     A
C871   N935    1.432   .     S
C871   C1390   1.428   1_545 S
C872   N897    1.369   .     A
C872   N938    1.432   .     S
C872   C1131   1.428   .     S
C873   N941    1.430   .     S
C873   N898    1.370   .     A
C873   C1388   1.428   1_545 S
C874   N944    1.430   .     S
C874   N897    1.370   .     A
C874   C1129   1.428   .     S
C875   C880    1.459   .     S
C875   O903    1.297   .     A
C875   O906    1.293   .     A
C876   O904    1.297   .     A
C876   O905    1.293   .     A
C876   C879    1.459   .     S
C877   H893    1.078   .     S
C877   C887    1.398   .     A
C877   C879    1.394   .     A
C878   C888    1.398   .     A
C878   H894    1.078   .     S
C878   C880    1.394   .     A
C879   C881    1.396   .     A
C880   C882    1.396   .     A
C881   C883    1.399   .     A
C881   H895    1.084   .     S
C882   C884    1.399   .     A
C882   H896    1.084   .     S
C883   C889    1.410   .     A
C883   C885    1.417   .     A
C884   C886    1.417   .     A
C884   C890    1.410   .     A
C885   C887    1.416   .     A
C885   C112    1.402   1_556 S
C886   C888    1.416   .     A
C889   N907    1.437   .     S
C889   C89     1.410   1_556 S
C890   N910    1.437   .     S
Cu891  O903    1.970   .     S
Cu891  Cu892   2.684   .     S
Cu891  N897    2.017   .     S
Cu891  O901    1.973   .     S
Cu891  O899    1.971   .     S
Cu891  O905    1.966   .     S
Cu892  N898    2.017   .     S
Cu892  O904    1.970   .     S
Cu892  O906    1.966   .     S
Cu892  O900    1.971   .     S
Cu892  O902    1.973   .     S
N907   H909    1.045   .     S
N907   H908    1.044   .     S
N910   H912    1.044   .     S
N910   H911    1.045   .     S
N913   H914    1.045   .     S
N913   H915    1.045   .     S
N916   H917    1.044   .     S
N916   H918    1.045   .     S
C919   H922    1.105   .     S
C919   H920    1.111   .     S
C919   H921    1.111   .     S
C923   H925    1.105   .     S
C923   H926    1.111   .     S
C923   H924    1.111   .     S
C927   H928    1.111   .     S
C927   H929    1.111   .     S
C927   H930    1.106   .     S
C931   H933    1.106   .     S
C931   H934    1.111   .     S
C931   H932    1.111   .     S
N935   H936    1.043   .     S
N935   H937    1.045   .     S
N938   H940    1.045   .     S
N938   H939    1.043   .     S
N941   H942    1.043   .     S
N941   H943    1.044   .     S
N944   H946    1.044   .     S
N944   H945    1.043   .     S
C947   C956    1.476   .     S
C947   O985    1.300   .     A
C947   O988    1.299   .     A
C948   O987    1.299   .     A
C948   O986    1.300   .     A
C948   C955    1.476   .     S
C949   C974    1.410   .     A
C949   N999    1.437   .     S
C950   N1002   1.437   .     S
C950   C973    1.410   .     A
C950   C202    1.410   1_556 S
C951   C1005   1.517   .     S
C951   C956    1.416   .     A
C952   C955    1.416   .     A
C952   C1009   1.517   .     S
C952   C782    1.400   1_655 S
C953   C955    1.415   .     A
C953   C1013   1.518   .     S
C953   C779    1.400   1_655 S
C954   C1017   1.518   .     S
C954   C956    1.415   .     A
C957   N984    1.369   .     A
C957   N1021   1.432   .     S
C957   C1476   1.428   1_545 S
C958   N983    1.369   .     A
C958   N1024   1.432   .     S
C958   C1217   1.428   .     S
C959   N1027   1.430   .     S
C959   N984    1.370   .     A
C959   C1474   1.428   1_545 S
C960   N1030   1.430   .     S
C960   N983    1.370   .     A
C960   C1215   1.428   .     S
C961   C966    1.459   .     S
C961   O989    1.297   .     A
C961   O992    1.293   .     A
C962   O990    1.297   .     A
C962   O991    1.293   .     A
C962   C965    1.459   .     S
C963   H979    1.078   .     S
C963   C973    1.398   .     A
C963   C965    1.394   .     A
C964   C974    1.398   .     A
C964   H980    1.078   .     S
C964   C966    1.394   .     A
C965   C967    1.396   .     A
C966   C968    1.396   .     A
C967   C969    1.399   .     A
C967   H981    1.084   .     S
C968   C970    1.399   .     A
C968   H982    1.084   .     S
C969   C975    1.410   .     A
C969   C971    1.417   .     A
C970   C972    1.417   .     A
C970   C976    1.410   .     A
C971   C973    1.416   .     A
C971   C198    1.402   1_556 S
C972   C974    1.416   .     A
C975   N993    1.437   .     S
C975   C175    1.410   1_556 S
C976   N996    1.437   .     S
Cu977  O989    1.970   .     S
Cu977  Cu978   2.684   .     S
Cu977  N983    2.017   .     S
Cu977  O987    1.973   .     S
Cu977  O985    1.971   .     S
Cu977  O991    1.966   .     S
Cu978  N984    2.017   .     S
Cu978  O990    1.970   .     S
Cu978  O992    1.966   .     S
Cu978  O986    1.971   .     S
Cu978  O988    1.973   .     S
N993   H995    1.045   .     S
N993   H994    1.044   .     S
N996   H998    1.044   .     S
N996   H997    1.045   .     S
N999   H1000   1.045   .     S
N999   H1001   1.045   .     S
N1002  H1003   1.044   .     S
N1002  H1004   1.045   .     S
C1005  H1008   1.105   .     S
C1005  H1006   1.111   .     S
C1005  H1007   1.111   .     S
C1009  H1011   1.105   .     S
C1009  H1012   1.111   .     S
C1009  H1010   1.111   .     S
C1013  H1014   1.111   .     S
C1013  H1015   1.111   .     S
C1013  H1016   1.106   .     S
C1017  H1019   1.106   .     S
C1017  H1020   1.111   .     S
C1017  H1018   1.111   .     S
N1021  H1022   1.043   .     S
N1021  H1023   1.045   .     S
N1024  H1026   1.045   .     S
N1024  H1025   1.043   .     S
N1027  H1028   1.043   .     S
N1027  H1029   1.044   .     S
N1030  H1032   1.044   .     S
N1030  H1031   1.043   .     S
C1033  C1042   1.476   .     S
C1033  O1071   1.300   .     A
C1033  O1074   1.299   .     A
C1034  O1073   1.299   .     A
C1034  O1072   1.300   .     A
C1034  C1041   1.476   .     S
C1035  C1060   1.410   .     A
C1035  N1085   1.437   .     S
C1036  N1088   1.437   .     S
C1036  C1059   1.410   .     A
C1036  C288    1.410   1_556 S
C1037  C1091   1.517   .     S
C1037  C1042   1.416   .     A
C1037  C1211   1.400   1_455 S
C1038  C1041   1.416   .     A
C1038  C1095   1.517   .     S
C1038  C1126   1.400   .     S
C1039  C1041   1.415   .     A
C1039  C1099   1.518   .     S
C1039  C1123   1.400   .     S
C1040  C1103   1.518   .     S
C1040  C1042   1.415   .     A
C1040  C1210   1.400   1_455 S
C1043  N1070   1.369   .     A
C1043  N1107   1.432   .     S
C1044  N1069   1.369   .     A
C1044  N1110   1.432   .     S
C1044  C1303   1.428   .     S
C1045  N1113   1.430   .     S
C1045  N1070   1.370   .     A
C1046  N1116   1.430   .     S
C1046  N1069   1.370   .     A
C1046  C1301   1.428   .     S
C1047  C1052   1.459   .     S
C1047  O1075   1.297   .     A
C1047  O1078   1.293   .     A
C1048  O1076   1.297   .     A
C1048  O1077   1.293   .     A
C1048  C1051   1.459   .     S
C1049  H1065   1.078   .     S
C1049  C1059   1.398   .     A
C1049  C1051   1.394   .     A
C1050  C1060   1.398   .     A
C1050  H1066   1.078   .     S
C1050  C1052   1.394   .     A
C1051  C1053   1.396   .     A
C1052  C1054   1.396   .     A
C1053  C1055   1.399   .     A
C1053  H1067   1.084   .     S
C1054  C1056   1.399   .     A
C1054  H1068   1.084   .     S
C1055  C1061   1.410   .     A
C1055  C1057   1.417   .     A
C1056  C1058   1.417   .     A
C1056  C1062   1.410   .     A
C1057  C1059   1.416   .     A
C1057  C284    1.402   1_556 S
C1058  C1060   1.416   .     A
C1061  N1079   1.437   .     S
C1061  C261    1.410   1_556 S
C1062  N1082   1.437   .     S
Cu1063 O1075   1.970   .     S
Cu1063 Cu1064  2.684   .     S
Cu1063 N1069   2.017   .     S
Cu1063 O1073   1.973   .     S
Cu1063 O1071   1.971   .     S
Cu1063 O1077   1.966   .     S
Cu1064 N1070   2.017   .     S
Cu1064 O1076   1.970   .     S
Cu1064 O1078   1.966   .     S
Cu1064 O1072   1.971   .     S
Cu1064 O1074   1.973   .     S
N1079  H1081   1.045   .     S
N1079  H1080   1.044   .     S
N1082  H1084   1.044   .     S
N1082  H1083   1.045   .     S
N1085  H1086   1.045   .     S
N1085  H1087   1.045   .     S
N1088  H1089   1.044   .     S
N1088  H1090   1.045   .     S
C1091  H1094   1.105   .     S
C1091  H1092   1.111   .     S
C1091  H1093   1.111   .     S
C1095  H1097   1.105   .     S
C1095  H1098   1.111   .     S
C1095  H1096   1.111   .     S
C1099  H1100   1.111   .     S
C1099  H1101   1.111   .     S
C1099  H1102   1.106   .     S
C1103  H1105   1.106   .     S
C1103  H1106   1.111   .     S
C1103  H1104   1.111   .     S
N1107  H1108   1.043   .     S
N1107  H1109   1.045   .     S
N1110  H1112   1.045   .     S
N1110  H1111   1.043   .     S
N1113  H1114   1.043   .     S
N1113  H1115   1.044   .     S
N1116  H1118   1.044   .     S
N1116  H1117   1.043   .     S
C1119  C1128   1.476   .     S
C1119  O1157   1.300   .     A
C1119  O1160   1.299   .     A
C1120  O1159   1.299   .     A
C1120  O1158   1.300   .     A
C1120  C1127   1.476   .     S
C1121  C1146   1.410   .     A
C1121  N1171   1.437   .     S
C1122  N1174   1.437   .     S
C1122  C1145   1.410   .     A
C1122  C374    1.410   1_556 S
C1123  C1177   1.517   .     S
C1123  C1128   1.416   .     A
C1124  C1127   1.416   .     A
C1124  C1181   1.517   .     S
C1124  C1212   1.400   .     S
C1125  C1127   1.415   .     A
C1125  C1185   1.518   .     S
C1125  C1209   1.400   .     S
C1126  C1189   1.518   .     S
C1126  C1128   1.415   .     A
C1129  N1156   1.369   .     A
C1129  N1193   1.432   .     S
C1130  N1155   1.369   .     A
C1130  N1196   1.432   .     S
C1130  C1389   1.428   .     S
C1131  N1199   1.430   .     S
C1131  N1156   1.370   .     A
C1132  N1202   1.430   .     S
C1132  N1155   1.370   .     A
C1132  C1387   1.428   .     S
C1133  C1138   1.459   .     S
C1133  O1161   1.297   .     A
C1133  O1164   1.293   .     A
C1134  O1162   1.297   .     A
C1134  O1163   1.293   .     A
C1134  C1137   1.459   .     S
C1135  H1151   1.078   .     S
C1135  C1145   1.398   .     A
C1135  C1137   1.394   .     A
C1136  C1146   1.398   .     A
C1136  H1152   1.078   .     S
C1136  C1138   1.394   .     A
C1137  C1139   1.396   .     A
C1138  C1140   1.396   .     A
C1139  C1141   1.399   .     A
C1139  H1153   1.084   .     S
C1140  C1142   1.399   .     A
C1140  H1154   1.084   .     S
C1141  C1147   1.410   .     A
C1141  C1143   1.417   .     A
C1142  C1144   1.417   .     A
C1142  C1148   1.410   .     A
C1143  C1145   1.416   .     A
C1143  C370    1.402   1_556 S
C1144  C1146   1.416   .     A
C1147  N1165   1.437   .     S
C1147  C347    1.410   1_556 S
C1148  N1168   1.437   .     S
Cu1149 O1161   1.970   .     S
Cu1149 Cu1150  2.684   .     S
Cu1149 N1155   2.017   .     S
Cu1149 O1159   1.973   .     S
Cu1149 O1157   1.971   .     S
Cu1149 O1163   1.966   .     S
Cu1150 N1156   2.017   .     S
Cu1150 O1162   1.970   .     S
Cu1150 O1164   1.966   .     S
Cu1150 O1158   1.971   .     S
Cu1150 O1160   1.973   .     S
N1165  H1167   1.045   .     S
N1165  H1166   1.044   .     S
N1168  H1170   1.044   .     S
N1168  H1169   1.045   .     S
N1171  H1172   1.045   .     S
N1171  H1173   1.045   .     S
N1174  H1175   1.044   .     S
N1174  H1176   1.045   .     S
C1177  H1180   1.105   .     S
C1177  H1178   1.111   .     S
C1177  H1179   1.111   .     S
C1181  H1183   1.105   .     S
C1181  H1184   1.111   .     S
C1181  H1182   1.111   .     S
C1185  H1186   1.111   .     S
C1185  H1187   1.111   .     S
C1185  H1188   1.106   .     S
C1189  H1191   1.106   .     S
C1189  H1192   1.111   .     S
C1189  H1190   1.111   .     S
N1193  H1194   1.043   .     S
N1193  H1195   1.045   .     S
N1196  H1198   1.045   .     S
N1196  H1197   1.043   .     S
N1199  H1200   1.043   .     S
N1199  H1201   1.044   .     S
N1202  H1204   1.044   .     S
N1202  H1203   1.043   .     S
C1205  C1214   1.476   .     S
C1205  O1243   1.300   .     A
C1205  O1246   1.299   .     A
C1206  O1245   1.299   .     A
C1206  O1244   1.300   .     A
C1206  C1213   1.476   .     S
C1207  C1232   1.410   .     A
C1207  N1257   1.437   .     S
C1208  N1260   1.437   .     S
C1208  C1231   1.410   .     A
C1208  C460    1.410   1_556 S
C1209  C1263   1.517   .     S
C1209  C1214   1.416   .     A
C1210  C1213   1.416   .     A
C1210  C1267   1.517   .     S
C1210  C1040   1.400   1_655 S
C1211  C1213   1.415   .     A
C1211  C1271   1.518   .     S
C1211  C1037   1.400   1_655 S
C1212  C1275   1.518   .     S
C1212  C1214   1.415   .     A
C1215  N1242   1.369   .     A
C1215  N1279   1.432   .     S
C1216  N1241   1.369   .     A
C1216  N1282   1.432   .     S
C1216  C1475   1.428   .     S
C1217  N1285   1.430   .     S
C1217  N1242   1.370   .     A
C1218  N1288   1.430   .     S
C1218  N1241   1.370   .     A
C1218  C1473   1.428   .     S
C1219  C1224   1.459   .     S
C1219  O1247   1.297   .     A
C1219  O1250   1.293   .     A
C1220  O1248   1.297   .     A
C1220  O1249   1.293   .     A
C1220  C1223   1.459   .     S
C1221  H1237   1.078   .     S
C1221  C1231   1.398   .     A
C1221  C1223   1.394   .     A
C1222  C1232   1.398   .     A
C1222  H1238   1.078   .     S
C1222  C1224   1.394   .     A
C1223  C1225   1.396   .     A
C1224  C1226   1.396   .     A
C1225  C1227   1.399   .     A
C1225  H1239   1.084   .     S
C1226  C1228   1.399   .     A
C1226  H1240   1.084   .     S
C1227  C1233   1.410   .     A
C1227  C1229   1.417   .     A
C1228  C1230   1.417   .     A
C1228  C1234   1.410   .     A
C1229  C1231   1.416   .     A
C1229  C456    1.402   1_556 S
C1230  C1232   1.416   .     A
C1233  N1251   1.437   .     S
C1233  C433    1.410   1_556 S
C1234  N1254   1.437   .     S
Cu1235 O1247   1.970   .     S
Cu1235 Cu1236  2.684   .     S
Cu1235 N1241   2.017   .     S
Cu1235 O1245   1.973   .     S
Cu1235 O1243   1.971   .     S
Cu1235 O1249   1.966   .     S
Cu1236 N1242   2.017   .     S
Cu1236 O1248   1.970   .     S
Cu1236 O1250   1.966   .     S
Cu1236 O1244   1.971   .     S
Cu1236 O1246   1.973   .     S
N1251  H1253   1.045   .     S
N1251  H1252   1.044   .     S
N1254  H1256   1.044   .     S
N1254  H1255   1.045   .     S
N1257  H1258   1.045   .     S
N1257  H1259   1.045   .     S
N1260  H1261   1.044   .     S
N1260  H1262   1.045   .     S
C1263  H1266   1.105   .     S
C1263  H1264   1.111   .     S
C1263  H1265   1.111   .     S
C1267  H1269   1.105   .     S
C1267  H1270   1.111   .     S
C1267  H1268   1.111   .     S
C1271  H1272   1.111   .     S
C1271  H1273   1.111   .     S
C1271  H1274   1.106   .     S
C1275  H1277   1.106   .     S
C1275  H1278   1.111   .     S
C1275  H1276   1.111   .     S
N1279  H1280   1.043   .     S
N1279  H1281   1.045   .     S
N1282  H1284   1.045   .     S
N1282  H1283   1.043   .     S
N1285  H1286   1.043   .     S
N1285  H1287   1.044   .     S
N1288  H1290   1.044   .     S
N1288  H1289   1.043   .     S
C1291  C1300   1.476   .     S
C1291  O1329   1.300   .     A
C1291  O1332   1.299   .     A
C1292  O1331   1.299   .     A
C1292  O1330   1.300   .     A
C1292  C1299   1.476   .     S
C1293  C1318   1.410   .     A
C1293  N1343   1.437   .     S
C1294  N1346   1.437   .     S
C1294  C1317   1.410   .     A
C1294  C546    1.410   1_556 S
C1295  C1349   1.517   .     S
C1295  C1300   1.416   .     A
C1295  C1469   1.400   1_455 S
C1296  C1299   1.416   .     A
C1296  C1353   1.517   .     S
C1296  C1384   1.400   .     S
C1297  C1299   1.415   .     A
C1297  C1357   1.518   .     S
C1297  C1381   1.400   .     S
C1298  C1361   1.518   .     S
C1298  C1300   1.415   .     A
C1298  C1468   1.400   1_455 S
C1301  N1328   1.369   .     A
C1301  N1365   1.432   .     S
C1302  N1327   1.369   .     A
C1302  N1368   1.432   .     S
C1302  C787    1.428   1_565 S
C1303  N1371   1.430   .     S
C1303  N1328   1.370   .     A
C1304  N1374   1.430   .     S
C1304  N1327   1.370   .     A
C1304  C785    1.428   1_565 S
C1305  C1310   1.459   .     S
C1305  O1333   1.297   .     A
C1305  O1336   1.293   .     A
C1306  O1334   1.297   .     A
C1306  O1335   1.293   .     A
C1306  C1309   1.459   .     S
C1307  H1323   1.078   .     S
C1307  C1317   1.398   .     A
C1307  C1309   1.394   .     A
C1308  C1318   1.398   .     A
C1308  H1324   1.078   .     S
C1308  C1310   1.394   .     A
C1309  C1311   1.396   .     A
C1310  C1312   1.396   .     A
C1311  C1313   1.399   .     A
C1311  H1325   1.084   .     S
C1312  C1314   1.399   .     A
C1312  H1326   1.084   .     S
C1313  C1319   1.410   .     A
C1313  C1315   1.417   .     A
C1314  C1316   1.417   .     A
C1314  C1320   1.410   .     A
C1315  C1317   1.416   .     A
C1315  C542    1.402   1_556 S
C1316  C1318   1.416   .     A
C1319  N1337   1.437   .     S
C1319  C519    1.410   1_556 S
C1320  N1340   1.437   .     S
Cu1321 O1333   1.970   .     S
Cu1321 Cu1322  2.684   .     S
Cu1321 N1327   2.017   .     S
Cu1321 O1331   1.973   .     S
Cu1321 O1329   1.971   .     S
Cu1321 O1335   1.966   .     S
Cu1322 N1328   2.017   .     S
Cu1322 O1334   1.970   .     S
Cu1322 O1336   1.966   .     S
Cu1322 O1330   1.971   .     S
Cu1322 O1332   1.973   .     S
N1337  H1339   1.045   .     S
N1337  H1338   1.044   .     S
N1340  H1342   1.044   .     S
N1340  H1341   1.045   .     S
N1343  H1344   1.045   .     S
N1343  H1345   1.045   .     S
N1346  H1347   1.044   .     S
N1346  H1348   1.045   .     S
C1349  H1352   1.105   .     S
C1349  H1350   1.111   .     S
C1349  H1351   1.111   .     S
C1353  H1355   1.105   .     S
C1353  H1356   1.111   .     S
C1353  H1354   1.111   .     S
C1357  H1358   1.111   .     S
C1357  H1359   1.111   .     S
C1357  H1360   1.106   .     S
C1361  H1363   1.106   .     S
C1361  H1364   1.111   .     S
C1361  H1362   1.111   .     S
N1365  H1366   1.043   .     S
N1365  H1367   1.045   .     S
N1368  H1370   1.045   .     S
N1368  H1369   1.043   .     S
N1371  H1372   1.043   .     S
N1371  H1373   1.044   .     S
N1374  H1376   1.044   .     S
N1374  H1375   1.043   .     S
C1377  C1386   1.476   .     S
C1377  O1415   1.300   .     A
C1377  O1418   1.299   .     A
C1378  O1417   1.299   .     A
C1378  O1416   1.300   .     A
C1378  C1385   1.476   .     S
C1379  C1404   1.410   .     A
C1379  N1429   1.437   .     S
C1380  N1432   1.437   .     S
C1380  C1403   1.410   .     A
C1380  C632    1.410   1_556 S
C1381  C1435   1.517   .     S
C1381  C1386   1.416   .     A
C1382  C1385   1.416   .     A
C1382  C1439   1.517   .     S
C1382  C1470   1.400   .     S
C1383  C1385   1.415   .     A
C1383  C1443   1.518   .     S
C1383  C1467   1.400   .     S
C1384  C1447   1.518   .     S
C1384  C1386   1.415   .     A
C1387  N1414   1.369   .     A
C1387  N1451   1.432   .     S
C1388  N1413   1.369   .     A
C1388  N1454   1.432   .     S
C1388  C873    1.428   1_565 S
C1389  N1457   1.430   .     S
C1389  N1414   1.370   .     A
C1390  N1460   1.430   .     S
C1390  N1413   1.370   .     A
C1390  C871    1.428   1_565 S
C1391  C1396   1.459   .     S
C1391  O1419   1.297   .     A
C1391  O1422   1.293   .     A
C1392  O1420   1.297   .     A
C1392  O1421   1.293   .     A
C1392  C1395   1.459   .     S
C1393  H1409   1.078   .     S
C1393  C1403   1.398   .     A
C1393  C1395   1.394   .     A
C1394  C1404   1.398   .     A
C1394  H1410   1.078   .     S
C1394  C1396   1.394   .     A
C1395  C1397   1.396   .     A
C1396  C1398   1.396   .     A
C1397  C1399   1.399   .     A
C1397  H1411   1.084   .     S
C1398  C1400   1.399   .     A
C1398  H1412   1.084   .     S
C1399  C1405   1.410   .     A
C1399  C1401   1.417   .     A
C1400  C1402   1.417   .     A
C1400  C1406   1.410   .     A
C1401  C1403   1.416   .     A
C1401  C628    1.402   1_556 S
C1402  C1404   1.416   .     A
C1405  N1423   1.437   .     S
C1405  C605    1.410   1_556 S
C1406  N1426   1.437   .     S
Cu1407 O1419   1.970   .     S
Cu1407 Cu1408  2.684   .     S
Cu1407 N1413   2.017   .     S
Cu1407 O1417   1.973   .     S
Cu1407 O1415   1.971   .     S
Cu1407 O1421   1.966   .     S
Cu1408 N1414   2.017   .     S
Cu1408 O1420   1.970   .     S
Cu1408 O1422   1.966   .     S
Cu1408 O1416   1.971   .     S
Cu1408 O1418   1.973   .     S
N1423  H1425   1.045   .     S
N1423  H1424   1.044   .     S
N1426  H1428   1.044   .     S
N1426  H1427   1.045   .     S
N1429  H1430   1.045   .     S
N1429  H1431   1.045   .     S
N1432  H1433   1.044   .     S
N1432  H1434   1.045   .     S
C1435  H1438   1.105   .     S
C1435  H1436   1.111   .     S
C1435  H1437   1.111   .     S
C1439  H1441   1.105   .     S
C1439  H1442   1.111   .     S
C1439  H1440   1.111   .     S
C1443  H1444   1.111   .     S
C1443  H1445   1.111   .     S
C1443  H1446   1.106   .     S
C1447  H1449   1.106   .     S
C1447  H1450   1.111   .     S
C1447  H1448   1.111   .     S
N1451  H1452   1.043   .     S
N1451  H1453   1.045   .     S
N1454  H1456   1.045   .     S
N1454  H1455   1.043   .     S
N1457  H1458   1.043   .     S
N1457  H1459   1.044   .     S
N1460  H1462   1.044   .     S
N1460  H1461   1.043   .     S
C1463  C1472   1.476   .     S
C1463  O1501   1.300   .     A
C1463  O1504   1.299   .     A
C1464  O1503   1.299   .     A
C1464  O1502   1.300   .     A
C1464  C1471   1.476   .     S
C1465  C1490   1.410   .     A
C1465  N1515   1.437   .     S
C1466  N1518   1.437   .     S
C1466  C1489   1.410   .     A
C1466  C718    1.410   1_556 S
C1467  C1521   1.517   .     S
C1467  C1472   1.416   .     A
C1468  C1471   1.416   .     A
C1468  C1525   1.517   .     S
C1468  C1298   1.400   1_655 S
C1469  C1471   1.415   .     A
C1469  C1529   1.518   .     S
C1469  C1295   1.400   1_655 S
C1470  C1533   1.518   .     S
C1470  C1472   1.415   .     A
C1473  N1500   1.369   .     A
C1473  N1537   1.432   .     S
C1474  N1499   1.369   .     A
C1474  N1540   1.432   .     S
C1474  C959    1.428   1_565 S
C1475  N1543   1.430   .     S
C1475  N1500   1.370   .     A
C1476  N1546   1.430   .     S
C1476  N1499   1.370   .     A
C1476  C957    1.428   1_565 S
C1477  C1482   1.459   .     S
C1477  O1505   1.297   .     A
C1477  O1508   1.293   .     A
C1478  O1506   1.297   .     A
C1478  O1507   1.293   .     A
C1478  C1481   1.459   .     S
C1479  H1495   1.078   .     S
C1479  C1489   1.398   .     A
C1479  C1481   1.394   .     A
C1480  C1490   1.398   .     A
C1480  H1496   1.078   .     S
C1480  C1482   1.394   .     A
C1481  C1483   1.396   .     A
C1482  C1484   1.396   .     A
C1483  C1485   1.399   .     A
C1483  H1497   1.084   .     S
C1484  C1486   1.399   .     A
C1484  H1498   1.084   .     S
C1485  C1491   1.410   .     A
C1485  C1487   1.417   .     A
C1486  C1488   1.417   .     A
C1486  C1492   1.410   .     A
C1487  C1489   1.416   .     A
C1487  C714    1.402   1_556 S
C1488  C1490   1.416   .     A
C1491  N1509   1.437   .     S
C1491  C691    1.410   1_556 S
C1492  N1512   1.437   .     S
Cu1493 O1505   1.970   .     S
Cu1493 Cu1494  2.684   .     S
Cu1493 N1499   2.017   .     S
Cu1493 O1503   1.973   .     S
Cu1493 O1501   1.971   .     S
Cu1493 O1507   1.966   .     S
Cu1494 N1500   2.017   .     S
Cu1494 O1506   1.970   .     S
Cu1494 O1508   1.966   .     S
Cu1494 O1502   1.971   .     S
Cu1494 O1504   1.973   .     S
N1509  H1511   1.045   .     S
N1509  H1510   1.044   .     S
N1512  H1514   1.044   .     S
N1512  H1513   1.045   .     S
N1515  H1516   1.045   .     S
N1515  H1517   1.045   .     S
N1518  H1519   1.044   .     S
N1518  H1520   1.045   .     S
C1521  H1524   1.105   .     S
C1521  H1522   1.111   .     S
C1521  H1523   1.111   .     S
C1525  H1527   1.105   .     S
C1525  H1528   1.111   .     S
C1525  H1526   1.111   .     S
C1529  H1530   1.111   .     S
C1529  H1531   1.111   .     S
C1529  H1532   1.106   .     S
C1533  H1535   1.106   .     S
C1533  H1536   1.111   .     S
C1533  H1534   1.111   .     S
N1537  H1538   1.043   .     S
N1537  H1539   1.045   .     S
N1540  H1542   1.045   .     S
N1540  H1541   1.043   .     S
N1543  H1544   1.043   .     S
N1543  H1545   1.044   .     S
N1546  H1548   1.044   .     S
N1546  H1547   1.043   .     S
