data_str_m2_o1_o16_pcu_sym.36
_audit_creation_date              2020-01-03
_audit_creation_method            'Materials Studio'
_symmetry_space_group_name_H-M    'P1'
_symmetry_Int_Tables_number       1
_symmetry_cell_setting            triclinic
loop_
_symmetry_equiv_pos_as_xyz
  x,y,z
_cell_length_a                    28.8868
_cell_length_b                    32.3466
_cell_length_c                    27.2229
_cell_angle_alpha                 93.7822
_cell_angle_beta                  74.2280
_cell_angle_gamma                 90.2466
loop_
_atom_site_label
_atom_site_type_symbol
_atom_site_fract_x
_atom_site_fract_y
_atom_site_fract_z
_atom_site_U_iso_or_equiv
_atom_site_adp_type
_atom_site_occupancy
O1     O     0.12708   0.22678   0.25000   0.00000  Uiso   1.00
O2     O     0.20627   0.22679   0.25000   0.00000  Uiso   1.00
C3     C     0.16627   0.24580   0.25186   0.00000  Uiso   1.00
O4     O     0.10775   0.16665   0.32549   0.00000  Uiso   1.00
O5     O     0.18694   0.16666   0.32549   0.00000  Uiso   1.00
C6     C     0.14187   0.16281   0.34883   0.00000  Uiso   1.00
Cu7    Cu    0.11978   0.16666   0.25000   0.00000  Uiso   1.00
Cu8    Cu    0.21355   0.16667   0.25000   0.00000  Uiso   1.00
O9     O     0.12706   0.10654   0.24999   0.00000  Uiso   1.00
O10    O     0.20625   0.10655   0.24999   0.00000  Uiso   1.00
O11    O     0.14640   0.16667   0.17451   0.00000  Uiso   1.00
O12    O     0.22559   0.16668   0.17451   0.00000  Uiso   1.00
C13    C     0.16615   0.08758   0.25126   0.00000  Uiso   1.00
C14    C     0.19186   0.16793   0.15085   0.00000  Uiso   1.00
C15    C     0.26295   0.18422   0.01660   0.00000  Uiso   1.00
H16    H     0.27605   0.19403   0.09000   0.00000  Uiso   1.00
H17    H     0.28465   0.16613   0.41702   0.00000  Uiso   1.00
H18    H     0.29894   0.19345   0.49676   0.00000  Uiso   1.00
C19    C     0.20467   0.17078   0.09549   0.00000  Uiso   1.00
C20    C     0.08213   0.14382   0.42691   0.00000  Uiso   1.00
C21    C     0.06763   0.13590   0.47830   0.00000  Uiso   1.00
C22    C     0.09974   0.14241   0.00848   0.00000  Uiso   1.00
C23    C     0.14853   0.15215   0.48609   0.00000  Uiso   1.00
C24    C     0.16459   0.15259   0.43194   0.00000  Uiso   1.00
C25    C     0.18236   0.16097   0.01513   0.00000  Uiso   1.00
C26    C     0.23055   0.17041   0.48936   0.00000  Uiso   1.00
C27    C     0.24678   0.16364   0.43674   0.00000  Uiso   1.00
C28    C     0.21485   0.15199   0.40896   0.00000  Uiso   1.00
C29    C     0.17038   0.16098   0.06869   0.00000  Uiso   1.00
C30    C     0.25008   0.18435   0.06952   0.00000  Uiso   1.00
C31    C     0.12987   0.15306   0.40318   0.00000  Uiso   1.00
H32    H     0.13498   0.15272   0.09036   0.00000  Uiso   1.00
H33    H     0.05589   0.14207   0.40502   0.00000  Uiso   1.00
H34    H     0.08606   0.13825   0.04874   0.00000  Uiso   1.00
H35    H     0.23138   0.14157   0.36982   0.00000  Uiso   1.00
C36    C     0.20160   0.31017   0.21994   0.00000  Uiso   1.00
H37    H     0.22952   0.29235   0.19194   0.00000  Uiso   1.00
C38    C     0.20104   0.01936   0.21903   0.00000  Uiso   1.00
H39    H     0.22853   0.03365   0.19025   0.00000  Uiso   1.00
C40    C     0.16488   0.04298   0.25388   0.00000  Uiso   1.00
C41    C     0.12886   0.02386   0.29118   0.00000  Uiso   1.00
C42    C     0.12902   0.31363   0.29182   0.00000  Uiso   1.00
C43    C     0.16559   0.29056   0.25526   0.00000  Uiso   1.00
C44    C     0.30194   0.19657   0.27821   0.00000  Uiso   1.00
C45    C     0.01811   0.19674   0.27718   0.00000  Uiso   1.00
H46    H     0.03136   0.22107   0.29878   0.00000  Uiso   1.00
N47    N     0.04931   0.16666   0.24998   0.00000  Uiso   1.00
C48    C     0.03184   0.13630   0.22272   0.00000  Uiso   1.00
C49    C     0.31720   0.13855   0.21818   0.00000  Uiso   1.00
N50    N     0.28402   0.16669   0.24999   0.00000  Uiso   1.00
C51    C     0.09422   0.04917   0.33223   0.00000  Uiso   1.00
O52    O     0.09849   0.05095   0.37577   0.00000  Uiso   1.00
O53    O     0.05595   0.06957   0.32148   0.00000  Uiso   1.00
H54    H     0.03404   0.08483   0.35285   0.00000  Uiso   1.00
C55    C     0.09225   0.29247   0.33127   0.00000  Uiso   1.00
O56    O     0.04988   0.30291   0.34146   0.00000  Uiso   1.00
O57    O     0.10625   0.26070   0.35684   0.00000  Uiso   1.00
H58    H     0.07807   0.24866   0.38257   0.00000  Uiso   1.00
N59    N     0.27248   0.23084   0.30466   0.00000  Uiso   1.00
O60    O     0.24351   0.22684   0.34976   0.00000  Uiso   1.00
O61    O     0.28332   0.26792   0.28979   0.00000  Uiso   1.00
C62    C     0.06135   0.09889   0.20034   0.00000  Uiso   1.00
O63    O     0.09702   0.10113   0.16425   0.00000  Uiso   1.00
O64    O     0.04587   0.06032   0.21834   0.00000  Uiso   1.00
H65    H     0.06836   0.03684   0.19986   0.00000  Uiso   1.00
C66    C     0.30834   0.11302   0.17326   0.00000  Uiso   1.00
O67    O     0.26924   0.09966   0.17299   0.00000  Uiso   1.00
O68    O     0.01357   0.10234   0.13065   0.00000  Uiso   1.00
H69    H     0.00588   0.07851   0.10814   0.00000  Uiso   1.00
C70    C     0.01848   0.12082   0.49974   0.00000  Uiso   1.00
O71    O     0.33228   0.12650   0.04533   0.00000  Uiso   1.00
O72    O     0.32731   0.10038   0.46764   0.00000  Uiso   1.00
H73    H     0.29393   0.09155   0.48686   0.00000  Uiso   1.00
O74    O     0.46042   0.22678   0.25000   0.00000  Uiso   1.00
O75    O     0.53961   0.22679   0.25000   0.00000  Uiso   1.00
C76    C     0.49961   0.24580   0.25186   0.00000  Uiso   1.00
O77    O     0.44108   0.16665   0.32549   0.00000  Uiso   1.00
O78    O     0.52027   0.16666   0.32549   0.00000  Uiso   1.00
C79    C     0.47521   0.16281   0.34883   0.00000  Uiso   1.00
Cu80   Cu    0.45311   0.16666   0.25000   0.00000  Uiso   1.00
Cu81   Cu    0.54689   0.16667   0.25000   0.00000  Uiso   1.00
O82    O     0.46039   0.10654   0.24999   0.00000  Uiso   1.00
O83    O     0.53958   0.10655   0.24999   0.00000  Uiso   1.00
O84    O     0.47973   0.16667   0.17451   0.00000  Uiso   1.00
O85    O     0.55892   0.16668   0.17451   0.00000  Uiso   1.00
C86    C     0.49948   0.08758   0.25126   0.00000  Uiso   1.00
C87    C     0.52519   0.16793   0.15085   0.00000  Uiso   1.00
C88    C     0.59628   0.18422   0.01660   0.00000  Uiso   1.00
H89    H     0.60938   0.19403   0.09000   0.00000  Uiso   1.00
H90    H     0.61798   0.16613   0.41702   0.00000  Uiso   1.00
H91    H     0.63228   0.19345   0.49676   0.00000  Uiso   1.00
C92    C     0.53800   0.17078   0.09549   0.00000  Uiso   1.00
C93    C     0.41547   0.14382   0.42691   0.00000  Uiso   1.00
C94    C     0.40096   0.13590   0.47830   0.00000  Uiso   1.00
C95    C     0.43307   0.14241   0.00848   0.00000  Uiso   1.00
C96    C     0.48186   0.15215   0.48609   0.00000  Uiso   1.00
C97    C     0.49793   0.15259   0.43194   0.00000  Uiso   1.00
C98    C     0.51569   0.16097   0.01513   0.00000  Uiso   1.00
C99    C     0.56388   0.17041   0.48936   0.00000  Uiso   1.00
C100   C     0.58011   0.16364   0.43674   0.00000  Uiso   1.00
C101   C     0.54819   0.15199   0.40896   0.00000  Uiso   1.00
C102   C     0.50371   0.16098   0.06869   0.00000  Uiso   1.00
C103   C     0.58341   0.18435   0.06952   0.00000  Uiso   1.00
C104   C     0.46320   0.15306   0.40318   0.00000  Uiso   1.00
H105   H     0.46831   0.15272   0.09036   0.00000  Uiso   1.00
H106   H     0.38923   0.14207   0.40502   0.00000  Uiso   1.00
H107   H     0.41939   0.13825   0.04874   0.00000  Uiso   1.00
H108   H     0.56471   0.14157   0.36982   0.00000  Uiso   1.00
C109   C     0.53493   0.31017   0.21994   0.00000  Uiso   1.00
H110   H     0.56285   0.29235   0.19194   0.00000  Uiso   1.00
C111   C     0.53437   0.01936   0.21903   0.00000  Uiso   1.00
H112   H     0.56186   0.03365   0.19025   0.00000  Uiso   1.00
C113   C     0.49821   0.04298   0.25388   0.00000  Uiso   1.00
C114   C     0.46219   0.02386   0.29118   0.00000  Uiso   1.00
C115   C     0.46235   0.31363   0.29182   0.00000  Uiso   1.00
C116   C     0.49892   0.29056   0.25526   0.00000  Uiso   1.00
C117   C     0.63527   0.19657   0.27821   0.00000  Uiso   1.00
C118   C     0.35145   0.19674   0.27718   0.00000  Uiso   1.00
H119   H     0.36469   0.22107   0.29878   0.00000  Uiso   1.00
N120   N     0.38265   0.16666   0.24998   0.00000  Uiso   1.00
C121   C     0.36517   0.13630   0.22272   0.00000  Uiso   1.00
C122   C     0.65054   0.13855   0.21818   0.00000  Uiso   1.00
N123   N     0.61735   0.16669   0.24999   0.00000  Uiso   1.00
C124   C     0.42755   0.04917   0.33223   0.00000  Uiso   1.00
O125   O     0.43182   0.05095   0.37577   0.00000  Uiso   1.00
O126   O     0.38928   0.06957   0.32148   0.00000  Uiso   1.00
H127   H     0.36737   0.08483   0.35285   0.00000  Uiso   1.00
C128   C     0.42559   0.29247   0.33127   0.00000  Uiso   1.00
O129   O     0.38321   0.30291   0.34146   0.00000  Uiso   1.00
O130   O     0.43958   0.26070   0.35684   0.00000  Uiso   1.00
H131   H     0.41141   0.24866   0.38257   0.00000  Uiso   1.00
N132   N     0.60582   0.23084   0.30466   0.00000  Uiso   1.00
O133   O     0.57684   0.22684   0.34976   0.00000  Uiso   1.00
O134   O     0.61666   0.26792   0.28979   0.00000  Uiso   1.00
C135   C     0.39468   0.09889   0.20034   0.00000  Uiso   1.00
O136   O     0.43036   0.10113   0.16425   0.00000  Uiso   1.00
O137   O     0.37920   0.06032   0.21834   0.00000  Uiso   1.00
H138   H     0.40169   0.03684   0.19986   0.00000  Uiso   1.00
C139   C     0.64168   0.11302   0.17326   0.00000  Uiso   1.00
O140   O     0.60257   0.09966   0.17299   0.00000  Uiso   1.00
O141   O     0.34690   0.10234   0.13065   0.00000  Uiso   1.00
H142   H     0.33922   0.07851   0.10814   0.00000  Uiso   1.00
C143   C     0.35181   0.12082   0.49974   0.00000  Uiso   1.00
O144   O     0.66562   0.12650   0.04533   0.00000  Uiso   1.00
O145   O     0.66064   0.10038   0.46764   0.00000  Uiso   1.00
H146   H     0.62726   0.09155   0.48686   0.00000  Uiso   1.00
O147   O     0.79375   0.22678   0.25000   0.00000  Uiso   1.00
O148   O     0.87294   0.22679   0.25000   0.00000  Uiso   1.00
C149   C     0.83294   0.24580   0.25186   0.00000  Uiso   1.00
O150   O     0.77441   0.16665   0.32549   0.00000  Uiso   1.00
O151   O     0.85360   0.16666   0.32549   0.00000  Uiso   1.00
C152   C     0.80854   0.16281   0.34883   0.00000  Uiso   1.00
Cu153  Cu    0.78645   0.16666   0.25000   0.00000  Uiso   1.00
Cu154  Cu    0.88022   0.16667   0.25000   0.00000  Uiso   1.00
O155   O     0.79373   0.10654   0.24999   0.00000  Uiso   1.00
O156   O     0.87292   0.10655   0.24999   0.00000  Uiso   1.00
O157   O     0.81306   0.16667   0.17451   0.00000  Uiso   1.00
O158   O     0.89225   0.16668   0.17451   0.00000  Uiso   1.00
C159   C     0.83281   0.08758   0.25126   0.00000  Uiso   1.00
C160   C     0.85852   0.16793   0.15085   0.00000  Uiso   1.00
C161   C     0.92962   0.18422   0.01660   0.00000  Uiso   1.00
H162   H     0.94272   0.19403   0.09000   0.00000  Uiso   1.00
H163   H     0.95132   0.16613   0.41702   0.00000  Uiso   1.00
H164   H     0.96561   0.19345   0.49676   0.00000  Uiso   1.00
C165   C     0.87133   0.17078   0.09549   0.00000  Uiso   1.00
C166   C     0.74880   0.14382   0.42691   0.00000  Uiso   1.00
C167   C     0.73429   0.13590   0.47830   0.00000  Uiso   1.00
C168   C     0.76641   0.14241   0.00848   0.00000  Uiso   1.00
C169   C     0.81519   0.15215   0.48609   0.00000  Uiso   1.00
C170   C     0.83126   0.15259   0.43194   0.00000  Uiso   1.00
C171   C     0.84903   0.16097   0.01513   0.00000  Uiso   1.00
C172   C     0.89721   0.17041   0.48936   0.00000  Uiso   1.00
C173   C     0.91344   0.16364   0.43674   0.00000  Uiso   1.00
C174   C     0.88152   0.15199   0.40896   0.00000  Uiso   1.00
C175   C     0.83704   0.16098   0.06869   0.00000  Uiso   1.00
C176   C     0.91675   0.18435   0.06952   0.00000  Uiso   1.00
C177   C     0.79654   0.15306   0.40318   0.00000  Uiso   1.00
H178   H     0.80165   0.15272   0.09036   0.00000  Uiso   1.00
H179   H     0.72256   0.14207   0.40502   0.00000  Uiso   1.00
H180   H     0.75272   0.13825   0.04874   0.00000  Uiso   1.00
H181   H     0.89804   0.14157   0.36982   0.00000  Uiso   1.00
C182   C     0.86827   0.31017   0.21994   0.00000  Uiso   1.00
H183   H     0.89619   0.29235   0.19194   0.00000  Uiso   1.00
C184   C     0.86770   0.01936   0.21903   0.00000  Uiso   1.00
H185   H     0.89520   0.03365   0.19025   0.00000  Uiso   1.00
C186   C     0.83155   0.04298   0.25388   0.00000  Uiso   1.00
C187   C     0.79553   0.02386   0.29118   0.00000  Uiso   1.00
C188   C     0.79569   0.31363   0.29182   0.00000  Uiso   1.00
C189   C     0.83225   0.29056   0.25526   0.00000  Uiso   1.00
C190   C     0.96860   0.19657   0.27821   0.00000  Uiso   1.00
C191   C     0.68478   0.19674   0.27718   0.00000  Uiso   1.00
H192   H     0.69803   0.22107   0.29878   0.00000  Uiso   1.00
N193   N     0.71598   0.16666   0.24998   0.00000  Uiso   1.00
C194   C     0.69850   0.13630   0.22272   0.00000  Uiso   1.00
C195   C     0.98387   0.13855   0.21818   0.00000  Uiso   1.00
N196   N     0.95069   0.16669   0.24999   0.00000  Uiso   1.00
C197   C     0.76088   0.04917   0.33223   0.00000  Uiso   1.00
O198   O     0.76515   0.05095   0.37577   0.00000  Uiso   1.00
O199   O     0.72261   0.06957   0.32148   0.00000  Uiso   1.00
H200   H     0.70071   0.08483   0.35285   0.00000  Uiso   1.00
C201   C     0.75892   0.29247   0.33127   0.00000  Uiso   1.00
O202   O     0.71654   0.30291   0.34146   0.00000  Uiso   1.00
O203   O     0.77291   0.26070   0.35684   0.00000  Uiso   1.00
H204   H     0.74474   0.24866   0.38257   0.00000  Uiso   1.00
N205   N     0.93915   0.23084   0.30466   0.00000  Uiso   1.00
O206   O     0.91018   0.22684   0.34976   0.00000  Uiso   1.00
O207   O     0.94999   0.26792   0.28979   0.00000  Uiso   1.00
C208   C     0.72801   0.09889   0.20034   0.00000  Uiso   1.00
O209   O     0.76369   0.10113   0.16425   0.00000  Uiso   1.00
O210   O     0.71253   0.06032   0.21834   0.00000  Uiso   1.00
H211   H     0.73502   0.03684   0.19986   0.00000  Uiso   1.00
C212   C     0.97501   0.11302   0.17326   0.00000  Uiso   1.00
O213   O     0.93590   0.09966   0.17299   0.00000  Uiso   1.00
O214   O     0.68024   0.10234   0.13065   0.00000  Uiso   1.00
H215   H     0.67255   0.07851   0.10814   0.00000  Uiso   1.00
C216   C     0.68515   0.12082   0.49974   0.00000  Uiso   1.00
O217   O     0.99895   0.12650   0.04533   0.00000  Uiso   1.00
O218   O     0.99398   0.10038   0.46764   0.00000  Uiso   1.00
H219   H     0.96060   0.09155   0.48686   0.00000  Uiso   1.00
O220   O     0.12708   0.56011   0.25000   0.00000  Uiso   1.00
O221   O     0.20627   0.56012   0.25000   0.00000  Uiso   1.00
C222   C     0.16627   0.57913   0.25186   0.00000  Uiso   1.00
O223   O     0.10775   0.49998   0.32549   0.00000  Uiso   1.00
O224   O     0.18694   0.49999   0.32549   0.00000  Uiso   1.00
C225   C     0.14187   0.49615   0.34883   0.00000  Uiso   1.00
Cu226  Cu    0.11978   0.49999   0.25000   0.00000  Uiso   1.00
Cu227  Cu    0.21355   0.50001   0.25000   0.00000  Uiso   1.00
O228   O     0.12706   0.43988   0.24999   0.00000  Uiso   1.00
O229   O     0.20625   0.43989   0.24999   0.00000  Uiso   1.00
O230   O     0.14640   0.50001   0.17451   0.00000  Uiso   1.00
O231   O     0.22559   0.50002   0.17451   0.00000  Uiso   1.00
C232   C     0.16615   0.42092   0.25126   0.00000  Uiso   1.00
C233   C     0.19186   0.50126   0.15085   0.00000  Uiso   1.00
C234   C     0.26295   0.51756   0.01660   0.00000  Uiso   1.00
H235   H     0.27605   0.52736   0.09000   0.00000  Uiso   1.00
H236   H     0.28465   0.49946   0.41702   0.00000  Uiso   1.00
H237   H     0.29894   0.52678   0.49676   0.00000  Uiso   1.00
C238   C     0.20467   0.50411   0.09549   0.00000  Uiso   1.00
C239   C     0.08213   0.47716   0.42691   0.00000  Uiso   1.00
C240   C     0.06763   0.46924   0.47830   0.00000  Uiso   1.00
C241   C     0.09974   0.47574   0.00848   0.00000  Uiso   1.00
C242   C     0.14853   0.48548   0.48609   0.00000  Uiso   1.00
C243   C     0.16459   0.48592   0.43194   0.00000  Uiso   1.00
C244   C     0.18236   0.49430   0.01513   0.00000  Uiso   1.00
C245   C     0.23055   0.50374   0.48936   0.00000  Uiso   1.00
C246   C     0.24678   0.49698   0.43674   0.00000  Uiso   1.00
C247   C     0.21485   0.48533   0.40896   0.00000  Uiso   1.00
C248   C     0.17038   0.49431   0.06869   0.00000  Uiso   1.00
C249   C     0.25008   0.51769   0.06952   0.00000  Uiso   1.00
C250   C     0.12987   0.48639   0.40318   0.00000  Uiso   1.00
H251   H     0.13498   0.48605   0.09036   0.00000  Uiso   1.00
H252   H     0.05589   0.47541   0.40502   0.00000  Uiso   1.00
H253   H     0.08606   0.47158   0.04874   0.00000  Uiso   1.00
H254   H     0.23138   0.47490   0.36982   0.00000  Uiso   1.00
C255   C     0.20160   0.64351   0.21994   0.00000  Uiso   1.00
H256   H     0.22952   0.62569   0.19194   0.00000  Uiso   1.00
C257   C     0.20104   0.35270   0.21903   0.00000  Uiso   1.00
H258   H     0.22853   0.36698   0.19025   0.00000  Uiso   1.00
C259   C     0.16488   0.37631   0.25388   0.00000  Uiso   1.00
C260   C     0.12886   0.35719   0.29118   0.00000  Uiso   1.00
C261   C     0.12902   0.64696   0.29182   0.00000  Uiso   1.00
C262   C     0.16559   0.62389   0.25526   0.00000  Uiso   1.00
C263   C     0.30194   0.52990   0.27821   0.00000  Uiso   1.00
C264   C     0.01811   0.53008   0.27718   0.00000  Uiso   1.00
H265   H     0.03136   0.55440   0.29878   0.00000  Uiso   1.00
N266   N     0.04931   0.49999   0.24998   0.00000  Uiso   1.00
C267   C     0.03184   0.46963   0.22272   0.00000  Uiso   1.00
C268   C     0.31720   0.47189   0.21818   0.00000  Uiso   1.00
N269   N     0.28402   0.50002   0.24999   0.00000  Uiso   1.00
C270   C     0.09422   0.38250   0.33223   0.00000  Uiso   1.00
O271   O     0.09849   0.38428   0.37577   0.00000  Uiso   1.00
O272   O     0.05595   0.40291   0.32148   0.00000  Uiso   1.00
H273   H     0.03404   0.41816   0.35285   0.00000  Uiso   1.00
C274   C     0.09225   0.62580   0.33127   0.00000  Uiso   1.00
O275   O     0.04988   0.63625   0.34146   0.00000  Uiso   1.00
O276   O     0.10625   0.59404   0.35684   0.00000  Uiso   1.00
H277   H     0.07807   0.58199   0.38257   0.00000  Uiso   1.00
N278   N     0.27248   0.56417   0.30466   0.00000  Uiso   1.00
O279   O     0.24351   0.56017   0.34976   0.00000  Uiso   1.00
O280   O     0.28332   0.60125   0.28979   0.00000  Uiso   1.00
C281   C     0.06135   0.43223   0.20034   0.00000  Uiso   1.00
O282   O     0.09702   0.43446   0.16425   0.00000  Uiso   1.00
O283   O     0.04587   0.39365   0.21834   0.00000  Uiso   1.00
H284   H     0.06836   0.37017   0.19986   0.00000  Uiso   1.00
C285   C     0.30834   0.44635   0.17326   0.00000  Uiso   1.00
O286   O     0.26924   0.43299   0.17299   0.00000  Uiso   1.00
O287   O     0.01357   0.43567   0.13065   0.00000  Uiso   1.00
H288   H     0.00588   0.41185   0.10814   0.00000  Uiso   1.00
C289   C     0.01848   0.45415   0.49974   0.00000  Uiso   1.00
O290   O     0.33228   0.45983   0.04533   0.00000  Uiso   1.00
O291   O     0.32731   0.43372   0.46764   0.00000  Uiso   1.00
H292   H     0.29393   0.42488   0.48686   0.00000  Uiso   1.00
O293   O     0.46042   0.56011   0.25000   0.00000  Uiso   1.00
O294   O     0.53961   0.56012   0.25000   0.00000  Uiso   1.00
C295   C     0.49961   0.57913   0.25186   0.00000  Uiso   1.00
O296   O     0.44108   0.49998   0.32549   0.00000  Uiso   1.00
O297   O     0.52027   0.49999   0.32549   0.00000  Uiso   1.00
C298   C     0.47521   0.49615   0.34883   0.00000  Uiso   1.00
Cu299  Cu    0.45311   0.49999   0.25000   0.00000  Uiso   1.00
Cu300  Cu    0.54689   0.50001   0.25000   0.00000  Uiso   1.00
O301   O     0.46039   0.43988   0.24999   0.00000  Uiso   1.00
O302   O     0.53958   0.43989   0.24999   0.00000  Uiso   1.00
O303   O     0.47973   0.50001   0.17451   0.00000  Uiso   1.00
O304   O     0.55892   0.50002   0.17451   0.00000  Uiso   1.00
C305   C     0.49948   0.42092   0.25126   0.00000  Uiso   1.00
C306   C     0.52519   0.50126   0.15085   0.00000  Uiso   1.00
C307   C     0.59628   0.51756   0.01660   0.00000  Uiso   1.00
H308   H     0.60938   0.52736   0.09000   0.00000  Uiso   1.00
H309   H     0.61798   0.49946   0.41702   0.00000  Uiso   1.00
H310   H     0.63228   0.52678   0.49676   0.00000  Uiso   1.00
C311   C     0.53800   0.50411   0.09549   0.00000  Uiso   1.00
C312   C     0.41547   0.47716   0.42691   0.00000  Uiso   1.00
C313   C     0.40096   0.46924   0.47830   0.00000  Uiso   1.00
C314   C     0.43307   0.47574   0.00848   0.00000  Uiso   1.00
C315   C     0.48186   0.48548   0.48609   0.00000  Uiso   1.00
C316   C     0.49793   0.48592   0.43194   0.00000  Uiso   1.00
C317   C     0.51569   0.49430   0.01513   0.00000  Uiso   1.00
C318   C     0.56388   0.50374   0.48936   0.00000  Uiso   1.00
C319   C     0.58011   0.49698   0.43674   0.00000  Uiso   1.00
C320   C     0.54819   0.48533   0.40896   0.00000  Uiso   1.00
C321   C     0.50371   0.49431   0.06869   0.00000  Uiso   1.00
C322   C     0.58341   0.51769   0.06952   0.00000  Uiso   1.00
C323   C     0.46320   0.48639   0.40318   0.00000  Uiso   1.00
H324   H     0.46831   0.48605   0.09036   0.00000  Uiso   1.00
H325   H     0.38923   0.47541   0.40502   0.00000  Uiso   1.00
H326   H     0.41939   0.47158   0.04874   0.00000  Uiso   1.00
H327   H     0.56471   0.47490   0.36982   0.00000  Uiso   1.00
C328   C     0.53493   0.64351   0.21994   0.00000  Uiso   1.00
H329   H     0.56285   0.62569   0.19194   0.00000  Uiso   1.00
C330   C     0.53437   0.35270   0.21903   0.00000  Uiso   1.00
H331   H     0.56186   0.36698   0.19025   0.00000  Uiso   1.00
C332   C     0.49821   0.37631   0.25388   0.00000  Uiso   1.00
C333   C     0.46219   0.35719   0.29118   0.00000  Uiso   1.00
C334   C     0.46235   0.64696   0.29182   0.00000  Uiso   1.00
C335   C     0.49892   0.62389   0.25526   0.00000  Uiso   1.00
C336   C     0.63527   0.52990   0.27821   0.00000  Uiso   1.00
C337   C     0.35145   0.53008   0.27718   0.00000  Uiso   1.00
H338   H     0.36469   0.55440   0.29878   0.00000  Uiso   1.00
N339   N     0.38265   0.49999   0.24998   0.00000  Uiso   1.00
C340   C     0.36517   0.46963   0.22272   0.00000  Uiso   1.00
C341   C     0.65054   0.47189   0.21818   0.00000  Uiso   1.00
N342   N     0.61735   0.50002   0.24999   0.00000  Uiso   1.00
C343   C     0.42755   0.38250   0.33223   0.00000  Uiso   1.00
O344   O     0.43182   0.38428   0.37577   0.00000  Uiso   1.00
O345   O     0.38928   0.40291   0.32148   0.00000  Uiso   1.00
H346   H     0.36737   0.41816   0.35285   0.00000  Uiso   1.00
C347   C     0.42559   0.62580   0.33127   0.00000  Uiso   1.00
O348   O     0.38321   0.63625   0.34146   0.00000  Uiso   1.00
O349   O     0.43958   0.59404   0.35684   0.00000  Uiso   1.00
H350   H     0.41141   0.58199   0.38257   0.00000  Uiso   1.00
N351   N     0.60582   0.56417   0.30466   0.00000  Uiso   1.00
O352   O     0.57684   0.56017   0.34976   0.00000  Uiso   1.00
O353   O     0.61666   0.60125   0.28979   0.00000  Uiso   1.00
C354   C     0.39468   0.43223   0.20034   0.00000  Uiso   1.00
O355   O     0.43036   0.43446   0.16425   0.00000  Uiso   1.00
O356   O     0.37920   0.39365   0.21834   0.00000  Uiso   1.00
H357   H     0.40169   0.37017   0.19986   0.00000  Uiso   1.00
C358   C     0.64168   0.44635   0.17326   0.00000  Uiso   1.00
O359   O     0.60257   0.43299   0.17299   0.00000  Uiso   1.00
O360   O     0.34690   0.43567   0.13065   0.00000  Uiso   1.00
H361   H     0.33922   0.41185   0.10814   0.00000  Uiso   1.00
C362   C     0.35181   0.45415   0.49974   0.00000  Uiso   1.00
O363   O     0.66562   0.45983   0.04533   0.00000  Uiso   1.00
O364   O     0.66064   0.43372   0.46764   0.00000  Uiso   1.00
H365   H     0.62726   0.42488   0.48686   0.00000  Uiso   1.00
O366   O     0.79375   0.56011   0.25000   0.00000  Uiso   1.00
O367   O     0.87294   0.56012   0.25000   0.00000  Uiso   1.00
C368   C     0.83294   0.57913   0.25186   0.00000  Uiso   1.00
O369   O     0.77441   0.49998   0.32549   0.00000  Uiso   1.00
O370   O     0.85360   0.49999   0.32549   0.00000  Uiso   1.00
C371   C     0.80854   0.49615   0.34883   0.00000  Uiso   1.00
Cu372  Cu    0.78645   0.49999   0.25000   0.00000  Uiso   1.00
Cu373  Cu    0.88022   0.50001   0.25000   0.00000  Uiso   1.00
O374   O     0.79373   0.43988   0.24999   0.00000  Uiso   1.00
O375   O     0.87292   0.43989   0.24999   0.00000  Uiso   1.00
O376   O     0.81306   0.50001   0.17451   0.00000  Uiso   1.00
O377   O     0.89225   0.50002   0.17451   0.00000  Uiso   1.00
C378   C     0.83281   0.42092   0.25126   0.00000  Uiso   1.00
C379   C     0.85852   0.50126   0.15085   0.00000  Uiso   1.00
C380   C     0.92962   0.51756   0.01660   0.00000  Uiso   1.00
H381   H     0.94272   0.52736   0.09000   0.00000  Uiso   1.00
H382   H     0.95132   0.49946   0.41702   0.00000  Uiso   1.00
H383   H     0.96561   0.52678   0.49676   0.00000  Uiso   1.00
C384   C     0.87133   0.50411   0.09549   0.00000  Uiso   1.00
C385   C     0.74880   0.47716   0.42691   0.00000  Uiso   1.00
C386   C     0.73429   0.46924   0.47830   0.00000  Uiso   1.00
C387   C     0.76641   0.47574   0.00848   0.00000  Uiso   1.00
C388   C     0.81519   0.48548   0.48609   0.00000  Uiso   1.00
C389   C     0.83126   0.48592   0.43194   0.00000  Uiso   1.00
C390   C     0.84903   0.49430   0.01513   0.00000  Uiso   1.00
C391   C     0.89721   0.50374   0.48936   0.00000  Uiso   1.00
C392   C     0.91344   0.49698   0.43674   0.00000  Uiso   1.00
C393   C     0.88152   0.48533   0.40896   0.00000  Uiso   1.00
C394   C     0.83704   0.49431   0.06869   0.00000  Uiso   1.00
C395   C     0.91675   0.51769   0.06952   0.00000  Uiso   1.00
C396   C     0.79654   0.48639   0.40318   0.00000  Uiso   1.00
H397   H     0.80165   0.48605   0.09036   0.00000  Uiso   1.00
H398   H     0.72256   0.47541   0.40502   0.00000  Uiso   1.00
H399   H     0.75272   0.47158   0.04874   0.00000  Uiso   1.00
H400   H     0.89804   0.47490   0.36982   0.00000  Uiso   1.00
C401   C     0.86827   0.64351   0.21994   0.00000  Uiso   1.00
H402   H     0.89619   0.62569   0.19194   0.00000  Uiso   1.00
C403   C     0.86770   0.35270   0.21903   0.00000  Uiso   1.00
H404   H     0.89520   0.36698   0.19025   0.00000  Uiso   1.00
C405   C     0.83155   0.37631   0.25388   0.00000  Uiso   1.00
C406   C     0.79553   0.35719   0.29118   0.00000  Uiso   1.00
C407   C     0.79569   0.64696   0.29182   0.00000  Uiso   1.00
C408   C     0.83225   0.62389   0.25526   0.00000  Uiso   1.00
C409   C     0.96860   0.52990   0.27821   0.00000  Uiso   1.00
C410   C     0.68478   0.53008   0.27718   0.00000  Uiso   1.00
H411   H     0.69803   0.55440   0.29878   0.00000  Uiso   1.00
N412   N     0.71598   0.49999   0.24998   0.00000  Uiso   1.00
C413   C     0.69850   0.46963   0.22272   0.00000  Uiso   1.00
C414   C     0.98387   0.47189   0.21818   0.00000  Uiso   1.00
N415   N     0.95069   0.50002   0.24999   0.00000  Uiso   1.00
C416   C     0.76088   0.38250   0.33223   0.00000  Uiso   1.00
O417   O     0.76515   0.38428   0.37577   0.00000  Uiso   1.00
O418   O     0.72261   0.40291   0.32148   0.00000  Uiso   1.00
H419   H     0.70071   0.41816   0.35285   0.00000  Uiso   1.00
C420   C     0.75892   0.62580   0.33127   0.00000  Uiso   1.00
O421   O     0.71654   0.63625   0.34146   0.00000  Uiso   1.00
O422   O     0.77291   0.59404   0.35684   0.00000  Uiso   1.00
H423   H     0.74474   0.58199   0.38257   0.00000  Uiso   1.00
N424   N     0.93915   0.56417   0.30466   0.00000  Uiso   1.00
O425   O     0.91018   0.56017   0.34976   0.00000  Uiso   1.00
O426   O     0.94999   0.60125   0.28979   0.00000  Uiso   1.00
C427   C     0.72801   0.43223   0.20034   0.00000  Uiso   1.00
O428   O     0.76369   0.43446   0.16425   0.00000  Uiso   1.00
O429   O     0.71253   0.39365   0.21834   0.00000  Uiso   1.00
H430   H     0.73502   0.37017   0.19986   0.00000  Uiso   1.00
C431   C     0.97501   0.44635   0.17326   0.00000  Uiso   1.00
O432   O     0.93590   0.43299   0.17299   0.00000  Uiso   1.00
O433   O     0.68024   0.43567   0.13065   0.00000  Uiso   1.00
H434   H     0.67255   0.41185   0.10814   0.00000  Uiso   1.00
C435   C     0.68515   0.45415   0.49974   0.00000  Uiso   1.00
O436   O     0.99895   0.45983   0.04533   0.00000  Uiso   1.00
O437   O     0.99398   0.43372   0.46764   0.00000  Uiso   1.00
H438   H     0.96060   0.42488   0.48686   0.00000  Uiso   1.00
O439   O     0.12708   0.89345   0.25000   0.00000  Uiso   1.00
O440   O     0.20627   0.89346   0.25000   0.00000  Uiso   1.00
C441   C     0.16627   0.91247   0.25186   0.00000  Uiso   1.00
O442   O     0.10775   0.83332   0.32549   0.00000  Uiso   1.00
O443   O     0.18694   0.83333   0.32549   0.00000  Uiso   1.00
C444   C     0.14187   0.82948   0.34883   0.00000  Uiso   1.00
Cu445  Cu    0.11978   0.83333   0.25000   0.00000  Uiso   1.00
Cu446  Cu    0.21355   0.83334   0.25000   0.00000  Uiso   1.00
O447   O     0.12706   0.77321   0.24999   0.00000  Uiso   1.00
O448   O     0.20625   0.77322   0.24999   0.00000  Uiso   1.00
O449   O     0.14640   0.83334   0.17451   0.00000  Uiso   1.00
O450   O     0.22559   0.83335   0.17451   0.00000  Uiso   1.00
C451   C     0.16615   0.75425   0.25126   0.00000  Uiso   1.00
C452   C     0.19186   0.83460   0.15085   0.00000  Uiso   1.00
C453   C     0.26295   0.85089   0.01660   0.00000  Uiso   1.00
H454   H     0.27605   0.86069   0.09000   0.00000  Uiso   1.00
H455   H     0.28465   0.83279   0.41702   0.00000  Uiso   1.00
H456   H     0.29894   0.86012   0.49676   0.00000  Uiso   1.00
C457   C     0.20467   0.83744   0.09549   0.00000  Uiso   1.00
C458   C     0.08213   0.81049   0.42691   0.00000  Uiso   1.00
C459   C     0.06763   0.80257   0.47830   0.00000  Uiso   1.00
C460   C     0.09974   0.80907   0.00848   0.00000  Uiso   1.00
C461   C     0.14853   0.81881   0.48609   0.00000  Uiso   1.00
C462   C     0.16459   0.81925   0.43194   0.00000  Uiso   1.00
C463   C     0.18236   0.82764   0.01513   0.00000  Uiso   1.00
C464   C     0.23055   0.83708   0.48936   0.00000  Uiso   1.00
C465   C     0.24678   0.83031   0.43674   0.00000  Uiso   1.00
C466   C     0.21485   0.81866   0.40896   0.00000  Uiso   1.00
C467   C     0.17038   0.82765   0.06869   0.00000  Uiso   1.00
C468   C     0.25008   0.85102   0.06952   0.00000  Uiso   1.00
C469   C     0.12987   0.81972   0.40318   0.00000  Uiso   1.00
H470   H     0.13498   0.81938   0.09036   0.00000  Uiso   1.00
H471   H     0.05589   0.80874   0.40502   0.00000  Uiso   1.00
H472   H     0.08606   0.80491   0.04874   0.00000  Uiso   1.00
H473   H     0.23138   0.80824   0.36982   0.00000  Uiso   1.00
C474   C     0.20160   0.97684   0.21994   0.00000  Uiso   1.00
H475   H     0.22952   0.95902   0.19194   0.00000  Uiso   1.00
C476   C     0.20104   0.68603   0.21903   0.00000  Uiso   1.00
H477   H     0.22853   0.70032   0.19025   0.00000  Uiso   1.00
C478   C     0.16488   0.70964   0.25388   0.00000  Uiso   1.00
C479   C     0.12886   0.69052   0.29118   0.00000  Uiso   1.00
C480   C     0.12902   0.98030   0.29182   0.00000  Uiso   1.00
C481   C     0.16559   0.95723   0.25526   0.00000  Uiso   1.00
C482   C     0.30194   0.86324   0.27821   0.00000  Uiso   1.00
C483   C     0.01811   0.86341   0.27718   0.00000  Uiso   1.00
H484   H     0.03136   0.88774   0.29878   0.00000  Uiso   1.00
N485   N     0.04931   0.83332   0.24998   0.00000  Uiso   1.00
C486   C     0.03184   0.80297   0.22272   0.00000  Uiso   1.00
C487   C     0.31720   0.80522   0.21818   0.00000  Uiso   1.00
N488   N     0.28402   0.83335   0.24999   0.00000  Uiso   1.00
C489   C     0.09422   0.71583   0.33223   0.00000  Uiso   1.00
O490   O     0.09849   0.71762   0.37577   0.00000  Uiso   1.00
O491   O     0.05595   0.73624   0.32148   0.00000  Uiso   1.00
H492   H     0.03404   0.75150   0.35285   0.00000  Uiso   1.00
C493   C     0.09225   0.95914   0.33127   0.00000  Uiso   1.00
O494   O     0.04988   0.96958   0.34146   0.00000  Uiso   1.00
O495   O     0.10625   0.92737   0.35684   0.00000  Uiso   1.00
H496   H     0.07807   0.91532   0.38257   0.00000  Uiso   1.00
N497   N     0.27248   0.89750   0.30466   0.00000  Uiso   1.00
O498   O     0.24351   0.89351   0.34976   0.00000  Uiso   1.00
O499   O     0.28332   0.93459   0.28979   0.00000  Uiso   1.00
C500   C     0.06135   0.76556   0.20034   0.00000  Uiso   1.00
O501   O     0.09702   0.76779   0.16425   0.00000  Uiso   1.00
O502   O     0.04587   0.72698   0.21834   0.00000  Uiso   1.00
H503   H     0.06836   0.70351   0.19986   0.00000  Uiso   1.00
C504   C     0.30834   0.77968   0.17326   0.00000  Uiso   1.00
O505   O     0.26924   0.76633   0.17299   0.00000  Uiso   1.00
O506   O     0.01357   0.76900   0.13065   0.00000  Uiso   1.00
H507   H     0.00588   0.74518   0.10814   0.00000  Uiso   1.00
C508   C     0.01848   0.78749   0.49974   0.00000  Uiso   1.00
O509   O     0.33228   0.79316   0.04533   0.00000  Uiso   1.00
O510   O     0.32731   0.76705   0.46764   0.00000  Uiso   1.00
H511   H     0.29393   0.75821   0.48686   0.00000  Uiso   1.00
O512   O     0.46042   0.89345   0.25000   0.00000  Uiso   1.00
O513   O     0.53961   0.89346   0.25000   0.00000  Uiso   1.00
C514   C     0.49961   0.91247   0.25186   0.00000  Uiso   1.00
O515   O     0.44108   0.83332   0.32549   0.00000  Uiso   1.00
O516   O     0.52027   0.83333   0.32549   0.00000  Uiso   1.00
C517   C     0.47521   0.82948   0.34883   0.00000  Uiso   1.00
Cu518  Cu    0.45311   0.83333   0.25000   0.00000  Uiso   1.00
Cu519  Cu    0.54689   0.83334   0.25000   0.00000  Uiso   1.00
O520   O     0.46039   0.77321   0.24999   0.00000  Uiso   1.00
O521   O     0.53958   0.77322   0.24999   0.00000  Uiso   1.00
O522   O     0.47973   0.83334   0.17451   0.00000  Uiso   1.00
O523   O     0.55892   0.83335   0.17451   0.00000  Uiso   1.00
C524   C     0.49948   0.75425   0.25126   0.00000  Uiso   1.00
C525   C     0.52519   0.83460   0.15085   0.00000  Uiso   1.00
C526   C     0.59628   0.85089   0.01660   0.00000  Uiso   1.00
H527   H     0.60938   0.86069   0.09000   0.00000  Uiso   1.00
H528   H     0.61798   0.83279   0.41702   0.00000  Uiso   1.00
H529   H     0.63228   0.86012   0.49676   0.00000  Uiso   1.00
C530   C     0.53800   0.83744   0.09549   0.00000  Uiso   1.00
C531   C     0.41547   0.81049   0.42691   0.00000  Uiso   1.00
C532   C     0.40096   0.80257   0.47830   0.00000  Uiso   1.00
C533   C     0.43307   0.80907   0.00848   0.00000  Uiso   1.00
C534   C     0.48186   0.81881   0.48609   0.00000  Uiso   1.00
C535   C     0.49793   0.81925   0.43194   0.00000  Uiso   1.00
C536   C     0.51569   0.82764   0.01513   0.00000  Uiso   1.00
C537   C     0.56388   0.83708   0.48936   0.00000  Uiso   1.00
C538   C     0.58011   0.83031   0.43674   0.00000  Uiso   1.00
C539   C     0.54819   0.81866   0.40896   0.00000  Uiso   1.00
C540   C     0.50371   0.82765   0.06869   0.00000  Uiso   1.00
C541   C     0.58341   0.85102   0.06952   0.00000  Uiso   1.00
C542   C     0.46320   0.81972   0.40318   0.00000  Uiso   1.00
H543   H     0.46831   0.81938   0.09036   0.00000  Uiso   1.00
H544   H     0.38923   0.80874   0.40502   0.00000  Uiso   1.00
H545   H     0.41939   0.80491   0.04874   0.00000  Uiso   1.00
H546   H     0.56471   0.80824   0.36982   0.00000  Uiso   1.00
C547   C     0.53493   0.97684   0.21994   0.00000  Uiso   1.00
H548   H     0.56285   0.95902   0.19194   0.00000  Uiso   1.00
C549   C     0.53437   0.68603   0.21903   0.00000  Uiso   1.00
H550   H     0.56186   0.70032   0.19025   0.00000  Uiso   1.00
C551   C     0.49821   0.70964   0.25388   0.00000  Uiso   1.00
C552   C     0.46219   0.69052   0.29118   0.00000  Uiso   1.00
C553   C     0.46235   0.98030   0.29182   0.00000  Uiso   1.00
C554   C     0.49892   0.95723   0.25526   0.00000  Uiso   1.00
C555   C     0.63527   0.86324   0.27821   0.00000  Uiso   1.00
C556   C     0.35145   0.86341   0.27718   0.00000  Uiso   1.00
H557   H     0.36469   0.88774   0.29878   0.00000  Uiso   1.00
N558   N     0.38265   0.83332   0.24998   0.00000  Uiso   1.00
C559   C     0.36517   0.80297   0.22272   0.00000  Uiso   1.00
C560   C     0.65054   0.80522   0.21818   0.00000  Uiso   1.00
N561   N     0.61735   0.83335   0.24999   0.00000  Uiso   1.00
C562   C     0.42755   0.71583   0.33223   0.00000  Uiso   1.00
O563   O     0.43182   0.71762   0.37577   0.00000  Uiso   1.00
O564   O     0.38928   0.73624   0.32148   0.00000  Uiso   1.00
H565   H     0.36737   0.75150   0.35285   0.00000  Uiso   1.00
C566   C     0.42559   0.95914   0.33127   0.00000  Uiso   1.00
O567   O     0.38321   0.96958   0.34146   0.00000  Uiso   1.00
O568   O     0.43958   0.92737   0.35684   0.00000  Uiso   1.00
H569   H     0.41141   0.91532   0.38257   0.00000  Uiso   1.00
N570   N     0.60582   0.89750   0.30466   0.00000  Uiso   1.00
O571   O     0.57684   0.89351   0.34976   0.00000  Uiso   1.00
O572   O     0.61666   0.93459   0.28979   0.00000  Uiso   1.00
C573   C     0.39468   0.76556   0.20034   0.00000  Uiso   1.00
O574   O     0.43036   0.76779   0.16425   0.00000  Uiso   1.00
O575   O     0.37920   0.72698   0.21834   0.00000  Uiso   1.00
H576   H     0.40169   0.70351   0.19986   0.00000  Uiso   1.00
C577   C     0.64168   0.77968   0.17326   0.00000  Uiso   1.00
O578   O     0.60257   0.76633   0.17299   0.00000  Uiso   1.00
O579   O     0.34690   0.76900   0.13065   0.00000  Uiso   1.00
H580   H     0.33922   0.74518   0.10814   0.00000  Uiso   1.00
C581   C     0.35181   0.78749   0.49974   0.00000  Uiso   1.00
O582   O     0.66562   0.79316   0.04533   0.00000  Uiso   1.00
O583   O     0.66064   0.76705   0.46764   0.00000  Uiso   1.00
H584   H     0.62726   0.75821   0.48686   0.00000  Uiso   1.00
O585   O     0.79375   0.89345   0.25000   0.00000  Uiso   1.00
O586   O     0.87294   0.89346   0.25000   0.00000  Uiso   1.00
C587   C     0.83294   0.91247   0.25186   0.00000  Uiso   1.00
O588   O     0.77441   0.83332   0.32549   0.00000  Uiso   1.00
O589   O     0.85360   0.83333   0.32549   0.00000  Uiso   1.00
C590   C     0.80854   0.82948   0.34883   0.00000  Uiso   1.00
Cu591  Cu    0.78645   0.83333   0.25000   0.00000  Uiso   1.00
Cu592  Cu    0.88022   0.83334   0.25000   0.00000  Uiso   1.00
O593   O     0.79373   0.77321   0.24999   0.00000  Uiso   1.00
O594   O     0.87292   0.77322   0.24999   0.00000  Uiso   1.00
O595   O     0.81306   0.83334   0.17451   0.00000  Uiso   1.00
O596   O     0.89225   0.83335   0.17451   0.00000  Uiso   1.00
C597   C     0.83281   0.75425   0.25126   0.00000  Uiso   1.00
C598   C     0.85852   0.83460   0.15085   0.00000  Uiso   1.00
C599   C     0.92962   0.85089   0.01660   0.00000  Uiso   1.00
H600   H     0.94272   0.86069   0.09000   0.00000  Uiso   1.00
H601   H     0.95132   0.83279   0.41702   0.00000  Uiso   1.00
H602   H     0.96561   0.86012   0.49676   0.00000  Uiso   1.00
C603   C     0.87133   0.83744   0.09549   0.00000  Uiso   1.00
C604   C     0.74880   0.81049   0.42691   0.00000  Uiso   1.00
C605   C     0.73429   0.80257   0.47830   0.00000  Uiso   1.00
C606   C     0.76641   0.80907   0.00848   0.00000  Uiso   1.00
C607   C     0.81519   0.81881   0.48609   0.00000  Uiso   1.00
C608   C     0.83126   0.81925   0.43194   0.00000  Uiso   1.00
C609   C     0.84903   0.82764   0.01513   0.00000  Uiso   1.00
C610   C     0.89721   0.83708   0.48936   0.00000  Uiso   1.00
C611   C     0.91344   0.83031   0.43674   0.00000  Uiso   1.00
C612   C     0.88152   0.81866   0.40896   0.00000  Uiso   1.00
C613   C     0.83704   0.82765   0.06869   0.00000  Uiso   1.00
C614   C     0.91675   0.85102   0.06952   0.00000  Uiso   1.00
C615   C     0.79654   0.81972   0.40318   0.00000  Uiso   1.00
H616   H     0.80165   0.81938   0.09036   0.00000  Uiso   1.00
H617   H     0.72256   0.80874   0.40502   0.00000  Uiso   1.00
H618   H     0.75272   0.80491   0.04874   0.00000  Uiso   1.00
H619   H     0.89804   0.80824   0.36982   0.00000  Uiso   1.00
C620   C     0.86827   0.97684   0.21994   0.00000  Uiso   1.00
H621   H     0.89619   0.95902   0.19194   0.00000  Uiso   1.00
C622   C     0.86770   0.68603   0.21903   0.00000  Uiso   1.00
H623   H     0.89520   0.70032   0.19025   0.00000  Uiso   1.00
C624   C     0.83155   0.70964   0.25388   0.00000  Uiso   1.00
C625   C     0.79553   0.69052   0.29118   0.00000  Uiso   1.00
C626   C     0.79569   0.98030   0.29182   0.00000  Uiso   1.00
C627   C     0.83225   0.95723   0.25526   0.00000  Uiso   1.00
C628   C     0.96860   0.86324   0.27821   0.00000  Uiso   1.00
C629   C     0.68478   0.86341   0.27718   0.00000  Uiso   1.00
H630   H     0.69803   0.88774   0.29878   0.00000  Uiso   1.00
N631   N     0.71598   0.83332   0.24998   0.00000  Uiso   1.00
C632   C     0.69850   0.80297   0.22272   0.00000  Uiso   1.00
C633   C     0.98387   0.80522   0.21818   0.00000  Uiso   1.00
N634   N     0.95069   0.83335   0.24999   0.00000  Uiso   1.00
C635   C     0.76088   0.71583   0.33223   0.00000  Uiso   1.00
O636   O     0.76515   0.71762   0.37577   0.00000  Uiso   1.00
O637   O     0.72261   0.73624   0.32148   0.00000  Uiso   1.00
H638   H     0.70071   0.75150   0.35285   0.00000  Uiso   1.00
C639   C     0.75892   0.95914   0.33127   0.00000  Uiso   1.00
O640   O     0.71654   0.96958   0.34146   0.00000  Uiso   1.00
O641   O     0.77291   0.92737   0.35684   0.00000  Uiso   1.00
H642   H     0.74474   0.91532   0.38257   0.00000  Uiso   1.00
N643   N     0.93915   0.89750   0.30466   0.00000  Uiso   1.00
O644   O     0.91018   0.89351   0.34976   0.00000  Uiso   1.00
O645   O     0.94999   0.93459   0.28979   0.00000  Uiso   1.00
C646   C     0.72801   0.76556   0.20034   0.00000  Uiso   1.00
O647   O     0.76369   0.76779   0.16425   0.00000  Uiso   1.00
O648   O     0.71253   0.72698   0.21834   0.00000  Uiso   1.00
H649   H     0.73502   0.70351   0.19986   0.00000  Uiso   1.00
C650   C     0.97501   0.77968   0.17326   0.00000  Uiso   1.00
O651   O     0.93590   0.76633   0.17299   0.00000  Uiso   1.00
O652   O     0.68024   0.76900   0.13065   0.00000  Uiso   1.00
H653   H     0.67255   0.74518   0.10814   0.00000  Uiso   1.00
C654   C     0.68515   0.78749   0.49974   0.00000  Uiso   1.00
O655   O     0.99895   0.79316   0.04533   0.00000  Uiso   1.00
O656   O     0.99398   0.76705   0.46764   0.00000  Uiso   1.00
H657   H     0.96060   0.75821   0.48686   0.00000  Uiso   1.00
O658   O     0.12708   0.22678   0.75000   0.00000  Uiso   1.00
O659   O     0.20627   0.22679   0.75000   0.00000  Uiso   1.00
C660   C     0.16627   0.24580   0.75186   0.00000  Uiso   1.00
O661   O     0.10775   0.16665   0.82549   0.00000  Uiso   1.00
O662   O     0.18694   0.16666   0.82549   0.00000  Uiso   1.00
C663   C     0.14187   0.16281   0.84883   0.00000  Uiso   1.00
Cu664  Cu    0.11978   0.16666   0.75000   0.00000  Uiso   1.00
Cu665  Cu    0.21355   0.16667   0.75000   0.00000  Uiso   1.00
O666   O     0.12706   0.10654   0.74999   0.00000  Uiso   1.00
O667   O     0.20625   0.10655   0.74999   0.00000  Uiso   1.00
O668   O     0.14640   0.16667   0.67451   0.00000  Uiso   1.00
O669   O     0.22559   0.16668   0.67451   0.00000  Uiso   1.00
C670   C     0.16615   0.08758   0.75126   0.00000  Uiso   1.00
C671   C     0.19186   0.16793   0.65085   0.00000  Uiso   1.00
C672   C     0.26295   0.18422   0.51660   0.00000  Uiso   1.00
H673   H     0.27605   0.19403   0.59000   0.00000  Uiso   1.00
H674   H     0.28465   0.16613   0.91702   0.00000  Uiso   1.00
H675   H     0.29894   0.19345   0.99676   0.00000  Uiso   1.00
C676   C     0.20467   0.17078   0.59549   0.00000  Uiso   1.00
C677   C     0.08213   0.14382   0.92691   0.00000  Uiso   1.00
C678   C     0.06763   0.13590   0.97830   0.00000  Uiso   1.00
C679   C     0.09974   0.14241   0.50848   0.00000  Uiso   1.00
C680   C     0.14853   0.15215   0.98609   0.00000  Uiso   1.00
C681   C     0.16459   0.15259   0.93194   0.00000  Uiso   1.00
C682   C     0.18236   0.16097   0.51513   0.00000  Uiso   1.00
C683   C     0.23055   0.17041   0.98936   0.00000  Uiso   1.00
C684   C     0.24678   0.16364   0.93674   0.00000  Uiso   1.00
C685   C     0.21485   0.15199   0.90896   0.00000  Uiso   1.00
C686   C     0.17038   0.16098   0.56869   0.00000  Uiso   1.00
C687   C     0.25008   0.18435   0.56952   0.00000  Uiso   1.00
C688   C     0.12987   0.15306   0.90318   0.00000  Uiso   1.00
H689   H     0.13498   0.15272   0.59036   0.00000  Uiso   1.00
H690   H     0.05589   0.14207   0.90502   0.00000  Uiso   1.00
H691   H     0.08606   0.13825   0.54874   0.00000  Uiso   1.00
H692   H     0.23138   0.14157   0.86982   0.00000  Uiso   1.00
C693   C     0.20160   0.31017   0.71994   0.00000  Uiso   1.00
H694   H     0.22952   0.29235   0.69194   0.00000  Uiso   1.00
C695   C     0.20104   0.01936   0.71903   0.00000  Uiso   1.00
H696   H     0.22853   0.03365   0.69025   0.00000  Uiso   1.00
C697   C     0.16488   0.04298   0.75388   0.00000  Uiso   1.00
C698   C     0.12886   0.02386   0.79118   0.00000  Uiso   1.00
C699   C     0.12902   0.31363   0.79182   0.00000  Uiso   1.00
C700   C     0.16559   0.29056   0.75526   0.00000  Uiso   1.00
C701   C     0.30194   0.19657   0.77821   0.00000  Uiso   1.00
C702   C     0.01811   0.19674   0.77718   0.00000  Uiso   1.00
H703   H     0.03136   0.22107   0.79878   0.00000  Uiso   1.00
N704   N     0.04931   0.16666   0.74998   0.00000  Uiso   1.00
C705   C     0.03184   0.13630   0.72272   0.00000  Uiso   1.00
C706   C     0.31720   0.13855   0.71818   0.00000  Uiso   1.00
N707   N     0.28402   0.16669   0.74999   0.00000  Uiso   1.00
C708   C     0.09422   0.04917   0.83223   0.00000  Uiso   1.00
O709   O     0.09849   0.05095   0.87577   0.00000  Uiso   1.00
O710   O     0.05595   0.06957   0.82148   0.00000  Uiso   1.00
H711   H     0.03404   0.08483   0.85285   0.00000  Uiso   1.00
C712   C     0.09225   0.29247   0.83127   0.00000  Uiso   1.00
O713   O     0.04988   0.30291   0.84146   0.00000  Uiso   1.00
O714   O     0.10625   0.26070   0.85684   0.00000  Uiso   1.00
H715   H     0.07807   0.24866   0.88257   0.00000  Uiso   1.00
N716   N     0.27248   0.23084   0.80466   0.00000  Uiso   1.00
O717   O     0.24351   0.22684   0.84976   0.00000  Uiso   1.00
O718   O     0.28332   0.26792   0.78979   0.00000  Uiso   1.00
C719   C     0.06135   0.09889   0.70034   0.00000  Uiso   1.00
O720   O     0.09702   0.10113   0.66425   0.00000  Uiso   1.00
O721   O     0.04587   0.06032   0.71834   0.00000  Uiso   1.00
H722   H     0.06836   0.03684   0.69986   0.00000  Uiso   1.00
C723   C     0.30834   0.11302   0.67326   0.00000  Uiso   1.00
O724   O     0.26924   0.09966   0.67299   0.00000  Uiso   1.00
O725   O     0.01357   0.10234   0.63065   0.00000  Uiso   1.00
H726   H     0.00588   0.07851   0.60814   0.00000  Uiso   1.00
C727   C     0.01848   0.12082   0.99974   0.00000  Uiso   1.00
O728   O     0.33228   0.12650   0.54533   0.00000  Uiso   1.00
O729   O     0.32731   0.10038   0.96764   0.00000  Uiso   1.00
H730   H     0.29393   0.09155   0.98686   0.00000  Uiso   1.00
O731   O     0.46042   0.22678   0.75000   0.00000  Uiso   1.00
O732   O     0.53961   0.22679   0.75000   0.00000  Uiso   1.00
C733   C     0.49961   0.24580   0.75186   0.00000  Uiso   1.00
O734   O     0.44108   0.16665   0.82549   0.00000  Uiso   1.00
O735   O     0.52027   0.16666   0.82549   0.00000  Uiso   1.00
C736   C     0.47521   0.16281   0.84883   0.00000  Uiso   1.00
Cu737  Cu    0.45311   0.16666   0.75000   0.00000  Uiso   1.00
Cu738  Cu    0.54689   0.16667   0.75000   0.00000  Uiso   1.00
O739   O     0.46039   0.10654   0.74999   0.00000  Uiso   1.00
O740   O     0.53958   0.10655   0.74999   0.00000  Uiso   1.00
O741   O     0.47973   0.16667   0.67451   0.00000  Uiso   1.00
O742   O     0.55892   0.16668   0.67451   0.00000  Uiso   1.00
C743   C     0.49948   0.08758   0.75126   0.00000  Uiso   1.00
C744   C     0.52519   0.16793   0.65085   0.00000  Uiso   1.00
C745   C     0.59628   0.18422   0.51660   0.00000  Uiso   1.00
H746   H     0.60938   0.19403   0.59000   0.00000  Uiso   1.00
H747   H     0.61798   0.16613   0.91702   0.00000  Uiso   1.00
H748   H     0.63228   0.19345   0.99676   0.00000  Uiso   1.00
C749   C     0.53800   0.17078   0.59549   0.00000  Uiso   1.00
C750   C     0.41547   0.14382   0.92691   0.00000  Uiso   1.00
C751   C     0.40096   0.13590   0.97830   0.00000  Uiso   1.00
C752   C     0.43307   0.14241   0.50848   0.00000  Uiso   1.00
C753   C     0.48186   0.15215   0.98609   0.00000  Uiso   1.00
C754   C     0.49793   0.15259   0.93194   0.00000  Uiso   1.00
C755   C     0.51569   0.16097   0.51513   0.00000  Uiso   1.00
C756   C     0.56388   0.17041   0.98936   0.00000  Uiso   1.00
C757   C     0.58011   0.16364   0.93674   0.00000  Uiso   1.00
C758   C     0.54819   0.15199   0.90896   0.00000  Uiso   1.00
C759   C     0.50371   0.16098   0.56869   0.00000  Uiso   1.00
C760   C     0.58341   0.18435   0.56952   0.00000  Uiso   1.00
C761   C     0.46320   0.15306   0.90318   0.00000  Uiso   1.00
H762   H     0.46831   0.15272   0.59036   0.00000  Uiso   1.00
H763   H     0.38923   0.14207   0.90502   0.00000  Uiso   1.00
H764   H     0.41939   0.13825   0.54874   0.00000  Uiso   1.00
H765   H     0.56471   0.14157   0.86982   0.00000  Uiso   1.00
C766   C     0.53493   0.31017   0.71994   0.00000  Uiso   1.00
H767   H     0.56285   0.29235   0.69194   0.00000  Uiso   1.00
C768   C     0.53437   0.01936   0.71903   0.00000  Uiso   1.00
H769   H     0.56186   0.03365   0.69025   0.00000  Uiso   1.00
C770   C     0.49821   0.04298   0.75388   0.00000  Uiso   1.00
C771   C     0.46219   0.02386   0.79118   0.00000  Uiso   1.00
C772   C     0.46235   0.31363   0.79182   0.00000  Uiso   1.00
C773   C     0.49892   0.29056   0.75526   0.00000  Uiso   1.00
C774   C     0.63527   0.19657   0.77821   0.00000  Uiso   1.00
C775   C     0.35145   0.19674   0.77718   0.00000  Uiso   1.00
H776   H     0.36469   0.22107   0.79878   0.00000  Uiso   1.00
N777   N     0.38265   0.16666   0.74998   0.00000  Uiso   1.00
C778   C     0.36517   0.13630   0.72272   0.00000  Uiso   1.00
C779   C     0.65054   0.13855   0.71818   0.00000  Uiso   1.00
N780   N     0.61735   0.16669   0.74999   0.00000  Uiso   1.00
C781   C     0.42755   0.04917   0.83223   0.00000  Uiso   1.00
O782   O     0.43182   0.05095   0.87577   0.00000  Uiso   1.00
O783   O     0.38928   0.06957   0.82148   0.00000  Uiso   1.00
H784   H     0.36737   0.08483   0.85285   0.00000  Uiso   1.00
C785   C     0.42559   0.29247   0.83127   0.00000  Uiso   1.00
O786   O     0.38321   0.30291   0.84146   0.00000  Uiso   1.00
O787   O     0.43958   0.26070   0.85684   0.00000  Uiso   1.00
H788   H     0.41141   0.24866   0.88257   0.00000  Uiso   1.00
N789   N     0.60582   0.23084   0.80466   0.00000  Uiso   1.00
O790   O     0.57684   0.22684   0.84976   0.00000  Uiso   1.00
O791   O     0.61666   0.26792   0.78979   0.00000  Uiso   1.00
C792   C     0.39468   0.09889   0.70034   0.00000  Uiso   1.00
O793   O     0.43036   0.10113   0.66425   0.00000  Uiso   1.00
O794   O     0.37920   0.06032   0.71834   0.00000  Uiso   1.00
H795   H     0.40169   0.03684   0.69986   0.00000  Uiso   1.00
C796   C     0.64168   0.11302   0.67326   0.00000  Uiso   1.00
O797   O     0.60257   0.09966   0.67299   0.00000  Uiso   1.00
O798   O     0.34690   0.10234   0.63065   0.00000  Uiso   1.00
H799   H     0.33922   0.07851   0.60814   0.00000  Uiso   1.00
C800   C     0.35181   0.12082   0.99974   0.00000  Uiso   1.00
O801   O     0.66562   0.12650   0.54533   0.00000  Uiso   1.00
O802   O     0.66064   0.10038   0.96764   0.00000  Uiso   1.00
H803   H     0.62726   0.09155   0.98686   0.00000  Uiso   1.00
O804   O     0.79375   0.22678   0.75000   0.00000  Uiso   1.00
O805   O     0.87294   0.22679   0.75000   0.00000  Uiso   1.00
C806   C     0.83294   0.24580   0.75186   0.00000  Uiso   1.00
O807   O     0.77441   0.16665   0.82549   0.00000  Uiso   1.00
O808   O     0.85360   0.16666   0.82549   0.00000  Uiso   1.00
C809   C     0.80854   0.16281   0.84883   0.00000  Uiso   1.00
Cu810  Cu    0.78645   0.16666   0.75000   0.00000  Uiso   1.00
Cu811  Cu    0.88022   0.16667   0.75000   0.00000  Uiso   1.00
O812   O     0.79373   0.10654   0.74999   0.00000  Uiso   1.00
O813   O     0.87292   0.10655   0.74999   0.00000  Uiso   1.00
O814   O     0.81306   0.16667   0.67451   0.00000  Uiso   1.00
O815   O     0.89225   0.16668   0.67451   0.00000  Uiso   1.00
C816   C     0.83281   0.08758   0.75126   0.00000  Uiso   1.00
C817   C     0.85852   0.16793   0.65085   0.00000  Uiso   1.00
C818   C     0.92962   0.18422   0.51660   0.00000  Uiso   1.00
H819   H     0.94272   0.19403   0.59000   0.00000  Uiso   1.00
H820   H     0.95132   0.16613   0.91702   0.00000  Uiso   1.00
H821   H     0.96561   0.19345   0.99676   0.00000  Uiso   1.00
C822   C     0.87133   0.17078   0.59549   0.00000  Uiso   1.00
C823   C     0.74880   0.14382   0.92691   0.00000  Uiso   1.00
C824   C     0.73429   0.13590   0.97830   0.00000  Uiso   1.00
C825   C     0.76641   0.14241   0.50848   0.00000  Uiso   1.00
C826   C     0.81519   0.15215   0.98609   0.00000  Uiso   1.00
C827   C     0.83126   0.15259   0.93194   0.00000  Uiso   1.00
C828   C     0.84903   0.16097   0.51513   0.00000  Uiso   1.00
C829   C     0.89721   0.17041   0.98936   0.00000  Uiso   1.00
C830   C     0.91344   0.16364   0.93674   0.00000  Uiso   1.00
C831   C     0.88152   0.15199   0.90896   0.00000  Uiso   1.00
C832   C     0.83704   0.16098   0.56869   0.00000  Uiso   1.00
C833   C     0.91675   0.18435   0.56952   0.00000  Uiso   1.00
C834   C     0.79654   0.15306   0.90318   0.00000  Uiso   1.00
H835   H     0.80165   0.15272   0.59036   0.00000  Uiso   1.00
H836   H     0.72256   0.14207   0.90502   0.00000  Uiso   1.00
H837   H     0.75272   0.13825   0.54874   0.00000  Uiso   1.00
H838   H     0.89804   0.14157   0.86982   0.00000  Uiso   1.00
C839   C     0.86827   0.31017   0.71994   0.00000  Uiso   1.00
H840   H     0.89619   0.29235   0.69194   0.00000  Uiso   1.00
C841   C     0.86770   0.01936   0.71903   0.00000  Uiso   1.00
H842   H     0.89520   0.03365   0.69025   0.00000  Uiso   1.00
C843   C     0.83155   0.04298   0.75388   0.00000  Uiso   1.00
C844   C     0.79553   0.02386   0.79118   0.00000  Uiso   1.00
C845   C     0.79569   0.31363   0.79182   0.00000  Uiso   1.00
C846   C     0.83225   0.29056   0.75526   0.00000  Uiso   1.00
C847   C     0.96860   0.19657   0.77821   0.00000  Uiso   1.00
C848   C     0.68478   0.19674   0.77718   0.00000  Uiso   1.00
H849   H     0.69803   0.22107   0.79878   0.00000  Uiso   1.00
N850   N     0.71598   0.16666   0.74998   0.00000  Uiso   1.00
C851   C     0.69850   0.13630   0.72272   0.00000  Uiso   1.00
C852   C     0.98387   0.13855   0.71818   0.00000  Uiso   1.00
N853   N     0.95069   0.16669   0.74999   0.00000  Uiso   1.00
C854   C     0.76088   0.04917   0.83223   0.00000  Uiso   1.00
O855   O     0.76515   0.05095   0.87577   0.00000  Uiso   1.00
O856   O     0.72261   0.06957   0.82148   0.00000  Uiso   1.00
H857   H     0.70071   0.08483   0.85285   0.00000  Uiso   1.00
C858   C     0.75892   0.29247   0.83127   0.00000  Uiso   1.00
O859   O     0.71654   0.30291   0.84146   0.00000  Uiso   1.00
O860   O     0.77291   0.26070   0.85684   0.00000  Uiso   1.00
H861   H     0.74474   0.24866   0.88257   0.00000  Uiso   1.00
N862   N     0.93915   0.23084   0.80466   0.00000  Uiso   1.00
O863   O     0.91018   0.22684   0.84976   0.00000  Uiso   1.00
O864   O     0.94999   0.26792   0.78979   0.00000  Uiso   1.00
C865   C     0.72801   0.09889   0.70034   0.00000  Uiso   1.00
O866   O     0.76369   0.10113   0.66425   0.00000  Uiso   1.00
O867   O     0.71253   0.06032   0.71834   0.00000  Uiso   1.00
H868   H     0.73502   0.03684   0.69986   0.00000  Uiso   1.00
C869   C     0.97501   0.11302   0.67326   0.00000  Uiso   1.00
O870   O     0.93590   0.09966   0.67299   0.00000  Uiso   1.00
O871   O     0.68024   0.10234   0.63065   0.00000  Uiso   1.00
H872   H     0.67255   0.07851   0.60814   0.00000  Uiso   1.00
C873   C     0.68515   0.12082   0.99974   0.00000  Uiso   1.00
O874   O     0.99895   0.12650   0.54533   0.00000  Uiso   1.00
O875   O     0.99398   0.10038   0.96764   0.00000  Uiso   1.00
H876   H     0.96060   0.09155   0.98686   0.00000  Uiso   1.00
O877   O     0.12708   0.56011   0.75000   0.00000  Uiso   1.00
O878   O     0.20627   0.56012   0.75000   0.00000  Uiso   1.00
C879   C     0.16627   0.57913   0.75186   0.00000  Uiso   1.00
O880   O     0.10775   0.49998   0.82549   0.00000  Uiso   1.00
O881   O     0.18694   0.49999   0.82549   0.00000  Uiso   1.00
C882   C     0.14187   0.49615   0.84883   0.00000  Uiso   1.00
Cu883  Cu    0.11978   0.49999   0.75000   0.00000  Uiso   1.00
Cu884  Cu    0.21355   0.50001   0.75000   0.00000  Uiso   1.00
O885   O     0.12706   0.43988   0.74999   0.00000  Uiso   1.00
O886   O     0.20625   0.43989   0.74999   0.00000  Uiso   1.00
O887   O     0.14640   0.50001   0.67451   0.00000  Uiso   1.00
O888   O     0.22559   0.50002   0.67451   0.00000  Uiso   1.00
C889   C     0.16615   0.42092   0.75126   0.00000  Uiso   1.00
C890   C     0.19186   0.50126   0.65085   0.00000  Uiso   1.00
C891   C     0.26295   0.51756   0.51660   0.00000  Uiso   1.00
H892   H     0.27605   0.52736   0.59000   0.00000  Uiso   1.00
H893   H     0.28465   0.49946   0.91702   0.00000  Uiso   1.00
H894   H     0.29894   0.52678   0.99676   0.00000  Uiso   1.00
C895   C     0.20467   0.50411   0.59549   0.00000  Uiso   1.00
C896   C     0.08213   0.47716   0.92691   0.00000  Uiso   1.00
C897   C     0.06763   0.46924   0.97830   0.00000  Uiso   1.00
C898   C     0.09974   0.47574   0.50848   0.00000  Uiso   1.00
C899   C     0.14853   0.48548   0.98609   0.00000  Uiso   1.00
C900   C     0.16459   0.48592   0.93194   0.00000  Uiso   1.00
C901   C     0.18236   0.49430   0.51513   0.00000  Uiso   1.00
C902   C     0.23055   0.50374   0.98936   0.00000  Uiso   1.00
C903   C     0.24678   0.49698   0.93674   0.00000  Uiso   1.00
C904   C     0.21485   0.48533   0.90896   0.00000  Uiso   1.00
C905   C     0.17038   0.49431   0.56869   0.00000  Uiso   1.00
C906   C     0.25008   0.51769   0.56952   0.00000  Uiso   1.00
C907   C     0.12987   0.48639   0.90318   0.00000  Uiso   1.00
H908   H     0.13498   0.48605   0.59036   0.00000  Uiso   1.00
H909   H     0.05589   0.47541   0.90502   0.00000  Uiso   1.00
H910   H     0.08606   0.47158   0.54874   0.00000  Uiso   1.00
H911   H     0.23138   0.47490   0.86982   0.00000  Uiso   1.00
C912   C     0.20160   0.64351   0.71994   0.00000  Uiso   1.00
H913   H     0.22952   0.62569   0.69194   0.00000  Uiso   1.00
C914   C     0.20104   0.35270   0.71903   0.00000  Uiso   1.00
H915   H     0.22853   0.36698   0.69025   0.00000  Uiso   1.00
C916   C     0.16488   0.37631   0.75388   0.00000  Uiso   1.00
C917   C     0.12886   0.35719   0.79118   0.00000  Uiso   1.00
C918   C     0.12902   0.64696   0.79182   0.00000  Uiso   1.00
C919   C     0.16559   0.62389   0.75526   0.00000  Uiso   1.00
C920   C     0.30194   0.52990   0.77821   0.00000  Uiso   1.00
C921   C     0.01811   0.53008   0.77718   0.00000  Uiso   1.00
H922   H     0.03136   0.55440   0.79878   0.00000  Uiso   1.00
N923   N     0.04931   0.49999   0.74998   0.00000  Uiso   1.00
C924   C     0.03184   0.46963   0.72272   0.00000  Uiso   1.00
C925   C     0.31720   0.47189   0.71818   0.00000  Uiso   1.00
N926   N     0.28402   0.50002   0.74999   0.00000  Uiso   1.00
C927   C     0.09422   0.38250   0.83223   0.00000  Uiso   1.00
O928   O     0.09849   0.38428   0.87577   0.00000  Uiso   1.00
O929   O     0.05595   0.40291   0.82148   0.00000  Uiso   1.00
H930   H     0.03404   0.41816   0.85285   0.00000  Uiso   1.00
C931   C     0.09225   0.62580   0.83127   0.00000  Uiso   1.00
O932   O     0.04988   0.63625   0.84146   0.00000  Uiso   1.00
O933   O     0.10625   0.59404   0.85684   0.00000  Uiso   1.00
H934   H     0.07807   0.58199   0.88257   0.00000  Uiso   1.00
N935   N     0.27248   0.56417   0.80466   0.00000  Uiso   1.00
O936   O     0.24351   0.56017   0.84976   0.00000  Uiso   1.00
O937   O     0.28332   0.60125   0.78979   0.00000  Uiso   1.00
C938   C     0.06135   0.43223   0.70034   0.00000  Uiso   1.00
O939   O     0.09702   0.43446   0.66425   0.00000  Uiso   1.00
O940   O     0.04587   0.39365   0.71834   0.00000  Uiso   1.00
H941   H     0.06836   0.37017   0.69986   0.00000  Uiso   1.00
C942   C     0.30834   0.44635   0.67326   0.00000  Uiso   1.00
O943   O     0.26924   0.43299   0.67299   0.00000  Uiso   1.00
O944   O     0.01357   0.43567   0.63065   0.00000  Uiso   1.00
H945   H     0.00588   0.41185   0.60814   0.00000  Uiso   1.00
C946   C     0.01848   0.45415   0.99974   0.00000  Uiso   1.00
O947   O     0.33228   0.45983   0.54533   0.00000  Uiso   1.00
O948   O     0.32731   0.43372   0.96764   0.00000  Uiso   1.00
H949   H     0.29393   0.42488   0.98686   0.00000  Uiso   1.00
O950   O     0.46042   0.56011   0.75000   0.00000  Uiso   1.00
O951   O     0.53961   0.56012   0.75000   0.00000  Uiso   1.00
C952   C     0.49961   0.57913   0.75186   0.00000  Uiso   1.00
O953   O     0.44108   0.49998   0.82549   0.00000  Uiso   1.00
O954   O     0.52027   0.49999   0.82549   0.00000  Uiso   1.00
C955   C     0.47521   0.49615   0.84883   0.00000  Uiso   1.00
Cu956  Cu    0.45311   0.49999   0.75000   0.00000  Uiso   1.00
Cu957  Cu    0.54689   0.50001   0.75000   0.00000  Uiso   1.00
O958   O     0.46039   0.43988   0.74999   0.00000  Uiso   1.00
O959   O     0.53958   0.43989   0.74999   0.00000  Uiso   1.00
O960   O     0.47973   0.50001   0.67451   0.00000  Uiso   1.00
O961   O     0.55892   0.50002   0.67451   0.00000  Uiso   1.00
C962   C     0.49948   0.42092   0.75126   0.00000  Uiso   1.00
C963   C     0.52519   0.50126   0.65085   0.00000  Uiso   1.00
C964   C     0.59628   0.51756   0.51660   0.00000  Uiso   1.00
H965   H     0.60938   0.52736   0.59000   0.00000  Uiso   1.00
H966   H     0.61798   0.49946   0.91702   0.00000  Uiso   1.00
H967   H     0.63228   0.52678   0.99676   0.00000  Uiso   1.00
C968   C     0.53800   0.50411   0.59549   0.00000  Uiso   1.00
C969   C     0.41547   0.47716   0.92691   0.00000  Uiso   1.00
C970   C     0.40096   0.46924   0.97830   0.00000  Uiso   1.00
C971   C     0.43307   0.47574   0.50848   0.00000  Uiso   1.00
C972   C     0.48186   0.48548   0.98609   0.00000  Uiso   1.00
C973   C     0.49793   0.48592   0.93194   0.00000  Uiso   1.00
C974   C     0.51569   0.49430   0.51513   0.00000  Uiso   1.00
C975   C     0.56388   0.50374   0.98936   0.00000  Uiso   1.00
C976   C     0.58011   0.49698   0.93674   0.00000  Uiso   1.00
C977   C     0.54819   0.48533   0.90896   0.00000  Uiso   1.00
C978   C     0.50371   0.49431   0.56869   0.00000  Uiso   1.00
C979   C     0.58341   0.51769   0.56952   0.00000  Uiso   1.00
C980   C     0.46320   0.48639   0.90318   0.00000  Uiso   1.00
H981   H     0.46831   0.48605   0.59036   0.00000  Uiso   1.00
H982   H     0.38923   0.47541   0.90502   0.00000  Uiso   1.00
H983   H     0.41939   0.47158   0.54874   0.00000  Uiso   1.00
H984   H     0.56471   0.47490   0.86982   0.00000  Uiso   1.00
C985   C     0.53493   0.64351   0.71994   0.00000  Uiso   1.00
H986   H     0.56285   0.62569   0.69194   0.00000  Uiso   1.00
C987   C     0.53437   0.35270   0.71903   0.00000  Uiso   1.00
H988   H     0.56186   0.36698   0.69025   0.00000  Uiso   1.00
C989   C     0.49821   0.37631   0.75388   0.00000  Uiso   1.00
C990   C     0.46219   0.35719   0.79118   0.00000  Uiso   1.00
C991   C     0.46235   0.64696   0.79182   0.00000  Uiso   1.00
C992   C     0.49892   0.62389   0.75526   0.00000  Uiso   1.00
C993   C     0.63527   0.52990   0.77821   0.00000  Uiso   1.00
C994   C     0.35145   0.53008   0.77718   0.00000  Uiso   1.00
H995   H     0.36469   0.55440   0.79878   0.00000  Uiso   1.00
N996   N     0.38265   0.49999   0.74998   0.00000  Uiso   1.00
C997   C     0.36517   0.46963   0.72272   0.00000  Uiso   1.00
C998   C     0.65054   0.47189   0.71818   0.00000  Uiso   1.00
N999   N     0.61735   0.50002   0.74999   0.00000  Uiso   1.00
C1000  C     0.42755   0.38250   0.83223   0.00000  Uiso   1.00
O1001  O     0.43182   0.38428   0.87577   0.00000  Uiso   1.00
O1002  O     0.38928   0.40291   0.82148   0.00000  Uiso   1.00
H1003  H     0.36737   0.41816   0.85285   0.00000  Uiso   1.00
C1004  C     0.42559   0.62580   0.83127   0.00000  Uiso   1.00
O1005  O     0.38321   0.63625   0.84146   0.00000  Uiso   1.00
O1006  O     0.43958   0.59404   0.85684   0.00000  Uiso   1.00
H1007  H     0.41141   0.58199   0.88257   0.00000  Uiso   1.00
N1008  N     0.60582   0.56417   0.80466   0.00000  Uiso   1.00
O1009  O     0.57684   0.56017   0.84976   0.00000  Uiso   1.00
O1010  O     0.61666   0.60125   0.78979   0.00000  Uiso   1.00
C1011  C     0.39468   0.43223   0.70034   0.00000  Uiso   1.00
O1012  O     0.43036   0.43446   0.66425   0.00000  Uiso   1.00
O1013  O     0.37920   0.39365   0.71834   0.00000  Uiso   1.00
H1014  H     0.40169   0.37017   0.69986   0.00000  Uiso   1.00
C1015  C     0.64168   0.44635   0.67326   0.00000  Uiso   1.00
O1016  O     0.60257   0.43299   0.67299   0.00000  Uiso   1.00
O1017  O     0.34690   0.43567   0.63065   0.00000  Uiso   1.00
H1018  H     0.33922   0.41185   0.60814   0.00000  Uiso   1.00
C1019  C     0.35181   0.45415   0.99974   0.00000  Uiso   1.00
O1020  O     0.66562   0.45983   0.54533   0.00000  Uiso   1.00
O1021  O     0.66064   0.43372   0.96764   0.00000  Uiso   1.00
H1022  H     0.62726   0.42488   0.98686   0.00000  Uiso   1.00
O1023  O     0.79375   0.56011   0.75000   0.00000  Uiso   1.00
O1024  O     0.87294   0.56012   0.75000   0.00000  Uiso   1.00
C1025  C     0.83294   0.57913   0.75186   0.00000  Uiso   1.00
O1026  O     0.77441   0.49998   0.82549   0.00000  Uiso   1.00
O1027  O     0.85360   0.49999   0.82549   0.00000  Uiso   1.00
C1028  C     0.80854   0.49615   0.84883   0.00000  Uiso   1.00
Cu1029 Cu    0.78645   0.49999   0.75000   0.00000  Uiso   1.00
Cu1030 Cu    0.88022   0.50001   0.75000   0.00000  Uiso   1.00
O1031  O     0.79373   0.43988   0.74999   0.00000  Uiso   1.00
O1032  O     0.87292   0.43989   0.74999   0.00000  Uiso   1.00
O1033  O     0.81306   0.50001   0.67451   0.00000  Uiso   1.00
O1034  O     0.89225   0.50002   0.67451   0.00000  Uiso   1.00
C1035  C     0.83281   0.42092   0.75126   0.00000  Uiso   1.00
C1036  C     0.85852   0.50126   0.65085   0.00000  Uiso   1.00
C1037  C     0.92962   0.51756   0.51660   0.00000  Uiso   1.00
H1038  H     0.94272   0.52736   0.59000   0.00000  Uiso   1.00
H1039  H     0.95132   0.49946   0.91702   0.00000  Uiso   1.00
H1040  H     0.96561   0.52678   0.99676   0.00000  Uiso   1.00
C1041  C     0.87133   0.50411   0.59549   0.00000  Uiso   1.00
C1042  C     0.74880   0.47716   0.92691   0.00000  Uiso   1.00
C1043  C     0.73429   0.46924   0.97830   0.00000  Uiso   1.00
C1044  C     0.76641   0.47574   0.50848   0.00000  Uiso   1.00
C1045  C     0.81519   0.48548   0.98609   0.00000  Uiso   1.00
C1046  C     0.83126   0.48592   0.93194   0.00000  Uiso   1.00
C1047  C     0.84903   0.49430   0.51513   0.00000  Uiso   1.00
C1048  C     0.89721   0.50374   0.98936   0.00000  Uiso   1.00
C1049  C     0.91344   0.49698   0.93674   0.00000  Uiso   1.00
C1050  C     0.88152   0.48533   0.90896   0.00000  Uiso   1.00
C1051  C     0.83704   0.49431   0.56869   0.00000  Uiso   1.00
C1052  C     0.91675   0.51769   0.56952   0.00000  Uiso   1.00
C1053  C     0.79654   0.48639   0.90318   0.00000  Uiso   1.00
H1054  H     0.80165   0.48605   0.59036   0.00000  Uiso   1.00
H1055  H     0.72256   0.47541   0.90502   0.00000  Uiso   1.00
H1056  H     0.75272   0.47158   0.54874   0.00000  Uiso   1.00
H1057  H     0.89804   0.47490   0.86982   0.00000  Uiso   1.00
C1058  C     0.86827   0.64351   0.71994   0.00000  Uiso   1.00
H1059  H     0.89619   0.62569   0.69194   0.00000  Uiso   1.00
C1060  C     0.86770   0.35270   0.71903   0.00000  Uiso   1.00
H1061  H     0.89520   0.36698   0.69025   0.00000  Uiso   1.00
C1062  C     0.83155   0.37631   0.75388   0.00000  Uiso   1.00
C1063  C     0.79553   0.35719   0.79118   0.00000  Uiso   1.00
C1064  C     0.79569   0.64696   0.79182   0.00000  Uiso   1.00
C1065  C     0.83225   0.62389   0.75526   0.00000  Uiso   1.00
C1066  C     0.96860   0.52990   0.77821   0.00000  Uiso   1.00
C1067  C     0.68478   0.53008   0.77718   0.00000  Uiso   1.00
H1068  H     0.69803   0.55440   0.79878   0.00000  Uiso   1.00
N1069  N     0.71598   0.49999   0.74998   0.00000  Uiso   1.00
C1070  C     0.69850   0.46963   0.72272   0.00000  Uiso   1.00
C1071  C     0.98387   0.47189   0.71818   0.00000  Uiso   1.00
N1072  N     0.95069   0.50002   0.74999   0.00000  Uiso   1.00
C1073  C     0.76088   0.38250   0.83223   0.00000  Uiso   1.00
O1074  O     0.76515   0.38428   0.87577   0.00000  Uiso   1.00
O1075  O     0.72261   0.40291   0.82148   0.00000  Uiso   1.00
H1076  H     0.70071   0.41816   0.85285   0.00000  Uiso   1.00
C1077  C     0.75892   0.62580   0.83127   0.00000  Uiso   1.00
O1078  O     0.71654   0.63625   0.84146   0.00000  Uiso   1.00
O1079  O     0.77291   0.59404   0.85684   0.00000  Uiso   1.00
H1080  H     0.74474   0.58199   0.88257   0.00000  Uiso   1.00
N1081  N     0.93915   0.56417   0.80466   0.00000  Uiso   1.00
O1082  O     0.91018   0.56017   0.84976   0.00000  Uiso   1.00
O1083  O     0.94999   0.60125   0.78979   0.00000  Uiso   1.00
C1084  C     0.72801   0.43223   0.70034   0.00000  Uiso   1.00
O1085  O     0.76369   0.43446   0.66425   0.00000  Uiso   1.00
O1086  O     0.71253   0.39365   0.71834   0.00000  Uiso   1.00
H1087  H     0.73502   0.37017   0.69986   0.00000  Uiso   1.00
C1088  C     0.97501   0.44635   0.67326   0.00000  Uiso   1.00
O1089  O     0.93590   0.43299   0.67299   0.00000  Uiso   1.00
O1090  O     0.68024   0.43567   0.63065   0.00000  Uiso   1.00
H1091  H     0.67255   0.41185   0.60814   0.00000  Uiso   1.00
C1092  C     0.68515   0.45415   0.99974   0.00000  Uiso   1.00
O1093  O     0.99895   0.45983   0.54533   0.00000  Uiso   1.00
O1094  O     0.99398   0.43372   0.96764   0.00000  Uiso   1.00
H1095  H     0.96060   0.42488   0.98686   0.00000  Uiso   1.00
O1096  O     0.12708   0.89345   0.75000   0.00000  Uiso   1.00
O1097  O     0.20627   0.89346   0.75000   0.00000  Uiso   1.00
C1098  C     0.16627   0.91247   0.75186   0.00000  Uiso   1.00
O1099  O     0.10775   0.83332   0.82549   0.00000  Uiso   1.00
O1100  O     0.18694   0.83333   0.82549   0.00000  Uiso   1.00
C1101  C     0.14187   0.82948   0.84883   0.00000  Uiso   1.00
Cu1102 Cu    0.11978   0.83333   0.75000   0.00000  Uiso   1.00
Cu1103 Cu    0.21355   0.83334   0.75000   0.00000  Uiso   1.00
O1104  O     0.12706   0.77321   0.74999   0.00000  Uiso   1.00
O1105  O     0.20625   0.77322   0.74999   0.00000  Uiso   1.00
O1106  O     0.14640   0.83334   0.67451   0.00000  Uiso   1.00
O1107  O     0.22559   0.83335   0.67451   0.00000  Uiso   1.00
C1108  C     0.16615   0.75425   0.75126   0.00000  Uiso   1.00
C1109  C     0.19186   0.83460   0.65085   0.00000  Uiso   1.00
C1110  C     0.26295   0.85089   0.51660   0.00000  Uiso   1.00
H1111  H     0.27605   0.86069   0.59000   0.00000  Uiso   1.00
H1112  H     0.28465   0.83279   0.91702   0.00000  Uiso   1.00
H1113  H     0.29894   0.86012   0.99676   0.00000  Uiso   1.00
C1114  C     0.20467   0.83744   0.59549   0.00000  Uiso   1.00
C1115  C     0.08213   0.81049   0.92691   0.00000  Uiso   1.00
C1116  C     0.06763   0.80257   0.97830   0.00000  Uiso   1.00
C1117  C     0.09974   0.80907   0.50848   0.00000  Uiso   1.00
C1118  C     0.14853   0.81881   0.98609   0.00000  Uiso   1.00
C1119  C     0.16459   0.81925   0.93194   0.00000  Uiso   1.00
C1120  C     0.18236   0.82764   0.51513   0.00000  Uiso   1.00
C1121  C     0.23055   0.83708   0.98936   0.00000  Uiso   1.00
C1122  C     0.24678   0.83031   0.93674   0.00000  Uiso   1.00
C1123  C     0.21485   0.81866   0.90896   0.00000  Uiso   1.00
C1124  C     0.17038   0.82765   0.56869   0.00000  Uiso   1.00
C1125  C     0.25008   0.85102   0.56952   0.00000  Uiso   1.00
C1126  C     0.12987   0.81972   0.90318   0.00000  Uiso   1.00
H1127  H     0.13498   0.81938   0.59036   0.00000  Uiso   1.00
H1128  H     0.05589   0.80874   0.90502   0.00000  Uiso   1.00
H1129  H     0.08606   0.80491   0.54874   0.00000  Uiso   1.00
H1130  H     0.23138   0.80824   0.86982   0.00000  Uiso   1.00
C1131  C     0.20160   0.97684   0.71994   0.00000  Uiso   1.00
H1132  H     0.22952   0.95902   0.69194   0.00000  Uiso   1.00
C1133  C     0.20104   0.68603   0.71903   0.00000  Uiso   1.00
H1134  H     0.22853   0.70032   0.69025   0.00000  Uiso   1.00
C1135  C     0.16488   0.70964   0.75388   0.00000  Uiso   1.00
C1136  C     0.12886   0.69052   0.79118   0.00000  Uiso   1.00
C1137  C     0.12902   0.98030   0.79182   0.00000  Uiso   1.00
C1138  C     0.16559   0.95723   0.75526   0.00000  Uiso   1.00
C1139  C     0.30194   0.86324   0.77821   0.00000  Uiso   1.00
C1140  C     0.01811   0.86341   0.77718   0.00000  Uiso   1.00
H1141  H     0.03136   0.88774   0.79878   0.00000  Uiso   1.00
N1142  N     0.04931   0.83332   0.74998   0.00000  Uiso   1.00
C1143  C     0.03184   0.80297   0.72272   0.00000  Uiso   1.00
C1144  C     0.31720   0.80522   0.71818   0.00000  Uiso   1.00
N1145  N     0.28402   0.83335   0.74999   0.00000  Uiso   1.00
C1146  C     0.09422   0.71583   0.83223   0.00000  Uiso   1.00
O1147  O     0.09849   0.71762   0.87577   0.00000  Uiso   1.00
O1148  O     0.05595   0.73624   0.82148   0.00000  Uiso   1.00
H1149  H     0.03404   0.75150   0.85285   0.00000  Uiso   1.00
C1150  C     0.09225   0.95914   0.83127   0.00000  Uiso   1.00
O1151  O     0.04988   0.96958   0.84146   0.00000  Uiso   1.00
O1152  O     0.10625   0.92737   0.85684   0.00000  Uiso   1.00
H1153  H     0.07807   0.91532   0.88257   0.00000  Uiso   1.00
N1154  N     0.27248   0.89750   0.80466   0.00000  Uiso   1.00
O1155  O     0.24351   0.89351   0.84976   0.00000  Uiso   1.00
O1156  O     0.28332   0.93459   0.78979   0.00000  Uiso   1.00
C1157  C     0.06135   0.76556   0.70034   0.00000  Uiso   1.00
O1158  O     0.09702   0.76779   0.66425   0.00000  Uiso   1.00
O1159  O     0.04587   0.72698   0.71834   0.00000  Uiso   1.00
H1160  H     0.06836   0.70351   0.69986   0.00000  Uiso   1.00
C1161  C     0.30834   0.77968   0.67326   0.00000  Uiso   1.00
O1162  O     0.26924   0.76633   0.67299   0.00000  Uiso   1.00
O1163  O     0.01357   0.76900   0.63065   0.00000  Uiso   1.00
H1164  H     0.00588   0.74518   0.60814   0.00000  Uiso   1.00
C1165  C     0.01848   0.78749   0.99974   0.00000  Uiso   1.00
O1166  O     0.33228   0.79316   0.54533   0.00000  Uiso   1.00
O1167  O     0.32731   0.76705   0.96764   0.00000  Uiso   1.00
H1168  H     0.29393   0.75821   0.98686   0.00000  Uiso   1.00
O1169  O     0.46042   0.89345   0.75000   0.00000  Uiso   1.00
O1170  O     0.53961   0.89346   0.75000   0.00000  Uiso   1.00
C1171  C     0.49961   0.91247   0.75186   0.00000  Uiso   1.00
O1172  O     0.44108   0.83332   0.82549   0.00000  Uiso   1.00
O1173  O     0.52027   0.83333   0.82549   0.00000  Uiso   1.00
C1174  C     0.47521   0.82948   0.84883   0.00000  Uiso   1.00
Cu1175 Cu    0.45311   0.83333   0.75000   0.00000  Uiso   1.00
Cu1176 Cu    0.54689   0.83334   0.75000   0.00000  Uiso   1.00
O1177  O     0.46039   0.77321   0.74999   0.00000  Uiso   1.00
O1178  O     0.53958   0.77322   0.74999   0.00000  Uiso   1.00
O1179  O     0.47973   0.83334   0.67451   0.00000  Uiso   1.00
O1180  O     0.55892   0.83335   0.67451   0.00000  Uiso   1.00
C1181  C     0.49948   0.75425   0.75126   0.00000  Uiso   1.00
C1182  C     0.52519   0.83460   0.65085   0.00000  Uiso   1.00
C1183  C     0.59628   0.85089   0.51660   0.00000  Uiso   1.00
H1184  H     0.60938   0.86069   0.59000   0.00000  Uiso   1.00
H1185  H     0.61798   0.83279   0.91702   0.00000  Uiso   1.00
H1186  H     0.63228   0.86012   0.99676   0.00000  Uiso   1.00
C1187  C     0.53800   0.83744   0.59549   0.00000  Uiso   1.00
C1188  C     0.41547   0.81049   0.92691   0.00000  Uiso   1.00
C1189  C     0.40096   0.80257   0.97830   0.00000  Uiso   1.00
C1190  C     0.43307   0.80907   0.50848   0.00000  Uiso   1.00
C1191  C     0.48186   0.81881   0.98609   0.00000  Uiso   1.00
C1192  C     0.49793   0.81925   0.93194   0.00000  Uiso   1.00
C1193  C     0.51569   0.82764   0.51513   0.00000  Uiso   1.00
C1194  C     0.56388   0.83708   0.98936   0.00000  Uiso   1.00
C1195  C     0.58011   0.83031   0.93674   0.00000  Uiso   1.00
C1196  C     0.54819   0.81866   0.90896   0.00000  Uiso   1.00
C1197  C     0.50371   0.82765   0.56869   0.00000  Uiso   1.00
C1198  C     0.58341   0.85102   0.56952   0.00000  Uiso   1.00
C1199  C     0.46320   0.81972   0.90318   0.00000  Uiso   1.00
H1200  H     0.46831   0.81938   0.59036   0.00000  Uiso   1.00
H1201  H     0.38923   0.80874   0.90502   0.00000  Uiso   1.00
H1202  H     0.41939   0.80491   0.54874   0.00000  Uiso   1.00
H1203  H     0.56471   0.80824   0.86982   0.00000  Uiso   1.00
C1204  C     0.53493   0.97684   0.71994   0.00000  Uiso   1.00
H1205  H     0.56285   0.95902   0.69194   0.00000  Uiso   1.00
C1206  C     0.53437   0.68603   0.71903   0.00000  Uiso   1.00
H1207  H     0.56186   0.70032   0.69025   0.00000  Uiso   1.00
C1208  C     0.49821   0.70964   0.75388   0.00000  Uiso   1.00
C1209  C     0.46219   0.69052   0.79118   0.00000  Uiso   1.00
C1210  C     0.46235   0.98030   0.79182   0.00000  Uiso   1.00
C1211  C     0.49892   0.95723   0.75526   0.00000  Uiso   1.00
C1212  C     0.63527   0.86324   0.77821   0.00000  Uiso   1.00
C1213  C     0.35145   0.86341   0.77718   0.00000  Uiso   1.00
H1214  H     0.36469   0.88774   0.79878   0.00000  Uiso   1.00
N1215  N     0.38265   0.83332   0.74998   0.00000  Uiso   1.00
C1216  C     0.36517   0.80297   0.72272   0.00000  Uiso   1.00
C1217  C     0.65054   0.80522   0.71818   0.00000  Uiso   1.00
N1218  N     0.61735   0.83335   0.74999   0.00000  Uiso   1.00
C1219  C     0.42755   0.71583   0.83223   0.00000  Uiso   1.00
O1220  O     0.43182   0.71762   0.87577   0.00000  Uiso   1.00
O1221  O     0.38928   0.73624   0.82148   0.00000  Uiso   1.00
H1222  H     0.36737   0.75150   0.85285   0.00000  Uiso   1.00
C1223  C     0.42559   0.95914   0.83127   0.00000  Uiso   1.00
O1224  O     0.38321   0.96958   0.84146   0.00000  Uiso   1.00
O1225  O     0.43958   0.92737   0.85684   0.00000  Uiso   1.00
H1226  H     0.41141   0.91532   0.88257   0.00000  Uiso   1.00
N1227  N     0.60582   0.89750   0.80466   0.00000  Uiso   1.00
O1228  O     0.57684   0.89351   0.84976   0.00000  Uiso   1.00
O1229  O     0.61666   0.93459   0.78979   0.00000  Uiso   1.00
C1230  C     0.39468   0.76556   0.70034   0.00000  Uiso   1.00
O1231  O     0.43036   0.76779   0.66425   0.00000  Uiso   1.00
O1232  O     0.37920   0.72698   0.71834   0.00000  Uiso   1.00
H1233  H     0.40169   0.70351   0.69986   0.00000  Uiso   1.00
C1234  C     0.64168   0.77968   0.67326   0.00000  Uiso   1.00
O1235  O     0.60257   0.76633   0.67299   0.00000  Uiso   1.00
O1236  O     0.34690   0.76900   0.63065   0.00000  Uiso   1.00
H1237  H     0.33922   0.74518   0.60814   0.00000  Uiso   1.00
C1238  C     0.35181   0.78749   0.99974   0.00000  Uiso   1.00
O1239  O     0.66562   0.79316   0.54533   0.00000  Uiso   1.00
O1240  O     0.66064   0.76705   0.96764   0.00000  Uiso   1.00
H1241  H     0.62726   0.75821   0.98686   0.00000  Uiso   1.00
O1242  O     0.79375   0.89345   0.75000   0.00000  Uiso   1.00
O1243  O     0.87294   0.89346   0.75000   0.00000  Uiso   1.00
C1244  C     0.83294   0.91247   0.75186   0.00000  Uiso   1.00
O1245  O     0.77441   0.83332   0.82549   0.00000  Uiso   1.00
O1246  O     0.85360   0.83333   0.82549   0.00000  Uiso   1.00
C1247  C     0.80854   0.82948   0.84883   0.00000  Uiso   1.00
Cu1248 Cu    0.78645   0.83333   0.75000   0.00000  Uiso   1.00
Cu1249 Cu    0.88022   0.83334   0.75000   0.00000  Uiso   1.00
O1250  O     0.79373   0.77321   0.74999   0.00000  Uiso   1.00
O1251  O     0.87292   0.77322   0.74999   0.00000  Uiso   1.00
O1252  O     0.81306   0.83334   0.67451   0.00000  Uiso   1.00
O1253  O     0.89225   0.83335   0.67451   0.00000  Uiso   1.00
C1254  C     0.83281   0.75425   0.75126   0.00000  Uiso   1.00
C1255  C     0.85852   0.83460   0.65085   0.00000  Uiso   1.00
C1256  C     0.92962   0.85089   0.51660   0.00000  Uiso   1.00
H1257  H     0.94272   0.86069   0.59000   0.00000  Uiso   1.00
H1258  H     0.95132   0.83279   0.91702   0.00000  Uiso   1.00
H1259  H     0.96561   0.86012   0.99676   0.00000  Uiso   1.00
C1260  C     0.87133   0.83744   0.59549   0.00000  Uiso   1.00
C1261  C     0.74880   0.81049   0.92691   0.00000  Uiso   1.00
C1262  C     0.73429   0.80257   0.97830   0.00000  Uiso   1.00
C1263  C     0.76641   0.80907   0.50848   0.00000  Uiso   1.00
C1264  C     0.81519   0.81881   0.98609   0.00000  Uiso   1.00
C1265  C     0.83126   0.81925   0.93194   0.00000  Uiso   1.00
C1266  C     0.84903   0.82764   0.51513   0.00000  Uiso   1.00
C1267  C     0.89721   0.83708   0.98936   0.00000  Uiso   1.00
C1268  C     0.91344   0.83031   0.93674   0.00000  Uiso   1.00
C1269  C     0.88152   0.81866   0.90896   0.00000  Uiso   1.00
C1270  C     0.83704   0.82765   0.56869   0.00000  Uiso   1.00
C1271  C     0.91675   0.85102   0.56952   0.00000  Uiso   1.00
C1272  C     0.79654   0.81972   0.90318   0.00000  Uiso   1.00
H1273  H     0.80165   0.81938   0.59036   0.00000  Uiso   1.00
H1274  H     0.72256   0.80874   0.90502   0.00000  Uiso   1.00
H1275  H     0.75272   0.80491   0.54874   0.00000  Uiso   1.00
H1276  H     0.89804   0.80824   0.86982   0.00000  Uiso   1.00
C1277  C     0.86827   0.97684   0.71994   0.00000  Uiso   1.00
H1278  H     0.89619   0.95902   0.69194   0.00000  Uiso   1.00
C1279  C     0.86770   0.68603   0.71903   0.00000  Uiso   1.00
H1280  H     0.89520   0.70032   0.69025   0.00000  Uiso   1.00
C1281  C     0.83155   0.70964   0.75388   0.00000  Uiso   1.00
C1282  C     0.79553   0.69052   0.79118   0.00000  Uiso   1.00
C1283  C     0.79569   0.98030   0.79182   0.00000  Uiso   1.00
C1284  C     0.83225   0.95723   0.75526   0.00000  Uiso   1.00
C1285  C     0.96860   0.86324   0.77821   0.00000  Uiso   1.00
C1286  C     0.68478   0.86341   0.77718   0.00000  Uiso   1.00
H1287  H     0.69803   0.88774   0.79878   0.00000  Uiso   1.00
N1288  N     0.71598   0.83332   0.74998   0.00000  Uiso   1.00
C1289  C     0.69850   0.80297   0.72272   0.00000  Uiso   1.00
C1290  C     0.98387   0.80522   0.71818   0.00000  Uiso   1.00
N1291  N     0.95069   0.83335   0.74999   0.00000  Uiso   1.00
C1292  C     0.76088   0.71583   0.83223   0.00000  Uiso   1.00
O1293  O     0.76515   0.71762   0.87577   0.00000  Uiso   1.00
O1294  O     0.72261   0.73624   0.82148   0.00000  Uiso   1.00
H1295  H     0.70071   0.75150   0.85285   0.00000  Uiso   1.00
C1296  C     0.75892   0.95914   0.83127   0.00000  Uiso   1.00
O1297  O     0.71654   0.96958   0.84146   0.00000  Uiso   1.00
O1298  O     0.77291   0.92737   0.85684   0.00000  Uiso   1.00
H1299  H     0.74474   0.91532   0.88257   0.00000  Uiso   1.00
N1300  N     0.93915   0.89750   0.80466   0.00000  Uiso   1.00
O1301  O     0.91018   0.89351   0.84976   0.00000  Uiso   1.00
O1302  O     0.94999   0.93459   0.78979   0.00000  Uiso   1.00
C1303  C     0.72801   0.76556   0.70034   0.00000  Uiso   1.00
O1304  O     0.76369   0.76779   0.66425   0.00000  Uiso   1.00
O1305  O     0.71253   0.72698   0.71834   0.00000  Uiso   1.00
H1306  H     0.73502   0.70351   0.69986   0.00000  Uiso   1.00
C1307  C     0.97501   0.77968   0.67326   0.00000  Uiso   1.00
O1308  O     0.93590   0.76633   0.67299   0.00000  Uiso   1.00
O1309  O     0.68024   0.76900   0.63065   0.00000  Uiso   1.00
H1310  H     0.67255   0.74518   0.60814   0.00000  Uiso   1.00
C1311  C     0.68515   0.78749   0.99974   0.00000  Uiso   1.00
O1312  O     0.99895   0.79316   0.54533   0.00000  Uiso   1.00
O1313  O     0.99398   0.76705   0.96764   0.00000  Uiso   1.00
H1314  H     0.96060   0.75821   0.98686   0.00000  Uiso   1.00
loop_
_geom_bond_atom_site_label_1
_geom_bond_atom_site_label_2
_geom_bond_distance
_geom_bond_site_symmetry_2
_ccdc_geom_bond_type
O1     Cu7     1.955   .     S
O1     C3      1.298   .     A
O2     C3      1.298   .     A
O2     Cu8     1.957   .     S
C3     C43     1.445   .     S
O4     Cu7     1.989   .     S
O4     C6      1.320   .     A
O5     Cu8     1.989   .     S
O5     C6      1.293   .     A
C6     C31     1.480   .     S
Cu7    O11     1.989   .     S
Cu7    O9      1.957   .     S
Cu7    Cu8     2.709   .     S
Cu7    N47     2.036   .     S
Cu8    N50     2.036   .     S
Cu8    O12     1.989   .     S
Cu8    O10     1.955   .     S
O9     C13     1.297   .     A
O10    C13     1.302   .     A
O11    C14     1.298   .     A
O12    C14     1.308   .     A
C13    C40     1.449   .     S
C14    C19     1.460   .     S
C15    C30     1.386   .     A
C15    H675    1.084   1_554 S
C15    C683    1.398   1_554 S
H16    C30     1.083   .     S
H17    C27     1.085   .     S
H18    C672    1.084   .     S
C19    C30     1.395   .     A
C19    C29     1.405   .     A
C20    C21     1.388   .     A
C20    H33     1.083   .     S
C20    C31     1.395   .     A
C21    C70     1.475   .     S
C21    C679    1.403   .     S
C22    H34     1.077   .     S
C22    C678    1.403   1_554 S
C22    C680    1.418   1_554 S
C23    C24     1.421   .     A
C23    C679    1.418   .     S
C23    C682    1.432   .     S
C24    C31     1.431   .     A
C24    C28     1.416   .     A
C25    C29     1.404   .     A
C25    C680    1.432   1_554 S
C25    C683    1.420   1_554 S
C26    C27     1.384   .     A
C26    C672    1.398   .     S
C26    C682    1.420   .     S
C27    C28     1.379   .     A
C28    H35     1.074   .     S
C29    H32     1.075   .     S
C36    H37     1.084   .     S
C36    C43     1.393   .     A
C36    C257    1.378   .     S
C38    C40     1.395   .     A
C38    H39     1.079   .     S
C38    C474    1.378   1_545 S
C40    C41     1.414   .     A
C41    C51     1.483   .     S
C41    C480    1.410   1_545 S
C42    C55     1.490   .     S
C42    C43     1.414   .     A
C42    C260    1.410   .     S
C44    N59     1.429   .     S
C44    N50     1.381   .     A
C44    C118    1.423   .     S
C45    H46     1.082   .     S
C45    N47     1.363   .     A
C45    C190    1.423   1_455 S
N47    C48     1.369   .     A
C48    C62     1.480   .     S
C48    C195    1.427   1_455 S
C49    C66     1.509   .     S
C49    N50     1.396   .     A
C49    C121    1.427   .     S
C51    O53     1.397   .     S
C51    O52     1.222   .     D
O53    H54     1.013   .     S
C55    O56     1.223   .     D
C55    O57     1.398   .     S
O57    H58     1.014   .     S
N59    O60     1.298   .     A
N59    O61     1.301   .     A
C62    O63     1.221   .     D
C62    O64     1.398   .     S
O64    H65     1.014   .     S
C66    O67     1.210   .     D
C66    O141    1.398   .     S
O68    H69     1.014   .     S
O68    C212    1.398   1_455 S
C70    O874    1.217   1_455 S
C70    O218    1.399   1_455 S
O71    C800    1.217   1_554 S
O72    H73     1.014   .     S
O72    C143    1.399   .     S
O74    Cu80    1.955   .     S
O74    C76     1.298   .     A
O75    C76     1.298   .     A
O75    Cu81    1.957   .     S
C76    C116    1.445   .     S
O77    Cu80    1.989   .     S
O77    C79     1.320   .     A
O78    Cu81    1.989   .     S
O78    C79     1.293   .     A
C79    C104    1.480   .     S
Cu80   O84     1.989   .     S
Cu80   O82     1.957   .     S
Cu80   Cu81    2.709   .     S
Cu80   N120    2.036   .     S
Cu81   N123    2.036   .     S
Cu81   O85     1.989   .     S
Cu81   O83     1.955   .     S
O82    C86     1.297   .     A
O83    C86     1.302   .     A
O84    C87     1.298   .     A
O85    C87     1.308   .     A
C86    C113    1.449   .     S
C87    C92     1.460   .     S
C88    C103    1.386   .     A
C88    H748    1.084   1_554 S
C88    C756    1.398   1_554 S
H89    C103    1.083   .     S
H90    C100    1.085   .     S
H91    C745    1.084   .     S
C92    C103    1.395   .     A
C92    C102    1.405   .     A
C93    C94     1.388   .     A
C93    H106    1.083   .     S
C93    C104    1.395   .     A
C94    C143    1.475   .     S
C94    C752    1.403   .     S
C95    H107    1.077   .     S
C95    C751    1.403   1_554 S
C95    C753    1.418   1_554 S
C96    C97     1.421   .     A
C96    C752    1.418   .     S
C96    C755    1.432   .     S
C97    C104    1.431   .     A
C97    C101    1.416   .     A
C98    C102    1.404   .     A
C98    C753    1.432   1_554 S
C98    C756    1.420   1_554 S
C99    C100    1.384   .     A
C99    C745    1.398   .     S
C99    C755    1.420   .     S
C100   C101    1.379   .     A
C101   H108    1.074   .     S
C102   H105    1.075   .     S
C109   H110    1.084   .     S
C109   C116    1.393   .     A
C109   C330    1.378   .     S
C111   C113    1.395   .     A
C111   H112    1.079   .     S
C111   C547    1.378   1_545 S
C113   C114    1.414   .     A
C114   C124    1.483   .     S
C114   C553    1.410   1_545 S
C115   C128    1.490   .     S
C115   C116    1.414   .     A
C115   C333    1.410   .     S
C117   N132    1.429   .     S
C117   N123    1.381   .     A
C117   C191    1.423   .     S
C118   H119    1.082   .     S
C118   N120    1.363   .     A
N120   C121    1.369   .     A
C121   C135    1.480   .     S
C122   C139    1.509   .     S
C122   N123    1.396   .     A
C122   C194    1.427   .     S
C124   O126    1.397   .     S
C124   O125    1.222   .     D
O126   H127    1.013   .     S
C128   O129    1.223   .     D
C128   O130    1.398   .     S
O130   H131    1.014   .     S
N132   O133    1.298   .     A
N132   O134    1.301   .     A
C135   O136    1.221   .     D
C135   O137    1.398   .     S
O137   H138    1.014   .     S
C139   O140    1.210   .     D
C139   O214    1.398   .     S
O141   H142    1.014   .     S
C143   O728    1.217   .     S
O144   C873    1.217   1_554 S
O145   H146    1.014   .     S
O145   C216    1.399   .     S
O147   Cu153   1.955   .     S
O147   C149    1.298   .     A
O148   C149    1.298   .     A
O148   Cu154   1.957   .     S
C149   C189    1.445   .     S
O150   Cu153   1.989   .     S
O150   C152    1.320   .     A
O151   Cu154   1.989   .     S
O151   C152    1.293   .     A
C152   C177    1.480   .     S
Cu153  O157    1.989   .     S
Cu153  O155    1.957   .     S
Cu153  Cu154   2.709   .     S
Cu153  N193    2.036   .     S
Cu154  N196    2.036   .     S
Cu154  O158    1.989   .     S
Cu154  O156    1.955   .     S
O155   C159    1.297   .     A
O156   C159    1.302   .     A
O157   C160    1.298   .     A
O158   C160    1.308   .     A
C159   C186    1.449   .     S
C160   C165    1.460   .     S
C161   C176    1.386   .     A
C161   H821    1.084   1_554 S
C161   C829    1.398   1_554 S
H162   C176    1.083   .     S
H163   C173    1.085   .     S
H164   C818    1.084   .     S
C165   C176    1.395   .     A
C165   C175    1.405   .     A
C166   C167    1.388   .     A
C166   H179    1.083   .     S
C166   C177    1.395   .     A
C167   C216    1.475   .     S
C167   C825    1.403   .     S
C168   H180    1.077   .     S
C168   C824    1.403   1_554 S
C168   C826    1.418   1_554 S
C169   C170    1.421   .     A
C169   C825    1.418   .     S
C169   C828    1.432   .     S
C170   C177    1.431   .     A
C170   C174    1.416   .     A
C171   C175    1.404   .     A
C171   C826    1.432   1_554 S
C171   C829    1.420   1_554 S
C172   C173    1.384   .     A
C172   C818    1.398   .     S
C172   C828    1.420   .     S
C173   C174    1.379   .     A
C174   H181    1.074   .     S
C175   H178    1.075   .     S
C182   H183    1.084   .     S
C182   C189    1.393   .     A
C182   C403    1.378   .     S
C184   C186    1.395   .     A
C184   H185    1.079   .     S
C184   C620    1.378   1_545 S
C186   C187    1.414   .     A
C187   C197    1.483   .     S
C187   C626    1.410   1_545 S
C188   C201    1.490   .     S
C188   C189    1.414   .     A
C188   C406    1.410   .     S
C190   N205    1.429   .     S
C190   N196    1.381   .     A
C190   C45     1.423   1_655 S
C191   H192    1.082   .     S
C191   N193    1.363   .     A
N193   C194    1.369   .     A
C194   C208    1.480   .     S
C195   C212    1.509   .     S
C195   N196    1.396   .     A
C195   C48     1.427   1_655 S
C197   O199    1.397   .     S
C197   O198    1.222   .     D
O199   H200    1.013   .     S
C201   O202    1.223   .     D
C201   O203    1.398   .     S
O203   H204    1.014   .     S
N205   O206    1.298   .     A
N205   O207    1.301   .     A
C208   O209    1.221   .     D
C208   O210    1.398   .     S
O210   H211    1.014   .     S
C212   O213    1.210   .     D
C212   O68     1.398   1_655 S
O214   H215    1.014   .     S
C216   O801    1.217   .     S
O217   C727    1.217   1_654 S
O218   H219    1.014   .     S
O218   C70     1.399   1_655 S
O220   Cu226   1.955   .     S
O220   C222    1.298   .     A
O221   C222    1.298   .     A
O221   Cu227   1.957   .     S
C222   C262    1.445   .     S
O223   Cu226   1.989   .     S
O223   C225    1.320   .     A
O224   Cu227   1.989   .     S
O224   C225    1.293   .     A
C225   C250    1.480   .     S
Cu226  O230    1.989   .     S
Cu226  O228    1.957   .     S
Cu226  Cu227   2.709   .     S
Cu226  N266    2.036   .     S
Cu227  N269    2.036   .     S
Cu227  O231    1.989   .     S
Cu227  O229    1.955   .     S
O228   C232    1.297   .     A
O229   C232    1.302   .     A
O230   C233    1.298   .     A
O231   C233    1.308   .     A
C232   C259    1.449   .     S
C233   C238    1.460   .     S
C234   C249    1.386   .     A
C234   H894    1.084   1_554 S
C234   C902    1.398   1_554 S
H235   C249    1.083   .     S
H236   C246    1.085   .     S
H237   C891    1.084   .     S
C238   C249    1.395   .     A
C238   C248    1.405   .     A
C239   C240    1.388   .     A
C239   H252    1.083   .     S
C239   C250    1.395   .     A
C240   C289    1.475   .     S
C240   C898    1.403   .     S
C241   H253    1.077   .     S
C241   C897    1.403   1_554 S
C241   C899    1.418   1_554 S
C242   C243    1.421   .     A
C242   C898    1.418   .     S
C242   C901    1.432   .     S
C243   C250    1.431   .     A
C243   C247    1.416   .     A
C244   C248    1.404   .     A
C244   C899    1.432   1_554 S
C244   C902    1.420   1_554 S
C245   C246    1.384   .     A
C245   C891    1.398   .     S
C245   C901    1.420   .     S
C246   C247    1.379   .     A
C247   H254    1.074   .     S
C248   H251    1.075   .     S
C255   H256    1.084   .     S
C255   C262    1.393   .     A
C255   C476    1.378   .     S
C257   C259    1.395   .     A
C257   H258    1.079   .     S
C259   C260    1.414   .     A
C260   C270    1.483   .     S
C261   C274    1.490   .     S
C261   C262    1.414   .     A
C261   C479    1.410   .     S
C263   N278    1.429   .     S
C263   N269    1.381   .     A
C263   C337    1.423   .     S
C264   H265    1.082   .     S
C264   N266    1.363   .     A
C264   C409    1.423   1_455 S
N266   C267    1.369   .     A
C267   C281    1.480   .     S
C267   C414    1.427   1_455 S
C268   C285    1.509   .     S
C268   N269    1.396   .     A
C268   C340    1.427   .     S
C270   O272    1.397   .     S
C270   O271    1.222   .     D
O272   H273    1.013   .     S
C274   O275    1.223   .     D
C274   O276    1.398   .     S
O276   H277    1.014   .     S
N278   O279    1.298   .     A
N278   O280    1.301   .     A
C281   O282    1.221   .     D
C281   O283    1.398   .     S
O283   H284    1.014   .     S
C285   O286    1.210   .     D
C285   O360    1.398   .     S
O287   H288    1.014   .     S
O287   C431    1.398   1_455 S
C289   O1093   1.217   1_455 S
C289   O437    1.399   1_455 S
O290   C1019   1.217   1_554 S
O291   H292    1.014   .     S
O291   C362    1.399   .     S
O293   Cu299   1.955   .     S
O293   C295    1.298   .     A
O294   C295    1.298   .     A
O294   Cu300   1.957   .     S
C295   C335    1.445   .     S
O296   Cu299   1.989   .     S
O296   C298    1.320   .     A
O297   Cu300   1.989   .     S
O297   C298    1.293   .     A
C298   C323    1.480   .     S
Cu299  O303    1.989   .     S
Cu299  O301    1.957   .     S
Cu299  Cu300   2.709   .     S
Cu299  N339    2.036   .     S
Cu300  N342    2.036   .     S
Cu300  O304    1.989   .     S
Cu300  O302    1.955   .     S
O301   C305    1.297   .     A
O302   C305    1.302   .     A
O303   C306    1.298   .     A
O304   C306    1.308   .     A
C305   C332    1.449   .     S
C306   C311    1.460   .     S
C307   C322    1.386   .     A
C307   H967    1.084   1_554 S
C307   C975    1.398   1_554 S
H308   C322    1.083   .     S
H309   C319    1.085   .     S
H310   C964    1.084   .     S
C311   C322    1.395   .     A
C311   C321    1.405   .     A
C312   C313    1.388   .     A
C312   H325    1.083   .     S
C312   C323    1.395   .     A
C313   C362    1.475   .     S
C313   C971    1.403   .     S
C314   H326    1.077   .     S
C314   C970    1.403   1_554 S
C314   C972    1.418   1_554 S
C315   C316    1.421   .     A
C315   C971    1.418   .     S
C315   C974    1.432   .     S
C316   C323    1.431   .     A
C316   C320    1.416   .     A
C317   C321    1.404   .     A
C317   C972    1.432   1_554 S
C317   C975    1.420   1_554 S
C318   C319    1.384   .     A
C318   C964    1.398   .     S
C318   C974    1.420   .     S
C319   C320    1.379   .     A
C320   H327    1.074   .     S
C321   H324    1.075   .     S
C328   H329    1.084   .     S
C328   C335    1.393   .     A
C328   C549    1.378   .     S
C330   C332    1.395   .     A
C330   H331    1.079   .     S
C332   C333    1.414   .     A
C333   C343    1.483   .     S
C334   C347    1.490   .     S
C334   C335    1.414   .     A
C334   C552    1.410   .     S
C336   N351    1.429   .     S
C336   N342    1.381   .     A
C336   C410    1.423   .     S
C337   H338    1.082   .     S
C337   N339    1.363   .     A
N339   C340    1.369   .     A
C340   C354    1.480   .     S
C341   C358    1.509   .     S
C341   N342    1.396   .     A
C341   C413    1.427   .     S
C343   O345    1.397   .     S
C343   O344    1.222   .     D
O345   H346    1.013   .     S
C347   O348    1.223   .     D
C347   O349    1.398   .     S
O349   H350    1.014   .     S
N351   O352    1.298   .     A
N351   O353    1.301   .     A
C354   O355    1.221   .     D
C354   O356    1.398   .     S
O356   H357    1.014   .     S
C358   O359    1.210   .     D
C358   O433    1.398   .     S
O360   H361    1.014   .     S
C362   O947    1.217   .     S
O363   C1092   1.217   1_554 S
O364   H365    1.014   .     S
O364   C435    1.399   .     S
O366   Cu372   1.955   .     S
O366   C368    1.298   .     A
O367   C368    1.298   .     A
O367   Cu373   1.957   .     S
C368   C408    1.445   .     S
O369   Cu372   1.989   .     S
O369   C371    1.320   .     A
O370   Cu373   1.989   .     S
O370   C371    1.293   .     A
C371   C396    1.480   .     S
Cu372  O376    1.989   .     S
Cu372  O374    1.957   .     S
Cu372  Cu373   2.709   .     S
Cu372  N412    2.036   .     S
Cu373  N415    2.036   .     S
Cu373  O377    1.989   .     S
Cu373  O375    1.955   .     S
O374   C378    1.297   .     A
O375   C378    1.302   .     A
O376   C379    1.298   .     A
O377   C379    1.308   .     A
C378   C405    1.449   .     S
C379   C384    1.460   .     S
C380   C395    1.386   .     A
C380   H1040   1.084   1_554 S
C380   C1048   1.398   1_554 S
H381   C395    1.083   .     S
H382   C392    1.085   .     S
H383   C1037   1.084   .     S
C384   C395    1.395   .     A
C384   C394    1.405   .     A
C385   C386    1.388   .     A
C385   H398    1.083   .     S
C385   C396    1.395   .     A
C386   C435    1.475   .     S
C386   C1044   1.403   .     S
C387   H399    1.077   .     S
C387   C1043   1.403   1_554 S
C387   C1045   1.418   1_554 S
C388   C389    1.421   .     A
C388   C1044   1.418   .     S
C388   C1047   1.432   .     S
C389   C396    1.431   .     A
C389   C393    1.416   .     A
C390   C394    1.404   .     A
C390   C1045   1.432   1_554 S
C390   C1048   1.420   1_554 S
C391   C392    1.384   .     A
C391   C1037   1.398   .     S
C391   C1047   1.420   .     S
C392   C393    1.379   .     A
C393   H400    1.074   .     S
C394   H397    1.075   .     S
C401   H402    1.084   .     S
C401   C408    1.393   .     A
C401   C622    1.378   .     S
C403   C405    1.395   .     A
C403   H404    1.079   .     S
C405   C406    1.414   .     A
C406   C416    1.483   .     S
C407   C420    1.490   .     S
C407   C408    1.414   .     A
C407   C625    1.410   .     S
C409   N424    1.429   .     S
C409   N415    1.381   .     A
C409   C264    1.423   1_655 S
C410   H411    1.082   .     S
C410   N412    1.363   .     A
N412   C413    1.369   .     A
C413   C427    1.480   .     S
C414   C431    1.509   .     S
C414   N415    1.396   .     A
C414   C267    1.427   1_655 S
C416   O418    1.397   .     S
C416   O417    1.222   .     D
O418   H419    1.013   .     S
C420   O421    1.223   .     D
C420   O422    1.398   .     S
O422   H423    1.014   .     S
N424   O425    1.298   .     A
N424   O426    1.301   .     A
C427   O428    1.221   .     D
C427   O429    1.398   .     S
O429   H430    1.014   .     S
C431   O432    1.210   .     D
C431   O287    1.398   1_655 S
O433   H434    1.014   .     S
C435   O1020   1.217   .     S
O436   C946    1.217   1_654 S
O437   H438    1.014   .     S
O437   C289    1.399   1_655 S
O439   Cu445   1.955   .     S
O439   C441    1.298   .     A
O440   C441    1.298   .     A
O440   Cu446   1.957   .     S
C441   C481    1.445   .     S
O442   Cu445   1.989   .     S
O442   C444    1.320   .     A
O443   Cu446   1.989   .     S
O443   C444    1.293   .     A
C444   C469    1.480   .     S
Cu445  O449    1.989   .     S
Cu445  O447    1.957   .     S
Cu445  Cu446   2.709   .     S
Cu445  N485    2.036   .     S
Cu446  N488    2.036   .     S
Cu446  O450    1.989   .     S
Cu446  O448    1.955   .     S
O447   C451    1.297   .     A
O448   C451    1.302   .     A
O449   C452    1.298   .     A
O450   C452    1.308   .     A
C451   C478    1.449   .     S
C452   C457    1.460   .     S
C453   C468    1.386   .     A
C453   H1113   1.084   1_554 S
C453   C1121   1.398   1_554 S
H454   C468    1.083   .     S
H455   C465    1.085   .     S
H456   C1110   1.084   .     S
C457   C468    1.395   .     A
C457   C467    1.405   .     A
C458   C459    1.388   .     A
C458   H471    1.083   .     S
C458   C469    1.395   .     A
C459   C508    1.475   .     S
C459   C1117   1.403   .     S
C460   H472    1.077   .     S
C460   C1116   1.403   1_554 S
C460   C1118   1.418   1_554 S
C461   C462    1.421   .     A
C461   C1117   1.418   .     S
C461   C1120   1.432   .     S
C462   C469    1.431   .     A
C462   C466    1.416   .     A
C463   C467    1.404   .     A
C463   C1118   1.432   1_554 S
C463   C1121   1.420   1_554 S
C464   C465    1.384   .     A
C464   C1110   1.398   .     S
C464   C1120   1.420   .     S
C465   C466    1.379   .     A
C466   H473    1.074   .     S
C467   H470    1.075   .     S
C474   H475    1.084   .     S
C474   C481    1.393   .     A
C474   C38     1.378   1_565 S
C476   C478    1.395   .     A
C476   H477    1.079   .     S
C478   C479    1.414   .     A
C479   C489    1.483   .     S
C480   C493    1.490   .     S
C480   C481    1.414   .     A
C480   C41     1.410   1_565 S
C482   N497    1.429   .     S
C482   N488    1.381   .     A
C482   C556    1.423   .     S
C483   H484    1.082   .     S
C483   N485    1.363   .     A
C483   C628    1.423   1_455 S
N485   C486    1.369   .     A
C486   C500    1.480   .     S
C486   C633    1.427   1_455 S
C487   C504    1.509   .     S
C487   N488    1.396   .     A
C487   C559    1.427   .     S
C489   O491    1.397   .     S
C489   O490    1.222   .     D
O491   H492    1.013   .     S
C493   O494    1.223   .     D
C493   O495    1.398   .     S
O495   H496    1.014   .     S
N497   O498    1.298   .     A
N497   O499    1.301   .     A
C500   O501    1.221   .     D
C500   O502    1.398   .     S
O502   H503    1.014   .     S
C504   O505    1.210   .     D
C504   O579    1.398   .     S
O506   H507    1.014   .     S
O506   C650    1.398   1_455 S
C508   O1312   1.217   1_455 S
C508   O656    1.399   1_455 S
O509   C1238   1.217   1_554 S
O510   H511    1.014   .     S
O510   C581    1.399   .     S
O512   Cu518   1.955   .     S
O512   C514    1.298   .     A
O513   C514    1.298   .     A
O513   Cu519   1.957   .     S
C514   C554    1.445   .     S
O515   Cu518   1.989   .     S
O515   C517    1.320   .     A
O516   Cu519   1.989   .     S
O516   C517    1.293   .     A
C517   C542    1.480   .     S
Cu518  O522    1.989   .     S
Cu518  O520    1.957   .     S
Cu518  Cu519   2.709   .     S
Cu518  N558    2.036   .     S
Cu519  N561    2.036   .     S
Cu519  O523    1.989   .     S
Cu519  O521    1.955   .     S
O520   C524    1.297   .     A
O521   C524    1.302   .     A
O522   C525    1.298   .     A
O523   C525    1.308   .     A
C524   C551    1.449   .     S
C525   C530    1.460   .     S
C526   C541    1.386   .     A
C526   H1186   1.084   1_554 S
C526   C1194   1.398   1_554 S
H527   C541    1.083   .     S
H528   C538    1.085   .     S
H529   C1183   1.084   .     S
C530   C541    1.395   .     A
C530   C540    1.405   .     A
C531   C532    1.388   .     A
C531   H544    1.083   .     S
C531   C542    1.395   .     A
C532   C581    1.475   .     S
C532   C1190   1.403   .     S
C533   H545    1.077   .     S
C533   C1189   1.403   1_554 S
C533   C1191   1.418   1_554 S
C534   C535    1.421   .     A
C534   C1190   1.418   .     S
C534   C1193   1.432   .     S
C535   C542    1.431   .     A
C535   C539    1.416   .     A
C536   C540    1.404   .     A
C536   C1191   1.432   1_554 S
C536   C1194   1.420   1_554 S
C537   C538    1.384   .     A
C537   C1183   1.398   .     S
C537   C1193   1.420   .     S
C538   C539    1.379   .     A
C539   H546    1.074   .     S
C540   H543    1.075   .     S
C547   H548    1.084   .     S
C547   C554    1.393   .     A
C547   C111    1.378   1_565 S
C549   C551    1.395   .     A
C549   H550    1.079   .     S
C551   C552    1.414   .     A
C552   C562    1.483   .     S
C553   C566    1.490   .     S
C553   C554    1.414   .     A
C553   C114    1.410   1_565 S
C555   N570    1.429   .     S
C555   N561    1.381   .     A
C555   C629    1.423   .     S
C556   H557    1.082   .     S
C556   N558    1.363   .     A
N558   C559    1.369   .     A
C559   C573    1.480   .     S
C560   C577    1.509   .     S
C560   N561    1.396   .     A
C560   C632    1.427   .     S
C562   O564    1.397   .     S
C562   O563    1.222   .     D
O564   H565    1.013   .     S
C566   O567    1.223   .     D
C566   O568    1.398   .     S
O568   H569    1.014   .     S
N570   O571    1.298   .     A
N570   O572    1.301   .     A
C573   O574    1.221   .     D
C573   O575    1.398   .     S
O575   H576    1.014   .     S
C577   O578    1.210   .     D
C577   O652    1.398   .     S
O579   H580    1.014   .     S
C581   O1166   1.217   .     S
O582   C1311   1.217   1_554 S
O583   H584    1.014   .     S
O583   C654    1.399   .     S
O585   Cu591   1.955   .     S
O585   C587    1.298   .     A
O586   C587    1.298   .     A
O586   Cu592   1.957   .     S
C587   C627    1.445   .     S
O588   Cu591   1.989   .     S
O588   C590    1.320   .     A
O589   Cu592   1.989   .     S
O589   C590    1.293   .     A
C590   C615    1.480   .     S
Cu591  O595    1.989   .     S
Cu591  O593    1.957   .     S
Cu591  Cu592   2.709   .     S
Cu591  N631    2.036   .     S
Cu592  N634    2.036   .     S
Cu592  O596    1.989   .     S
Cu592  O594    1.955   .     S
O593   C597    1.297   .     A
O594   C597    1.302   .     A
O595   C598    1.298   .     A
O596   C598    1.308   .     A
C597   C624    1.449   .     S
C598   C603    1.460   .     S
C599   C614    1.386   .     A
C599   H1259   1.084   1_554 S
C599   C1267   1.398   1_554 S
H600   C614    1.083   .     S
H601   C611    1.085   .     S
H602   C1256   1.084   .     S
C603   C614    1.395   .     A
C603   C613    1.405   .     A
C604   C605    1.388   .     A
C604   H617    1.083   .     S
C604   C615    1.395   .     A
C605   C654    1.475   .     S
C605   C1263   1.403   .     S
C606   H618    1.077   .     S
C606   C1262   1.403   1_554 S
C606   C1264   1.418   1_554 S
C607   C608    1.421   .     A
C607   C1263   1.418   .     S
C607   C1266   1.432   .     S
C608   C615    1.431   .     A
C608   C612    1.416   .     A
C609   C613    1.404   .     A
C609   C1264   1.432   1_554 S
C609   C1267   1.420   1_554 S
C610   C611    1.384   .     A
C610   C1256   1.398   .     S
C610   C1266   1.420   .     S
C611   C612    1.379   .     A
C612   H619    1.074   .     S
C613   H616    1.075   .     S
C620   H621    1.084   .     S
C620   C627    1.393   .     A
C620   C184    1.378   1_565 S
C622   C624    1.395   .     A
C622   H623    1.079   .     S
C624   C625    1.414   .     A
C625   C635    1.483   .     S
C626   C639    1.490   .     S
C626   C627    1.414   .     A
C626   C187    1.410   1_565 S
C628   N643    1.429   .     S
C628   N634    1.381   .     A
C628   C483    1.423   1_655 S
C629   H630    1.082   .     S
C629   N631    1.363   .     A
N631   C632    1.369   .     A
C632   C646    1.480   .     S
C633   C650    1.509   .     S
C633   N634    1.396   .     A
C633   C486    1.427   1_655 S
C635   O637    1.397   .     S
C635   O636    1.222   .     D
O637   H638    1.013   .     S
C639   O640    1.223   .     D
C639   O641    1.398   .     S
O641   H642    1.014   .     S
N643   O644    1.298   .     A
N643   O645    1.301   .     A
C646   O647    1.221   .     D
C646   O648    1.398   .     S
O648   H649    1.014   .     S
C650   O651    1.210   .     D
C650   O506    1.398   1_655 S
O652   H653    1.014   .     S
C654   O1239   1.217   .     S
O655   C1165   1.217   1_654 S
O656   H657    1.014   .     S
O656   C508    1.399   1_655 S
O658   Cu664   1.955   .     S
O658   C660    1.298   .     A
O659   C660    1.298   .     A
O659   Cu665   1.957   .     S
C660   C700    1.445   .     S
O661   Cu664   1.989   .     S
O661   C663    1.320   .     A
O662   Cu665   1.989   .     S
O662   C663    1.293   .     A
C663   C688    1.480   .     S
Cu664  O668    1.989   .     S
Cu664  O666    1.957   .     S
Cu664  Cu665   2.709   .     S
Cu664  N704    2.036   .     S
Cu665  N707    2.036   .     S
Cu665  O669    1.989   .     S
Cu665  O667    1.955   .     S
O666   C670    1.297   .     A
O667   C670    1.302   .     A
O668   C671    1.298   .     A
O669   C671    1.308   .     A
C670   C697    1.449   .     S
C671   C676    1.460   .     S
C672   C687    1.386   .     A
H673   C687    1.083   .     S
H674   C684    1.085   .     S
H675   C15     1.084   1_556 S
C676   C687    1.395   .     A
C676   C686    1.405   .     A
C677   C678    1.388   .     A
C677   H690    1.083   .     S
C677   C688    1.395   .     A
C678   C727    1.475   .     S
C678   C22     1.403   1_556 S
C679   H691    1.077   .     S
C680   C681    1.421   .     A
C680   C22     1.418   1_556 S
C680   C25     1.432   1_556 S
C681   C688    1.431   .     A
C681   C685    1.416   .     A
C682   C686    1.404   .     A
C683   C684    1.384   .     A
C683   C15     1.398   1_556 S
C683   C25     1.420   1_556 S
C684   C685    1.379   .     A
C685   H692    1.074   .     S
C686   H689    1.075   .     S
C693   H694    1.084   .     S
C693   C700    1.393   .     A
C693   C914    1.378   .     S
C695   C697    1.395   .     A
C695   H696    1.079   .     S
C695   C1131   1.378   1_545 S
C697   C698    1.414   .     A
C698   C708    1.483   .     S
C698   C1137   1.410   1_545 S
C699   C712    1.490   .     S
C699   C700    1.414   .     A
C699   C917    1.410   .     S
C701   N716    1.429   .     S
C701   N707    1.381   .     A
C701   C775    1.423   .     S
C702   H703    1.082   .     S
C702   N704    1.363   .     A
C702   C847    1.423   1_455 S
N704   C705    1.369   .     A
C705   C719    1.480   .     S
C705   C852    1.427   1_455 S
C706   C723    1.509   .     S
C706   N707    1.396   .     A
C706   C778    1.427   .     S
C708   O710    1.397   .     S
C708   O709    1.222   .     D
O710   H711    1.013   .     S
C712   O713    1.223   .     D
C712   O714    1.398   .     S
O714   H715    1.014   .     S
N716   O717    1.298   .     A
N716   O718    1.301   .     A
C719   O720    1.221   .     D
C719   O721    1.398   .     S
O721   H722    1.014   .     S
C723   O724    1.210   .     D
C723   O798    1.398   .     S
O725   H726    1.014   .     S
O725   C869    1.398   1_455 S
C727   O217    1.217   1_456 S
C727   O875    1.399   1_455 S
O729   H730    1.014   .     S
O729   C800    1.399   .     S
O731   Cu737   1.955   .     S
O731   C733    1.298   .     A
O732   C733    1.298   .     A
O732   Cu738   1.957   .     S
C733   C773    1.445   .     S
O734   Cu737   1.989   .     S
O734   C736    1.320   .     A
O735   Cu738   1.989   .     S
O735   C736    1.293   .     A
C736   C761    1.480   .     S
Cu737  O741    1.989   .     S
Cu737  O739    1.957   .     S
Cu737  Cu738   2.709   .     S
Cu737  N777    2.036   .     S
Cu738  N780    2.036   .     S
Cu738  O742    1.989   .     S
Cu738  O740    1.955   .     S
O739   C743    1.297   .     A
O740   C743    1.302   .     A
O741   C744    1.298   .     A
O742   C744    1.308   .     A
C743   C770    1.449   .     S
C744   C749    1.460   .     S
C745   C760    1.386   .     A
H746   C760    1.083   .     S
H747   C757    1.085   .     S
H748   C88     1.084   1_556 S
C749   C760    1.395   .     A
C749   C759    1.405   .     A
C750   C751    1.388   .     A
C750   H763    1.083   .     S
C750   C761    1.395   .     A
C751   C800    1.475   .     S
C751   C95     1.403   1_556 S
C752   H764    1.077   .     S
C753   C754    1.421   .     A
C753   C95     1.418   1_556 S
C753   C98     1.432   1_556 S
C754   C761    1.431   .     A
C754   C758    1.416   .     A
C755   C759    1.404   .     A
C756   C757    1.384   .     A
C756   C88     1.398   1_556 S
C756   C98     1.420   1_556 S
C757   C758    1.379   .     A
C758   H765    1.074   .     S
C759   H762    1.075   .     S
C766   H767    1.084   .     S
C766   C773    1.393   .     A
C766   C987    1.378   .     S
C768   C770    1.395   .     A
C768   H769    1.079   .     S
C768   C1204   1.378   1_545 S
C770   C771    1.414   .     A
C771   C781    1.483   .     S
C771   C1210   1.410   1_545 S
C772   C785    1.490   .     S
C772   C773    1.414   .     A
C772   C990    1.410   .     S
C774   N789    1.429   .     S
C774   N780    1.381   .     A
C774   C848    1.423   .     S
C775   H776    1.082   .     S
C775   N777    1.363   .     A
N777   C778    1.369   .     A
C778   C792    1.480   .     S
C779   C796    1.509   .     S
C779   N780    1.396   .     A
C779   C851    1.427   .     S
C781   O783    1.397   .     S
C781   O782    1.222   .     D
O783   H784    1.013   .     S
C785   O786    1.223   .     D
C785   O787    1.398   .     S
O787   H788    1.014   .     S
N789   O790    1.298   .     A
N789   O791    1.301   .     A
C792   O793    1.221   .     D
C792   O794    1.398   .     S
O794   H795    1.014   .     S
C796   O797    1.210   .     D
C796   O871    1.398   .     S
O798   H799    1.014   .     S
C800   O71     1.217   1_556 S
O802   H803    1.014   .     S
O802   C873    1.399   .     S
O804   Cu810   1.955   .     S
O804   C806    1.298   .     A
O805   C806    1.298   .     A
O805   Cu811   1.957   .     S
C806   C846    1.445   .     S
O807   Cu810   1.989   .     S
O807   C809    1.320   .     A
O808   Cu811   1.989   .     S
O808   C809    1.293   .     A
C809   C834    1.480   .     S
Cu810  O814    1.989   .     S
Cu810  O812    1.957   .     S
Cu810  Cu811   2.709   .     S
Cu810  N850    2.036   .     S
Cu811  N853    2.036   .     S
Cu811  O815    1.989   .     S
Cu811  O813    1.955   .     S
O812   C816    1.297   .     A
O813   C816    1.302   .     A
O814   C817    1.298   .     A
O815   C817    1.308   .     A
C816   C843    1.449   .     S
C817   C822    1.460   .     S
C818   C833    1.386   .     A
H819   C833    1.083   .     S
H820   C830    1.085   .     S
H821   C161    1.084   1_556 S
C822   C833    1.395   .     A
C822   C832    1.405   .     A
C823   C824    1.388   .     A
C823   H836    1.083   .     S
C823   C834    1.395   .     A
C824   C873    1.475   .     S
C824   C168    1.403   1_556 S
C825   H837    1.077   .     S
C826   C827    1.421   .     A
C826   C168    1.418   1_556 S
C826   C171    1.432   1_556 S
C827   C834    1.431   .     A
C827   C831    1.416   .     A
C828   C832    1.404   .     A
C829   C830    1.384   .     A
C829   C161    1.398   1_556 S
C829   C171    1.420   1_556 S
C830   C831    1.379   .     A
C831   H838    1.074   .     S
C832   H835    1.075   .     S
C839   H840    1.084   .     S
C839   C846    1.393   .     A
C839   C1060   1.378   .     S
C841   C843    1.395   .     A
C841   H842    1.079   .     S
C841   C1277   1.378   1_545 S
C843   C844    1.414   .     A
C844   C854    1.483   .     S
C844   C1283   1.410   1_545 S
C845   C858    1.490   .     S
C845   C846    1.414   .     A
C845   C1063   1.410   .     S
C847   N862    1.429   .     S
C847   N853    1.381   .     A
C847   C702    1.423   1_655 S
C848   H849    1.082   .     S
C848   N850    1.363   .     A
N850   C851    1.369   .     A
C851   C865    1.480   .     S
C852   C869    1.509   .     S
C852   N853    1.396   .     A
C852   C705    1.427   1_655 S
C854   O856    1.397   .     S
C854   O855    1.222   .     D
O856   H857    1.013   .     S
C858   O859    1.223   .     D
C858   O860    1.398   .     S
O860   H861    1.014   .     S
N862   O863    1.298   .     A
N862   O864    1.301   .     A
C865   O866    1.221   .     D
C865   O867    1.398   .     S
O867   H868    1.014   .     S
C869   O870    1.210   .     D
C869   O725    1.398   1_655 S
O871   H872    1.014   .     S
C873   O144    1.217   1_556 S
O874   C70     1.217   1_655 S
O875   H876    1.014   .     S
O875   C727    1.399   1_655 S
O877   Cu883   1.955   .     S
O877   C879    1.298   .     A
O878   C879    1.298   .     A
O878   Cu884   1.957   .     S
C879   C919    1.445   .     S
O880   Cu883   1.989   .     S
O880   C882    1.320   .     A
O881   Cu884   1.989   .     S
O881   C882    1.293   .     A
C882   C907    1.480   .     S
Cu883  O887    1.989   .     S
Cu883  O885    1.957   .     S
Cu883  Cu884   2.709   .     S
Cu883  N923    2.036   .     S
Cu884  N926    2.036   .     S
Cu884  O888    1.989   .     S
Cu884  O886    1.955   .     S
O885   C889    1.297   .     A
O886   C889    1.302   .     A
O887   C890    1.298   .     A
O888   C890    1.308   .     A
C889   C916    1.449   .     S
C890   C895    1.460   .     S
C891   C906    1.386   .     A
H892   C906    1.083   .     S
H893   C903    1.085   .     S
H894   C234    1.084   1_556 S
C895   C906    1.395   .     A
C895   C905    1.405   .     A
C896   C897    1.388   .     A
C896   H909    1.083   .     S
C896   C907    1.395   .     A
C897   C946    1.475   .     S
C897   C241    1.403   1_556 S
C898   H910    1.077   .     S
C899   C900    1.421   .     A
C899   C241    1.418   1_556 S
C899   C244    1.432   1_556 S
C900   C907    1.431   .     A
C900   C904    1.416   .     A
C901   C905    1.404   .     A
C902   C903    1.384   .     A
C902   C234    1.398   1_556 S
C902   C244    1.420   1_556 S
C903   C904    1.379   .     A
C904   H911    1.074   .     S
C905   H908    1.075   .     S
C912   H913    1.084   .     S
C912   C919    1.393   .     A
C912   C1133   1.378   .     S
C914   C916    1.395   .     A
C914   H915    1.079   .     S
C916   C917    1.414   .     A
C917   C927    1.483   .     S
C918   C931    1.490   .     S
C918   C919    1.414   .     A
C918   C1136   1.410   .     S
C920   N935    1.429   .     S
C920   N926    1.381   .     A
C920   C994    1.423   .     S
C921   H922    1.082   .     S
C921   N923    1.363   .     A
C921   C1066   1.423   1_455 S
N923   C924    1.369   .     A
C924   C938    1.480   .     S
C924   C1071   1.427   1_455 S
C925   C942    1.509   .     S
C925   N926    1.396   .     A
C925   C997    1.427   .     S
C927   O929    1.397   .     S
C927   O928    1.222   .     D
O929   H930    1.013   .     S
C931   O932    1.223   .     D
C931   O933    1.398   .     S
O933   H934    1.014   .     S
N935   O936    1.298   .     A
N935   O937    1.301   .     A
C938   O939    1.221   .     D
C938   O940    1.398   .     S
O940   H941    1.014   .     S
C942   O943    1.210   .     D
C942   O1017   1.398   .     S
O944   H945    1.014   .     S
O944   C1088   1.398   1_455 S
C946   O436    1.217   1_456 S
C946   O1094   1.399   1_455 S
O948   H949    1.014   .     S
O948   C1019   1.399   .     S
O950   Cu956   1.955   .     S
O950   C952    1.298   .     A
O951   C952    1.298   .     A
O951   Cu957   1.957   .     S
C952   C992    1.445   .     S
O953   Cu956   1.989   .     S
O953   C955    1.320   .     A
O954   Cu957   1.989   .     S
O954   C955    1.293   .     A
C955   C980    1.480   .     S
Cu956  O960    1.989   .     S
Cu956  O958    1.957   .     S
Cu956  Cu957   2.709   .     S
Cu956  N996    2.036   .     S
Cu957  N999    2.036   .     S
Cu957  O961    1.989   .     S
Cu957  O959    1.955   .     S
O958   C962    1.297   .     A
O959   C962    1.302   .     A
O960   C963    1.298   .     A
O961   C963    1.308   .     A
C962   C989    1.449   .     S
C963   C968    1.460   .     S
C964   C979    1.386   .     A
H965   C979    1.083   .     S
H966   C976    1.085   .     S
H967   C307    1.084   1_556 S
C968   C979    1.395   .     A
C968   C978    1.405   .     A
C969   C970    1.388   .     A
C969   H982    1.083   .     S
C969   C980    1.395   .     A
C970   C1019   1.475   .     S
C970   C314    1.403   1_556 S
C971   H983    1.077   .     S
C972   C973    1.421   .     A
C972   C314    1.418   1_556 S
C972   C317    1.432   1_556 S
C973   C980    1.431   .     A
C973   C977    1.416   .     A
C974   C978    1.404   .     A
C975   C976    1.384   .     A
C975   C307    1.398   1_556 S
C975   C317    1.420   1_556 S
C976   C977    1.379   .     A
C977   H984    1.074   .     S
C978   H981    1.075   .     S
C985   H986    1.084   .     S
C985   C992    1.393   .     A
C985   C1206   1.378   .     S
C987   C989    1.395   .     A
C987   H988    1.079   .     S
C989   C990    1.414   .     A
C990   C1000   1.483   .     S
C991   C1004   1.490   .     S
C991   C992    1.414   .     A
C991   C1209   1.410   .     S
C993   N1008   1.429   .     S
C993   N999    1.381   .     A
C993   C1067   1.423   .     S
C994   H995    1.082   .     S
C994   N996    1.363   .     A
N996   C997    1.369   .     A
C997   C1011   1.480   .     S
C998   C1015   1.509   .     S
C998   N999    1.396   .     A
C998   C1070   1.427   .     S
C1000  O1002   1.397   .     S
C1000  O1001   1.222   .     D
O1002  H1003   1.013   .     S
C1004  O1005   1.223   .     D
C1004  O1006   1.398   .     S
O1006  H1007   1.014   .     S
N1008  O1009   1.298   .     A
N1008  O1010   1.301   .     A
C1011  O1012   1.221   .     D
C1011  O1013   1.398   .     S
O1013  H1014   1.014   .     S
C1015  O1016   1.210   .     D
C1015  O1090   1.398   .     S
O1017  H1018   1.014   .     S
C1019  O290    1.217   1_556 S
O1021  H1022   1.014   .     S
O1021  C1092   1.399   .     S
O1023  Cu1029  1.955   .     S
O1023  C1025   1.298   .     A
O1024  C1025   1.298   .     A
O1024  Cu1030  1.957   .     S
C1025  C1065   1.445   .     S
O1026  Cu1029  1.989   .     S
O1026  C1028   1.320   .     A
O1027  Cu1030  1.989   .     S
O1027  C1028   1.293   .     A
C1028  C1053   1.480   .     S
Cu1029 O1033   1.989   .     S
Cu1029 O1031   1.957   .     S
Cu1029 Cu1030  2.709   .     S
Cu1029 N1069   2.036   .     S
Cu1030 N1072   2.036   .     S
Cu1030 O1034   1.989   .     S
Cu1030 O1032   1.955   .     S
O1031  C1035   1.297   .     A
O1032  C1035   1.302   .     A
O1033  C1036   1.298   .     A
O1034  C1036   1.308   .     A
C1035  C1062   1.449   .     S
C1036  C1041   1.460   .     S
C1037  C1052   1.386   .     A
H1038  C1052   1.083   .     S
H1039  C1049   1.085   .     S
H1040  C380    1.084   1_556 S
C1041  C1052   1.395   .     A
C1041  C1051   1.405   .     A
C1042  C1043   1.388   .     A
C1042  H1055   1.083   .     S
C1042  C1053   1.395   .     A
C1043  C1092   1.475   .     S
C1043  C387    1.403   1_556 S
C1044  H1056   1.077   .     S
C1045  C1046   1.421   .     A
C1045  C387    1.418   1_556 S
C1045  C390    1.432   1_556 S
C1046  C1053   1.431   .     A
C1046  C1050   1.416   .     A
C1047  C1051   1.404   .     A
C1048  C1049   1.384   .     A
C1048  C380    1.398   1_556 S
C1048  C390    1.420   1_556 S
C1049  C1050   1.379   .     A
C1050  H1057   1.074   .     S
C1051  H1054   1.075   .     S
C1058  H1059   1.084   .     S
C1058  C1065   1.393   .     A
C1058  C1279   1.378   .     S
C1060  C1062   1.395   .     A
C1060  H1061   1.079   .     S
C1062  C1063   1.414   .     A
C1063  C1073   1.483   .     S
C1064  C1077   1.490   .     S
C1064  C1065   1.414   .     A
C1064  C1282   1.410   .     S
C1066  N1081   1.429   .     S
C1066  N1072   1.381   .     A
C1066  C921    1.423   1_655 S
C1067  H1068   1.082   .     S
C1067  N1069   1.363   .     A
N1069  C1070   1.369   .     A
C1070  C1084   1.480   .     S
C1071  C1088   1.509   .     S
C1071  N1072   1.396   .     A
C1071  C924    1.427   1_655 S
C1073  O1075   1.397   .     S
C1073  O1074   1.222   .     D
O1075  H1076   1.013   .     S
C1077  O1078   1.223   .     D
C1077  O1079   1.398   .     S
O1079  H1080   1.014   .     S
N1081  O1082   1.298   .     A
N1081  O1083   1.301   .     A
C1084  O1085   1.221   .     D
C1084  O1086   1.398   .     S
O1086  H1087   1.014   .     S
C1088  O1089   1.210   .     D
C1088  O944    1.398   1_655 S
O1090  H1091   1.014   .     S
C1092  O363    1.217   1_556 S
O1093  C289    1.217   1_655 S
O1094  H1095   1.014   .     S
O1094  C946    1.399   1_655 S
O1096  Cu1102  1.955   .     S
O1096  C1098   1.298   .     A
O1097  C1098   1.298   .     A
O1097  Cu1103  1.957   .     S
C1098  C1138   1.445   .     S
O1099  Cu1102  1.989   .     S
O1099  C1101   1.320   .     A
O1100  Cu1103  1.989   .     S
O1100  C1101   1.293   .     A
C1101  C1126   1.480   .     S
Cu1102 O1106   1.989   .     S
Cu1102 O1104   1.957   .     S
Cu1102 Cu1103  2.709   .     S
Cu1102 N1142   2.036   .     S
Cu1103 N1145   2.036   .     S
Cu1103 O1107   1.989   .     S
Cu1103 O1105   1.955   .     S
O1104  C1108   1.297   .     A
O1105  C1108   1.302   .     A
O1106  C1109   1.298   .     A
O1107  C1109   1.308   .     A
C1108  C1135   1.449   .     S
C1109  C1114   1.460   .     S
C1110  C1125   1.386   .     A
H1111  C1125   1.083   .     S
H1112  C1122   1.085   .     S
H1113  C453    1.084   1_556 S
C1114  C1125   1.395   .     A
C1114  C1124   1.405   .     A
C1115  C1116   1.388   .     A
C1115  H1128   1.083   .     S
C1115  C1126   1.395   .     A
C1116  C1165   1.475   .     S
C1116  C460    1.403   1_556 S
C1117  H1129   1.077   .     S
C1118  C1119   1.421   .     A
C1118  C460    1.418   1_556 S
C1118  C463    1.432   1_556 S
C1119  C1126   1.431   .     A
C1119  C1123   1.416   .     A
C1120  C1124   1.404   .     A
C1121  C1122   1.384   .     A
C1121  C453    1.398   1_556 S
C1121  C463    1.420   1_556 S
C1122  C1123   1.379   .     A
C1123  H1130   1.074   .     S
C1124  H1127   1.075   .     S
C1131  H1132   1.084   .     S
C1131  C1138   1.393   .     A
C1131  C695    1.378   1_565 S
C1133  C1135   1.395   .     A
C1133  H1134   1.079   .     S
C1135  C1136   1.414   .     A
C1136  C1146   1.483   .     S
C1137  C1150   1.490   .     S
C1137  C1138   1.414   .     A
C1137  C698    1.410   1_565 S
C1139  N1154   1.429   .     S
C1139  N1145   1.381   .     A
C1139  C1213   1.423   .     S
C1140  H1141   1.082   .     S
C1140  N1142   1.363   .     A
C1140  C1285   1.423   1_455 S
N1142  C1143   1.369   .     A
C1143  C1157   1.480   .     S
C1143  C1290   1.427   1_455 S
C1144  C1161   1.509   .     S
C1144  N1145   1.396   .     A
C1144  C1216   1.427   .     S
C1146  O1148   1.397   .     S
C1146  O1147   1.222   .     D
O1148  H1149   1.013   .     S
C1150  O1151   1.223   .     D
C1150  O1152   1.398   .     S
O1152  H1153   1.014   .     S
N1154  O1155   1.298   .     A
N1154  O1156   1.301   .     A
C1157  O1158   1.221   .     D
C1157  O1159   1.398   .     S
O1159  H1160   1.014   .     S
C1161  O1162   1.210   .     D
C1161  O1236   1.398   .     S
O1163  H1164   1.014   .     S
O1163  C1307   1.398   1_455 S
C1165  O655    1.217   1_456 S
C1165  O1313   1.399   1_455 S
O1167  H1168   1.014   .     S
O1167  C1238   1.399   .     S
O1169  Cu1175  1.955   .     S
O1169  C1171   1.298   .     A
O1170  C1171   1.298   .     A
O1170  Cu1176  1.957   .     S
C1171  C1211   1.445   .     S
O1172  Cu1175  1.989   .     S
O1172  C1174   1.320   .     A
O1173  Cu1176  1.989   .     S
O1173  C1174   1.293   .     A
C1174  C1199   1.480   .     S
Cu1175 O1179   1.989   .     S
Cu1175 O1177   1.957   .     S
Cu1175 Cu1176  2.709   .     S
Cu1175 N1215   2.036   .     S
Cu1176 N1218   2.036   .     S
Cu1176 O1180   1.989   .     S
Cu1176 O1178   1.955   .     S
O1177  C1181   1.297   .     A
O1178  C1181   1.302   .     A
O1179  C1182   1.298   .     A
O1180  C1182   1.308   .     A
C1181  C1208   1.449   .     S
C1182  C1187   1.460   .     S
C1183  C1198   1.386   .     A
H1184  C1198   1.083   .     S
H1185  C1195   1.085   .     S
H1186  C526    1.084   1_556 S
C1187  C1198   1.395   .     A
C1187  C1197   1.405   .     A
C1188  C1189   1.388   .     A
C1188  H1201   1.083   .     S
C1188  C1199   1.395   .     A
C1189  C1238   1.475   .     S
C1189  C533    1.403   1_556 S
C1190  H1202   1.077   .     S
C1191  C1192   1.421   .     A
C1191  C533    1.418   1_556 S
C1191  C536    1.432   1_556 S
C1192  C1199   1.431   .     A
C1192  C1196   1.416   .     A
C1193  C1197   1.404   .     A
C1194  C1195   1.384   .     A
C1194  C526    1.398   1_556 S
C1194  C536    1.420   1_556 S
C1195  C1196   1.379   .     A
C1196  H1203   1.074   .     S
C1197  H1200   1.075   .     S
C1204  H1205   1.084   .     S
C1204  C1211   1.393   .     A
C1204  C768    1.378   1_565 S
C1206  C1208   1.395   .     A
C1206  H1207   1.079   .     S
C1208  C1209   1.414   .     A
C1209  C1219   1.483   .     S
C1210  C1223   1.490   .     S
C1210  C1211   1.414   .     A
C1210  C771    1.410   1_565 S
C1212  N1227   1.429   .     S
C1212  N1218   1.381   .     A
C1212  C1286   1.423   .     S
C1213  H1214   1.082   .     S
C1213  N1215   1.363   .     A
N1215  C1216   1.369   .     A
C1216  C1230   1.480   .     S
C1217  C1234   1.509   .     S
C1217  N1218   1.396   .     A
C1217  C1289   1.427   .     S
C1219  O1221   1.397   .     S
C1219  O1220   1.222   .     D
O1221  H1222   1.013   .     S
C1223  O1224   1.223   .     D
C1223  O1225   1.398   .     S
O1225  H1226   1.014   .     S
N1227  O1228   1.298   .     A
N1227  O1229   1.301   .     A
C1230  O1231   1.221   .     D
C1230  O1232   1.398   .     S
O1232  H1233   1.014   .     S
C1234  O1235   1.210   .     D
C1234  O1309   1.398   .     S
O1236  H1237   1.014   .     S
C1238  O509    1.217   1_556 S
O1240  H1241   1.014   .     S
O1240  C1311   1.399   .     S
O1242  Cu1248  1.955   .     S
O1242  C1244   1.298   .     A
O1243  C1244   1.298   .     A
O1243  Cu1249  1.957   .     S
C1244  C1284   1.445   .     S
O1245  Cu1248  1.989   .     S
O1245  C1247   1.320   .     A
O1246  Cu1249  1.989   .     S
O1246  C1247   1.293   .     A
C1247  C1272   1.480   .     S
Cu1248 O1252   1.989   .     S
Cu1248 O1250   1.957   .     S
Cu1248 Cu1249  2.709   .     S
Cu1248 N1288   2.036   .     S
Cu1249 N1291   2.036   .     S
Cu1249 O1253   1.989   .     S
Cu1249 O1251   1.955   .     S
O1250  C1254   1.297   .     A
O1251  C1254   1.302   .     A
O1252  C1255   1.298   .     A
O1253  C1255   1.308   .     A
C1254  C1281   1.449   .     S
C1255  C1260   1.460   .     S
C1256  C1271   1.386   .     A
H1257  C1271   1.083   .     S
H1258  C1268   1.085   .     S
H1259  C599    1.084   1_556 S
C1260  C1271   1.395   .     A
C1260  C1270   1.405   .     A
C1261  C1262   1.388   .     A
C1261  H1274   1.083   .     S
C1261  C1272   1.395   .     A
C1262  C1311   1.475   .     S
C1262  C606    1.403   1_556 S
C1263  H1275   1.077   .     S
C1264  C1265   1.421   .     A
C1264  C606    1.418   1_556 S
C1264  C609    1.432   1_556 S
C1265  C1272   1.431   .     A
C1265  C1269   1.416   .     A
C1266  C1270   1.404   .     A
C1267  C1268   1.384   .     A
C1267  C599    1.398   1_556 S
C1267  C609    1.420   1_556 S
C1268  C1269   1.379   .     A
C1269  H1276   1.074   .     S
C1270  H1273   1.075   .     S
C1277  H1278   1.084   .     S
C1277  C1284   1.393   .     A
C1277  C841    1.378   1_565 S
C1279  C1281   1.395   .     A
C1279  H1280   1.079   .     S
C1281  C1282   1.414   .     A
C1282  C1292   1.483   .     S
C1283  C1296   1.490   .     S
C1283  C1284   1.414   .     A
C1283  C844    1.410   1_565 S
C1285  N1300   1.429   .     S
C1285  N1291   1.381   .     A
C1285  C1140   1.423   1_655 S
C1286  H1287   1.082   .     S
C1286  N1288   1.363   .     A
N1288  C1289   1.369   .     A
C1289  C1303   1.480   .     S
C1290  C1307   1.509   .     S
C1290  N1291   1.396   .     A
C1290  C1143   1.427   1_655 S
C1292  O1294   1.397   .     S
C1292  O1293   1.222   .     D
O1294  H1295   1.013   .     S
C1296  O1297   1.223   .     D
C1296  O1298   1.398   .     S
O1298  H1299   1.014   .     S
N1300  O1301   1.298   .     A
N1300  O1302   1.301   .     A
C1303  O1304   1.221   .     D
C1303  O1305   1.398   .     S
O1305  H1306   1.014   .     S
C1307  O1308   1.210   .     D
C1307  O1163   1.398   1_655 S
O1309  H1310   1.014   .     S
C1311  O582    1.217   1_556 S
O1312  C508    1.217   1_655 S
O1313  H1314   1.014   .     S
O1313  C1165   1.399   1_655 S
