data_str_m2_o10_o18_pcu_sym.59
_audit_creation_date              2020-01-03
_audit_creation_method            'Materials Studio'
_symmetry_space_group_name_H-M    'P1'
_symmetry_Int_Tables_number       1
_symmetry_cell_setting            triclinic
loop_
_symmetry_equiv_pos_as_xyz
  x,y,z
_cell_length_a                    22.2621
_cell_length_b                    26.1565
_cell_length_c                    31.5690
_cell_angle_alpha                 94.1480
_cell_angle_beta                  74.9872
_cell_angle_gamma                 102.8881
loop_
_atom_site_label
_atom_site_type_symbol
_atom_site_fract_x
_atom_site_fract_y
_atom_site_fract_z
_atom_site_U_iso_or_equiv
_atom_site_adp_type
_atom_site_occupancy
O1     O     0.12815   0.23809   0.24686   0.00000  Uiso   1.00
O2     O     0.20518   0.09524   0.25314   0.00000  Uiso   1.00
O3     O     0.22829   0.24753   0.25503   0.00000  Uiso   1.00
O4     O     0.10504   0.08580   0.24498   0.00000  Uiso   1.00
C5     C     0.18103   0.26653   0.25203   0.00000  Uiso   1.00
C6     C     0.15234   0.06680   0.24791   0.00000  Uiso   1.00
O7     O     0.08851   0.15930   0.30855   0.00000  Uiso   1.00
O8     O     0.24482   0.17403   0.19146   0.00000  Uiso   1.00
O9     O     0.18866   0.16874   0.31671   0.00000  Uiso   1.00
O10    O     0.14468   0.16460   0.18329   0.00000  Uiso   1.00
C11    C     0.12794   0.16293   0.33324   0.00000  Uiso   1.00
C12    C     0.20545   0.17114   0.16685   0.00000  Uiso   1.00
Cu13   Cu    0.10737   0.16108   0.24517   0.00000  Uiso   1.00
Cu14   Cu    0.22596   0.17225   0.25484   0.00000  Uiso   1.00
C15    C     0.10435   0.15905   0.38117   0.00000  Uiso   1.00
C16    C     0.22907   0.18059   0.11960   0.00000  Uiso   1.00
C17    C     0.02178   0.12873   0.44594   0.00000  Uiso   1.00
C18    C     0.30577   0.22745   0.05863   0.00000  Uiso   1.00
C19    C     0.04079   0.13738   0.40096   0.00000  Uiso   1.00
C20    C     0.28922   0.21144   0.10203   0.00000  Uiso   1.00
C21    C     0.14785   0.17454   0.40706   0.00000  Uiso   1.00
C22    C     0.18664   0.16442   0.09309   0.00000  Uiso   1.00
C23    C     0.12975   0.16782   0.45278   0.00000  Uiso   1.00
C24    C     0.20046   0.18255   0.05004   0.00000  Uiso   1.00
C25    C     0.06582   0.14262   0.47205   0.00000  Uiso   1.00
C26    C     0.26193   0.21356   0.03238   0.00000  Uiso   1.00
C27    C     0.17390   0.18398   0.47936   0.00000  Uiso   1.00
C28    C     0.15491   0.17041   0.02429   0.00000  Uiso   1.00
C29    C     0.09056   0.14642   0.04255   0.00000  Uiso   1.00
C30    C     0.23582   0.21457   0.46276   0.00000  Uiso   1.00
C31    C     0.04664   0.13100   0.01682   0.00000  Uiso   1.00
C32    C     0.27857   0.23091   0.48913   0.00000  Uiso   1.00
H33    H     0.14273   0.13759   0.10722   0.00000  Uiso   1.00
H34    H     0.19645   0.18997   0.39025   0.00000  Uiso   1.00
H35    H     0.32260   0.22455   0.12217   0.00000  Uiso   1.00
H36    H     0.00635   0.12524   0.38150   0.00000  Uiso   1.00
H37    H     0.30590   0.11033   0.46004   0.00000  Uiso   1.00
H38    H     0.01936   0.25148   0.04595   0.00000  Uiso   1.00
H39    H     0.07205   0.14151   0.07735   0.00000  Uiso   1.00
H40    H     0.25243   0.22794   0.42954   0.00000  Uiso   1.00
C41    C     0.18430   0.32159   0.25909   0.00000  Uiso   1.00
C42    C     0.14913   0.01175   0.24079   0.00000  Uiso   1.00
N43    N     0.31506   0.18068   0.26212   0.00000  Uiso   1.00
N44    N     0.01827   0.15265   0.23788   0.00000  Uiso   1.00
H45    H     0.00140   0.20508   0.28430   0.00000  Uiso   1.00
H46    H     0.33193   0.12826   0.21569   0.00000  Uiso   1.00
O47    O     0.31653   0.10819   0.03529   0.00000  Uiso   1.00
C48    C     0.31105   0.06547   0.06200   0.00000  Uiso   1.00
H49    H     0.01395   0.04143   0.04796   0.00000  Uiso   1.00
H50    H     0.26356   0.03940   0.06464   0.00000  Uiso   1.00
H51    H     0.31350   0.07940   0.09572   0.00000  Uiso   1.00
O52    O     0.00580   0.26036   0.47175   0.00000  Uiso   1.00
C53    C     0.00173   0.30986   0.45891   0.00000  Uiso   1.00
H54    H     0.04843   0.00383   0.45647   0.00000  Uiso   1.00
H55    H     0.29870   0.32735   0.48317   0.00000  Uiso   1.00
H56    H     0.32527   0.30715   0.42594   0.00000  Uiso   1.00
N57    N     0.21665   0.01414   0.29144   0.00000  Uiso   1.00
O58    O     0.27474   0.01033   0.28901   0.00000  Uiso   1.00
O59    O     0.18521   0.03513   0.32644   0.00000  Uiso   1.00
N60    N     0.11689   0.31922   0.20837   0.00000  Uiso   1.00
O61    O     0.05888   0.32315   0.21066   0.00000  Uiso   1.00
O62    O     0.14838   0.29815   0.17345   0.00000  Uiso   1.00
O63    O     0.46148   0.23809   0.24686   0.00000  Uiso   1.00
O64    O     0.53852   0.09524   0.25314   0.00000  Uiso   1.00
O65    O     0.56163   0.24753   0.25503   0.00000  Uiso   1.00
O66    O     0.43837   0.08580   0.24498   0.00000  Uiso   1.00
C67    C     0.51436   0.26653   0.25203   0.00000  Uiso   1.00
C68    C     0.48567   0.06680   0.24791   0.00000  Uiso   1.00
O69    O     0.42185   0.15930   0.30855   0.00000  Uiso   1.00
O70    O     0.57815   0.17403   0.19146   0.00000  Uiso   1.00
O71    O     0.52199   0.16874   0.31671   0.00000  Uiso   1.00
O72    O     0.47801   0.16460   0.18329   0.00000  Uiso   1.00
C73    C     0.46127   0.16293   0.33324   0.00000  Uiso   1.00
C74    C     0.53878   0.17114   0.16685   0.00000  Uiso   1.00
Cu75   Cu    0.44071   0.16108   0.24517   0.00000  Uiso   1.00
Cu76   Cu    0.55929   0.17225   0.25484   0.00000  Uiso   1.00
C77    C     0.43769   0.15905   0.38117   0.00000  Uiso   1.00
C78    C     0.56240   0.18059   0.11960   0.00000  Uiso   1.00
C79    C     0.35512   0.12873   0.44594   0.00000  Uiso   1.00
C80    C     0.63910   0.22745   0.05863   0.00000  Uiso   1.00
C81    C     0.37412   0.13738   0.40096   0.00000  Uiso   1.00
C82    C     0.62255   0.21144   0.10203   0.00000  Uiso   1.00
C83    C     0.48119   0.17454   0.40706   0.00000  Uiso   1.00
C84    C     0.51997   0.16442   0.09309   0.00000  Uiso   1.00
C85    C     0.46308   0.16782   0.45278   0.00000  Uiso   1.00
C86    C     0.53379   0.18255   0.05004   0.00000  Uiso   1.00
C87    C     0.39916   0.14262   0.47205   0.00000  Uiso   1.00
C88    C     0.59526   0.21356   0.03238   0.00000  Uiso   1.00
C89    C     0.50724   0.18398   0.47936   0.00000  Uiso   1.00
C90    C     0.48825   0.17041   0.02429   0.00000  Uiso   1.00
C91    C     0.42389   0.14642   0.04255   0.00000  Uiso   1.00
C92    C     0.56915   0.21457   0.46276   0.00000  Uiso   1.00
C93    C     0.37997   0.13100   0.01682   0.00000  Uiso   1.00
C94    C     0.61190   0.23091   0.48913   0.00000  Uiso   1.00
H95    H     0.47606   0.13759   0.10722   0.00000  Uiso   1.00
H96    H     0.52979   0.18997   0.39025   0.00000  Uiso   1.00
H97    H     0.65593   0.22455   0.12217   0.00000  Uiso   1.00
H98    H     0.33969   0.12524   0.38150   0.00000  Uiso   1.00
H99    H     0.63923   0.11033   0.46004   0.00000  Uiso   1.00
H100   H     0.35269   0.25148   0.04595   0.00000  Uiso   1.00
H101   H     0.40538   0.14151   0.07735   0.00000  Uiso   1.00
H102   H     0.58577   0.22794   0.42954   0.00000  Uiso   1.00
C103   C     0.51763   0.32159   0.25909   0.00000  Uiso   1.00
C104   C     0.48247   0.01175   0.24079   0.00000  Uiso   1.00
N105   N     0.64839   0.18068   0.26212   0.00000  Uiso   1.00
N106   N     0.35161   0.15265   0.23788   0.00000  Uiso   1.00
H107   H     0.33474   0.20508   0.28430   0.00000  Uiso   1.00
H108   H     0.66527   0.12826   0.21569   0.00000  Uiso   1.00
O109   O     0.64986   0.10819   0.03529   0.00000  Uiso   1.00
C110   C     0.64438   0.06547   0.06200   0.00000  Uiso   1.00
H111   H     0.34728   0.04143   0.04796   0.00000  Uiso   1.00
H112   H     0.59690   0.03940   0.06464   0.00000  Uiso   1.00
H113   H     0.64684   0.07940   0.09572   0.00000  Uiso   1.00
O114   O     0.33913   0.26036   0.47175   0.00000  Uiso   1.00
C115   C     0.33507   0.30986   0.45891   0.00000  Uiso   1.00
H116   H     0.38176   0.00383   0.45647   0.00000  Uiso   1.00
H117   H     0.63203   0.32735   0.48317   0.00000  Uiso   1.00
H118   H     0.65860   0.30715   0.42594   0.00000  Uiso   1.00
N119   N     0.54999   0.01414   0.29144   0.00000  Uiso   1.00
O120   O     0.60807   0.01033   0.28901   0.00000  Uiso   1.00
O121   O     0.51854   0.03513   0.32644   0.00000  Uiso   1.00
N122   N     0.45022   0.31922   0.20837   0.00000  Uiso   1.00
O123   O     0.39222   0.32315   0.21066   0.00000  Uiso   1.00
O124   O     0.48172   0.29815   0.17345   0.00000  Uiso   1.00
O125   O     0.79482   0.23809   0.24686   0.00000  Uiso   1.00
O126   O     0.87185   0.09524   0.25314   0.00000  Uiso   1.00
O127   O     0.89496   0.24753   0.25503   0.00000  Uiso   1.00
O128   O     0.77171   0.08580   0.24498   0.00000  Uiso   1.00
C129   C     0.84769   0.26653   0.25203   0.00000  Uiso   1.00
C130   C     0.81901   0.06680   0.24791   0.00000  Uiso   1.00
O131   O     0.75518   0.15930   0.30855   0.00000  Uiso   1.00
O132   O     0.91149   0.17403   0.19146   0.00000  Uiso   1.00
O133   O     0.85532   0.16874   0.31671   0.00000  Uiso   1.00
O134   O     0.81134   0.16460   0.18329   0.00000  Uiso   1.00
C135   C     0.79461   0.16293   0.33324   0.00000  Uiso   1.00
C136   C     0.87212   0.17114   0.16685   0.00000  Uiso   1.00
Cu137  Cu    0.77404   0.16108   0.24517   0.00000  Uiso   1.00
Cu138  Cu    0.89263   0.17225   0.25484   0.00000  Uiso   1.00
C139   C     0.77102   0.15905   0.38117   0.00000  Uiso   1.00
C140   C     0.89573   0.18059   0.11960   0.00000  Uiso   1.00
C141   C     0.68845   0.12873   0.44594   0.00000  Uiso   1.00
C142   C     0.97244   0.22745   0.05863   0.00000  Uiso   1.00
C143   C     0.70745   0.13738   0.40096   0.00000  Uiso   1.00
C144   C     0.95589   0.21144   0.10203   0.00000  Uiso   1.00
C145   C     0.81452   0.17454   0.40706   0.00000  Uiso   1.00
C146   C     0.85331   0.16442   0.09309   0.00000  Uiso   1.00
C147   C     0.79641   0.16782   0.45278   0.00000  Uiso   1.00
C148   C     0.86712   0.18255   0.05004   0.00000  Uiso   1.00
C149   C     0.73249   0.14262   0.47205   0.00000  Uiso   1.00
C150   C     0.92860   0.21356   0.03238   0.00000  Uiso   1.00
C151   C     0.84057   0.18398   0.47936   0.00000  Uiso   1.00
C152   C     0.82158   0.17041   0.02429   0.00000  Uiso   1.00
C153   C     0.75723   0.14642   0.04255   0.00000  Uiso   1.00
C154   C     0.90249   0.21457   0.46276   0.00000  Uiso   1.00
C155   C     0.71331   0.13100   0.01682   0.00000  Uiso   1.00
C156   C     0.94524   0.23091   0.48913   0.00000  Uiso   1.00
H157   H     0.80940   0.13759   0.10722   0.00000  Uiso   1.00
H158   H     0.86312   0.18997   0.39025   0.00000  Uiso   1.00
H159   H     0.98927   0.22455   0.12217   0.00000  Uiso   1.00
H160   H     0.67302   0.12524   0.38150   0.00000  Uiso   1.00
H161   H     0.97256   0.11033   0.46004   0.00000  Uiso   1.00
H162   H     0.68602   0.25148   0.04595   0.00000  Uiso   1.00
H163   H     0.73871   0.14151   0.07735   0.00000  Uiso   1.00
H164   H     0.91910   0.22794   0.42954   0.00000  Uiso   1.00
C165   C     0.85097   0.32159   0.25909   0.00000  Uiso   1.00
C166   C     0.81580   0.01175   0.24079   0.00000  Uiso   1.00
N167   N     0.98173   0.18068   0.26212   0.00000  Uiso   1.00
N168   N     0.68494   0.15265   0.23788   0.00000  Uiso   1.00
H169   H     0.66807   0.20508   0.28430   0.00000  Uiso   1.00
H170   H     0.99860   0.12826   0.21569   0.00000  Uiso   1.00
O171   O     0.98319   0.10819   0.03529   0.00000  Uiso   1.00
C172   C     0.97772   0.06547   0.06200   0.00000  Uiso   1.00
H173   H     0.68062   0.04143   0.04796   0.00000  Uiso   1.00
H174   H     0.93023   0.03940   0.06464   0.00000  Uiso   1.00
H175   H     0.98017   0.07940   0.09572   0.00000  Uiso   1.00
O176   O     0.67247   0.26036   0.47175   0.00000  Uiso   1.00
C177   C     0.66840   0.30986   0.45891   0.00000  Uiso   1.00
H178   H     0.71510   0.00383   0.45647   0.00000  Uiso   1.00
H179   H     0.96536   0.32735   0.48317   0.00000  Uiso   1.00
H180   H     0.99193   0.30715   0.42594   0.00000  Uiso   1.00
N181   N     0.88332   0.01414   0.29144   0.00000  Uiso   1.00
O182   O     0.94141   0.01033   0.28901   0.00000  Uiso   1.00
O183   O     0.85188   0.03513   0.32644   0.00000  Uiso   1.00
N184   N     0.78355   0.31922   0.20837   0.00000  Uiso   1.00
O185   O     0.72555   0.32315   0.21066   0.00000  Uiso   1.00
O186   O     0.81505   0.29815   0.17345   0.00000  Uiso   1.00
O187   O     0.12815   0.57142   0.24686   0.00000  Uiso   1.00
O188   O     0.20518   0.42858   0.25314   0.00000  Uiso   1.00
O189   O     0.22829   0.58086   0.25503   0.00000  Uiso   1.00
O190   O     0.10504   0.41914   0.24498   0.00000  Uiso   1.00
C191   C     0.18103   0.59986   0.25203   0.00000  Uiso   1.00
C192   C     0.15234   0.40014   0.24791   0.00000  Uiso   1.00
O193   O     0.08851   0.49263   0.30855   0.00000  Uiso   1.00
O194   O     0.24482   0.50737   0.19146   0.00000  Uiso   1.00
O195   O     0.18866   0.50207   0.31671   0.00000  Uiso   1.00
O196   O     0.14468   0.49793   0.18329   0.00000  Uiso   1.00
C197   C     0.12794   0.49626   0.33324   0.00000  Uiso   1.00
C198   C     0.20545   0.50447   0.16685   0.00000  Uiso   1.00
Cu199  Cu    0.10737   0.49441   0.24517   0.00000  Uiso   1.00
Cu200  Cu    0.22596   0.50559   0.25484   0.00000  Uiso   1.00
C201   C     0.10435   0.49238   0.38117   0.00000  Uiso   1.00
C202   C     0.22907   0.51392   0.11960   0.00000  Uiso   1.00
C203   C     0.02178   0.46206   0.44594   0.00000  Uiso   1.00
C204   C     0.30577   0.56079   0.05863   0.00000  Uiso   1.00
C205   C     0.04079   0.47071   0.40096   0.00000  Uiso   1.00
C206   C     0.28922   0.54477   0.10203   0.00000  Uiso   1.00
C207   C     0.14785   0.50787   0.40706   0.00000  Uiso   1.00
C208   C     0.18664   0.49775   0.09309   0.00000  Uiso   1.00
C209   C     0.12975   0.50116   0.45278   0.00000  Uiso   1.00
C210   C     0.20046   0.51588   0.05004   0.00000  Uiso   1.00
C211   C     0.06582   0.47595   0.47205   0.00000  Uiso   1.00
C212   C     0.26193   0.54689   0.03238   0.00000  Uiso   1.00
C213   C     0.17390   0.51731   0.47936   0.00000  Uiso   1.00
C214   C     0.15491   0.50374   0.02429   0.00000  Uiso   1.00
C215   C     0.09056   0.47975   0.04255   0.00000  Uiso   1.00
C216   C     0.23582   0.54790   0.46276   0.00000  Uiso   1.00
C217   C     0.04664   0.46433   0.01682   0.00000  Uiso   1.00
C218   C     0.27857   0.56424   0.48913   0.00000  Uiso   1.00
H219   H     0.14273   0.47093   0.10722   0.00000  Uiso   1.00
H220   H     0.19645   0.52330   0.39025   0.00000  Uiso   1.00
H221   H     0.32260   0.55788   0.12217   0.00000  Uiso   1.00
H222   H     0.00635   0.45858   0.38150   0.00000  Uiso   1.00
H223   H     0.30590   0.44367   0.46004   0.00000  Uiso   1.00
H224   H     0.01936   0.58482   0.04595   0.00000  Uiso   1.00
H225   H     0.07205   0.47485   0.07735   0.00000  Uiso   1.00
H226   H     0.25243   0.56127   0.42954   0.00000  Uiso   1.00
C227   C     0.18430   0.65492   0.25909   0.00000  Uiso   1.00
C228   C     0.14913   0.34509   0.24079   0.00000  Uiso   1.00
N229   N     0.31506   0.51401   0.26212   0.00000  Uiso   1.00
N230   N     0.01827   0.48599   0.23788   0.00000  Uiso   1.00
H231   H     0.00140   0.53841   0.28430   0.00000  Uiso   1.00
H232   H     0.33193   0.46159   0.21569   0.00000  Uiso   1.00
O233   O     0.31653   0.44152   0.03529   0.00000  Uiso   1.00
C234   C     0.31105   0.39881   0.06200   0.00000  Uiso   1.00
H235   H     0.01395   0.37476   0.04796   0.00000  Uiso   1.00
H236   H     0.26356   0.37273   0.06464   0.00000  Uiso   1.00
H237   H     0.31350   0.41273   0.09572   0.00000  Uiso   1.00
O238   O     0.00580   0.59369   0.47175   0.00000  Uiso   1.00
C239   C     0.00173   0.64319   0.45891   0.00000  Uiso   1.00
H240   H     0.04843   0.33716   0.45647   0.00000  Uiso   1.00
H241   H     0.29870   0.66069   0.48317   0.00000  Uiso   1.00
H242   H     0.32527   0.64048   0.42594   0.00000  Uiso   1.00
N243   N     0.21665   0.34747   0.29144   0.00000  Uiso   1.00
O244   O     0.27474   0.34366   0.28901   0.00000  Uiso   1.00
O245   O     0.18521   0.36846   0.32644   0.00000  Uiso   1.00
N246   N     0.11689   0.65256   0.20837   0.00000  Uiso   1.00
O247   O     0.05888   0.65648   0.21066   0.00000  Uiso   1.00
O248   O     0.14838   0.63148   0.17345   0.00000  Uiso   1.00
O249   O     0.46148   0.57142   0.24686   0.00000  Uiso   1.00
O250   O     0.53852   0.42858   0.25314   0.00000  Uiso   1.00
O251   O     0.56163   0.58086   0.25503   0.00000  Uiso   1.00
O252   O     0.43837   0.41914   0.24498   0.00000  Uiso   1.00
C253   C     0.51436   0.59986   0.25203   0.00000  Uiso   1.00
C254   C     0.48567   0.40014   0.24791   0.00000  Uiso   1.00
O255   O     0.42185   0.49263   0.30855   0.00000  Uiso   1.00
O256   O     0.57815   0.50737   0.19146   0.00000  Uiso   1.00
O257   O     0.52199   0.50207   0.31671   0.00000  Uiso   1.00
O258   O     0.47801   0.49793   0.18329   0.00000  Uiso   1.00
C259   C     0.46127   0.49626   0.33324   0.00000  Uiso   1.00
C260   C     0.53878   0.50447   0.16685   0.00000  Uiso   1.00
Cu261  Cu    0.44071   0.49441   0.24517   0.00000  Uiso   1.00
Cu262  Cu    0.55929   0.50559   0.25484   0.00000  Uiso   1.00
C263   C     0.43769   0.49238   0.38117   0.00000  Uiso   1.00
C264   C     0.56240   0.51392   0.11960   0.00000  Uiso   1.00
C265   C     0.35512   0.46206   0.44594   0.00000  Uiso   1.00
C266   C     0.63910   0.56079   0.05863   0.00000  Uiso   1.00
C267   C     0.37412   0.47071   0.40096   0.00000  Uiso   1.00
C268   C     0.62255   0.54477   0.10203   0.00000  Uiso   1.00
C269   C     0.48119   0.50787   0.40706   0.00000  Uiso   1.00
C270   C     0.51997   0.49775   0.09309   0.00000  Uiso   1.00
C271   C     0.46308   0.50116   0.45278   0.00000  Uiso   1.00
C272   C     0.53379   0.51588   0.05004   0.00000  Uiso   1.00
C273   C     0.39916   0.47595   0.47205   0.00000  Uiso   1.00
C274   C     0.59526   0.54689   0.03238   0.00000  Uiso   1.00
C275   C     0.50724   0.51731   0.47936   0.00000  Uiso   1.00
C276   C     0.48825   0.50374   0.02429   0.00000  Uiso   1.00
C277   C     0.42389   0.47975   0.04255   0.00000  Uiso   1.00
C278   C     0.56915   0.54790   0.46276   0.00000  Uiso   1.00
C279   C     0.37997   0.46433   0.01682   0.00000  Uiso   1.00
C280   C     0.61190   0.56424   0.48913   0.00000  Uiso   1.00
H281   H     0.47606   0.47093   0.10722   0.00000  Uiso   1.00
H282   H     0.52979   0.52330   0.39025   0.00000  Uiso   1.00
H283   H     0.65593   0.55788   0.12217   0.00000  Uiso   1.00
H284   H     0.33969   0.45858   0.38150   0.00000  Uiso   1.00
H285   H     0.63923   0.44367   0.46004   0.00000  Uiso   1.00
H286   H     0.35269   0.58482   0.04595   0.00000  Uiso   1.00
H287   H     0.40538   0.47485   0.07735   0.00000  Uiso   1.00
H288   H     0.58577   0.56127   0.42954   0.00000  Uiso   1.00
C289   C     0.51763   0.65492   0.25909   0.00000  Uiso   1.00
C290   C     0.48247   0.34509   0.24079   0.00000  Uiso   1.00
N291   N     0.64839   0.51401   0.26212   0.00000  Uiso   1.00
N292   N     0.35161   0.48599   0.23788   0.00000  Uiso   1.00
H293   H     0.33474   0.53841   0.28430   0.00000  Uiso   1.00
H294   H     0.66527   0.46159   0.21569   0.00000  Uiso   1.00
O295   O     0.64986   0.44152   0.03529   0.00000  Uiso   1.00
C296   C     0.64438   0.39881   0.06200   0.00000  Uiso   1.00
H297   H     0.34728   0.37476   0.04796   0.00000  Uiso   1.00
H298   H     0.59690   0.37273   0.06464   0.00000  Uiso   1.00
H299   H     0.64684   0.41273   0.09572   0.00000  Uiso   1.00
O300   O     0.33913   0.59369   0.47175   0.00000  Uiso   1.00
C301   C     0.33507   0.64319   0.45891   0.00000  Uiso   1.00
H302   H     0.38176   0.33716   0.45647   0.00000  Uiso   1.00
H303   H     0.63203   0.66069   0.48317   0.00000  Uiso   1.00
H304   H     0.65860   0.64048   0.42594   0.00000  Uiso   1.00
N305   N     0.54999   0.34747   0.29144   0.00000  Uiso   1.00
O306   O     0.60807   0.34366   0.28901   0.00000  Uiso   1.00
O307   O     0.51854   0.36846   0.32644   0.00000  Uiso   1.00
N308   N     0.45022   0.65256   0.20837   0.00000  Uiso   1.00
O309   O     0.39222   0.65648   0.21066   0.00000  Uiso   1.00
O310   O     0.48172   0.63148   0.17345   0.00000  Uiso   1.00
O311   O     0.79482   0.57142   0.24686   0.00000  Uiso   1.00
O312   O     0.87185   0.42858   0.25314   0.00000  Uiso   1.00
O313   O     0.89496   0.58086   0.25503   0.00000  Uiso   1.00
O314   O     0.77171   0.41914   0.24498   0.00000  Uiso   1.00
C315   C     0.84769   0.59986   0.25203   0.00000  Uiso   1.00
C316   C     0.81901   0.40014   0.24791   0.00000  Uiso   1.00
O317   O     0.75518   0.49263   0.30855   0.00000  Uiso   1.00
O318   O     0.91149   0.50737   0.19146   0.00000  Uiso   1.00
O319   O     0.85532   0.50207   0.31671   0.00000  Uiso   1.00
O320   O     0.81134   0.49793   0.18329   0.00000  Uiso   1.00
C321   C     0.79461   0.49626   0.33324   0.00000  Uiso   1.00
C322   C     0.87212   0.50447   0.16685   0.00000  Uiso   1.00
Cu323  Cu    0.77404   0.49441   0.24517   0.00000  Uiso   1.00
Cu324  Cu    0.89263   0.50559   0.25484   0.00000  Uiso   1.00
C325   C     0.77102   0.49238   0.38117   0.00000  Uiso   1.00
C326   C     0.89573   0.51392   0.11960   0.00000  Uiso   1.00
C327   C     0.68845   0.46206   0.44594   0.00000  Uiso   1.00
C328   C     0.97244   0.56079   0.05863   0.00000  Uiso   1.00
C329   C     0.70745   0.47071   0.40096   0.00000  Uiso   1.00
C330   C     0.95589   0.54477   0.10203   0.00000  Uiso   1.00
C331   C     0.81452   0.50787   0.40706   0.00000  Uiso   1.00
C332   C     0.85331   0.49775   0.09309   0.00000  Uiso   1.00
C333   C     0.79641   0.50116   0.45278   0.00000  Uiso   1.00
C334   C     0.86712   0.51588   0.05004   0.00000  Uiso   1.00
C335   C     0.73249   0.47595   0.47205   0.00000  Uiso   1.00
C336   C     0.92860   0.54689   0.03238   0.00000  Uiso   1.00
C337   C     0.84057   0.51731   0.47936   0.00000  Uiso   1.00
C338   C     0.82158   0.50374   0.02429   0.00000  Uiso   1.00
C339   C     0.75723   0.47975   0.04255   0.00000  Uiso   1.00
C340   C     0.90249   0.54790   0.46276   0.00000  Uiso   1.00
C341   C     0.71331   0.46433   0.01682   0.00000  Uiso   1.00
C342   C     0.94524   0.56424   0.48913   0.00000  Uiso   1.00
H343   H     0.80940   0.47093   0.10722   0.00000  Uiso   1.00
H344   H     0.86312   0.52330   0.39025   0.00000  Uiso   1.00
H345   H     0.98927   0.55788   0.12217   0.00000  Uiso   1.00
H346   H     0.67302   0.45858   0.38150   0.00000  Uiso   1.00
H347   H     0.97256   0.44367   0.46004   0.00000  Uiso   1.00
H348   H     0.68602   0.58482   0.04595   0.00000  Uiso   1.00
H349   H     0.73871   0.47485   0.07735   0.00000  Uiso   1.00
H350   H     0.91910   0.56127   0.42954   0.00000  Uiso   1.00
C351   C     0.85097   0.65492   0.25909   0.00000  Uiso   1.00
C352   C     0.81580   0.34509   0.24079   0.00000  Uiso   1.00
N353   N     0.98173   0.51401   0.26212   0.00000  Uiso   1.00
N354   N     0.68494   0.48599   0.23788   0.00000  Uiso   1.00
H355   H     0.66807   0.53841   0.28430   0.00000  Uiso   1.00
H356   H     0.99860   0.46159   0.21569   0.00000  Uiso   1.00
O357   O     0.98319   0.44152   0.03529   0.00000  Uiso   1.00
C358   C     0.97772   0.39881   0.06200   0.00000  Uiso   1.00
H359   H     0.68062   0.37476   0.04796   0.00000  Uiso   1.00
H360   H     0.93023   0.37273   0.06464   0.00000  Uiso   1.00
H361   H     0.98017   0.41273   0.09572   0.00000  Uiso   1.00
O362   O     0.67247   0.59369   0.47175   0.00000  Uiso   1.00
C363   C     0.66840   0.64319   0.45891   0.00000  Uiso   1.00
H364   H     0.71510   0.33716   0.45647   0.00000  Uiso   1.00
H365   H     0.96536   0.66069   0.48317   0.00000  Uiso   1.00
H366   H     0.99193   0.64048   0.42594   0.00000  Uiso   1.00
N367   N     0.88332   0.34747   0.29144   0.00000  Uiso   1.00
O368   O     0.94141   0.34366   0.28901   0.00000  Uiso   1.00
O369   O     0.85188   0.36846   0.32644   0.00000  Uiso   1.00
N370   N     0.78355   0.65256   0.20837   0.00000  Uiso   1.00
O371   O     0.72555   0.65648   0.21066   0.00000  Uiso   1.00
O372   O     0.81505   0.63148   0.17345   0.00000  Uiso   1.00
O373   O     0.12815   0.90476   0.24686   0.00000  Uiso   1.00
O374   O     0.20518   0.76191   0.25314   0.00000  Uiso   1.00
O375   O     0.22829   0.91420   0.25503   0.00000  Uiso   1.00
O376   O     0.10504   0.75247   0.24498   0.00000  Uiso   1.00
C377   C     0.18103   0.93320   0.25203   0.00000  Uiso   1.00
C378   C     0.15234   0.73347   0.24791   0.00000  Uiso   1.00
O379   O     0.08851   0.82597   0.30855   0.00000  Uiso   1.00
O380   O     0.24482   0.84070   0.19146   0.00000  Uiso   1.00
O381   O     0.18866   0.83540   0.31671   0.00000  Uiso   1.00
O382   O     0.14468   0.83126   0.18329   0.00000  Uiso   1.00
C383   C     0.12794   0.82959   0.33324   0.00000  Uiso   1.00
C384   C     0.20545   0.83780   0.16685   0.00000  Uiso   1.00
Cu385  Cu    0.10737   0.82775   0.24517   0.00000  Uiso   1.00
Cu386  Cu    0.22596   0.83892   0.25484   0.00000  Uiso   1.00
C387   C     0.10435   0.82571   0.38117   0.00000  Uiso   1.00
C388   C     0.22907   0.84725   0.11960   0.00000  Uiso   1.00
C389   C     0.02178   0.79539   0.44594   0.00000  Uiso   1.00
C390   C     0.30577   0.89412   0.05863   0.00000  Uiso   1.00
C391   C     0.04079   0.80405   0.40096   0.00000  Uiso   1.00
C392   C     0.28922   0.87811   0.10203   0.00000  Uiso   1.00
C393   C     0.14785   0.84120   0.40706   0.00000  Uiso   1.00
C394   C     0.18664   0.83108   0.09309   0.00000  Uiso   1.00
C395   C     0.12975   0.83449   0.45278   0.00000  Uiso   1.00
C396   C     0.20046   0.84922   0.05004   0.00000  Uiso   1.00
C397   C     0.06582   0.80928   0.47205   0.00000  Uiso   1.00
C398   C     0.26193   0.88023   0.03238   0.00000  Uiso   1.00
C399   C     0.17390   0.85064   0.47936   0.00000  Uiso   1.00
C400   C     0.15491   0.83707   0.02429   0.00000  Uiso   1.00
C401   C     0.09056   0.81309   0.04255   0.00000  Uiso   1.00
C402   C     0.23582   0.88123   0.46276   0.00000  Uiso   1.00
C403   C     0.04664   0.79766   0.01682   0.00000  Uiso   1.00
C404   C     0.27857   0.89757   0.48913   0.00000  Uiso   1.00
H405   H     0.14273   0.80426   0.10722   0.00000  Uiso   1.00
H406   H     0.19645   0.85663   0.39025   0.00000  Uiso   1.00
H407   H     0.32260   0.89122   0.12217   0.00000  Uiso   1.00
H408   H     0.00635   0.79191   0.38150   0.00000  Uiso   1.00
H409   H     0.30590   0.77700   0.46004   0.00000  Uiso   1.00
H410   H     0.01936   0.91815   0.04595   0.00000  Uiso   1.00
H411   H     0.07205   0.80818   0.07735   0.00000  Uiso   1.00
H412   H     0.25243   0.89461   0.42954   0.00000  Uiso   1.00
C413   C     0.18430   0.98825   0.25909   0.00000  Uiso   1.00
C414   C     0.14913   0.67842   0.24079   0.00000  Uiso   1.00
N415   N     0.31506   0.84735   0.26212   0.00000  Uiso   1.00
N416   N     0.01827   0.81932   0.23788   0.00000  Uiso   1.00
H417   H     0.00140   0.87174   0.28430   0.00000  Uiso   1.00
H418   H     0.33193   0.79493   0.21569   0.00000  Uiso   1.00
O419   O     0.31653   0.77486   0.03529   0.00000  Uiso   1.00
C420   C     0.31105   0.73214   0.06200   0.00000  Uiso   1.00
H421   H     0.01395   0.70810   0.04796   0.00000  Uiso   1.00
H422   H     0.26356   0.70606   0.06464   0.00000  Uiso   1.00
H423   H     0.31350   0.74607   0.09572   0.00000  Uiso   1.00
O424   O     0.00580   0.92703   0.47175   0.00000  Uiso   1.00
C425   C     0.00173   0.97653   0.45891   0.00000  Uiso   1.00
H426   H     0.04843   0.67050   0.45647   0.00000  Uiso   1.00
H427   H     0.29870   0.99402   0.48317   0.00000  Uiso   1.00
H428   H     0.32527   0.97382   0.42594   0.00000  Uiso   1.00
N429   N     0.21665   0.68080   0.29144   0.00000  Uiso   1.00
O430   O     0.27474   0.67700   0.28901   0.00000  Uiso   1.00
O431   O     0.18521   0.70180   0.32644   0.00000  Uiso   1.00
N432   N     0.11689   0.98589   0.20837   0.00000  Uiso   1.00
O433   O     0.05888   0.98981   0.21066   0.00000  Uiso   1.00
O434   O     0.14838   0.96482   0.17345   0.00000  Uiso   1.00
O435   O     0.46148   0.90476   0.24686   0.00000  Uiso   1.00
O436   O     0.53852   0.76191   0.25314   0.00000  Uiso   1.00
O437   O     0.56163   0.91420   0.25503   0.00000  Uiso   1.00
O438   O     0.43837   0.75247   0.24498   0.00000  Uiso   1.00
C439   C     0.51436   0.93320   0.25203   0.00000  Uiso   1.00
C440   C     0.48567   0.73347   0.24791   0.00000  Uiso   1.00
O441   O     0.42185   0.82597   0.30855   0.00000  Uiso   1.00
O442   O     0.57815   0.84070   0.19146   0.00000  Uiso   1.00
O443   O     0.52199   0.83540   0.31671   0.00000  Uiso   1.00
O444   O     0.47801   0.83126   0.18329   0.00000  Uiso   1.00
C445   C     0.46127   0.82959   0.33324   0.00000  Uiso   1.00
C446   C     0.53878   0.83780   0.16685   0.00000  Uiso   1.00
Cu447  Cu    0.44071   0.82775   0.24517   0.00000  Uiso   1.00
Cu448  Cu    0.55929   0.83892   0.25484   0.00000  Uiso   1.00
C449   C     0.43769   0.82571   0.38117   0.00000  Uiso   1.00
C450   C     0.56240   0.84725   0.11960   0.00000  Uiso   1.00
C451   C     0.35512   0.79539   0.44594   0.00000  Uiso   1.00
C452   C     0.63910   0.89412   0.05863   0.00000  Uiso   1.00
C453   C     0.37412   0.80405   0.40096   0.00000  Uiso   1.00
C454   C     0.62255   0.87811   0.10203   0.00000  Uiso   1.00
C455   C     0.48119   0.84120   0.40706   0.00000  Uiso   1.00
C456   C     0.51997   0.83108   0.09309   0.00000  Uiso   1.00
C457   C     0.46308   0.83449   0.45278   0.00000  Uiso   1.00
C458   C     0.53379   0.84922   0.05004   0.00000  Uiso   1.00
C459   C     0.39916   0.80928   0.47205   0.00000  Uiso   1.00
C460   C     0.59526   0.88023   0.03238   0.00000  Uiso   1.00
C461   C     0.50724   0.85064   0.47936   0.00000  Uiso   1.00
C462   C     0.48825   0.83707   0.02429   0.00000  Uiso   1.00
C463   C     0.42389   0.81309   0.04255   0.00000  Uiso   1.00
C464   C     0.56915   0.88123   0.46276   0.00000  Uiso   1.00
C465   C     0.37997   0.79766   0.01682   0.00000  Uiso   1.00
C466   C     0.61190   0.89757   0.48913   0.00000  Uiso   1.00
H467   H     0.47606   0.80426   0.10722   0.00000  Uiso   1.00
H468   H     0.52979   0.85663   0.39025   0.00000  Uiso   1.00
H469   H     0.65593   0.89122   0.12217   0.00000  Uiso   1.00
H470   H     0.33969   0.79191   0.38150   0.00000  Uiso   1.00
H471   H     0.63923   0.77700   0.46004   0.00000  Uiso   1.00
H472   H     0.35269   0.91815   0.04595   0.00000  Uiso   1.00
H473   H     0.40538   0.80818   0.07735   0.00000  Uiso   1.00
H474   H     0.58577   0.89461   0.42954   0.00000  Uiso   1.00
C475   C     0.51763   0.98825   0.25909   0.00000  Uiso   1.00
C476   C     0.48247   0.67842   0.24079   0.00000  Uiso   1.00
N477   N     0.64839   0.84735   0.26212   0.00000  Uiso   1.00
N478   N     0.35161   0.81932   0.23788   0.00000  Uiso   1.00
H479   H     0.33474   0.87174   0.28430   0.00000  Uiso   1.00
H480   H     0.66527   0.79493   0.21569   0.00000  Uiso   1.00
O481   O     0.64986   0.77486   0.03529   0.00000  Uiso   1.00
C482   C     0.64438   0.73214   0.06200   0.00000  Uiso   1.00
H483   H     0.34728   0.70810   0.04796   0.00000  Uiso   1.00
H484   H     0.59690   0.70606   0.06464   0.00000  Uiso   1.00
H485   H     0.64684   0.74607   0.09572   0.00000  Uiso   1.00
O486   O     0.33913   0.92703   0.47175   0.00000  Uiso   1.00
C487   C     0.33507   0.97653   0.45891   0.00000  Uiso   1.00
H488   H     0.38176   0.67050   0.45647   0.00000  Uiso   1.00
H489   H     0.63203   0.99402   0.48317   0.00000  Uiso   1.00
H490   H     0.65860   0.97382   0.42594   0.00000  Uiso   1.00
N491   N     0.54999   0.68080   0.29144   0.00000  Uiso   1.00
O492   O     0.60807   0.67700   0.28901   0.00000  Uiso   1.00
O493   O     0.51854   0.70180   0.32644   0.00000  Uiso   1.00
N494   N     0.45022   0.98589   0.20837   0.00000  Uiso   1.00
O495   O     0.39222   0.98981   0.21066   0.00000  Uiso   1.00
O496   O     0.48172   0.96482   0.17345   0.00000  Uiso   1.00
O497   O     0.79482   0.90476   0.24686   0.00000  Uiso   1.00
O498   O     0.87185   0.76191   0.25314   0.00000  Uiso   1.00
O499   O     0.89496   0.91420   0.25503   0.00000  Uiso   1.00
O500   O     0.77171   0.75247   0.24498   0.00000  Uiso   1.00
C501   C     0.84769   0.93320   0.25203   0.00000  Uiso   1.00
C502   C     0.81901   0.73347   0.24791   0.00000  Uiso   1.00
O503   O     0.75518   0.82597   0.30855   0.00000  Uiso   1.00
O504   O     0.91149   0.84070   0.19146   0.00000  Uiso   1.00
O505   O     0.85532   0.83540   0.31671   0.00000  Uiso   1.00
O506   O     0.81134   0.83126   0.18329   0.00000  Uiso   1.00
C507   C     0.79461   0.82959   0.33324   0.00000  Uiso   1.00
C508   C     0.87212   0.83780   0.16685   0.00000  Uiso   1.00
Cu509  Cu    0.77404   0.82775   0.24517   0.00000  Uiso   1.00
Cu510  Cu    0.89263   0.83892   0.25484   0.00000  Uiso   1.00
C511   C     0.77102   0.82571   0.38117   0.00000  Uiso   1.00
C512   C     0.89573   0.84725   0.11960   0.00000  Uiso   1.00
C513   C     0.68845   0.79539   0.44594   0.00000  Uiso   1.00
C514   C     0.97244   0.89412   0.05863   0.00000  Uiso   1.00
C515   C     0.70745   0.80405   0.40096   0.00000  Uiso   1.00
C516   C     0.95589   0.87811   0.10203   0.00000  Uiso   1.00
C517   C     0.81452   0.84120   0.40706   0.00000  Uiso   1.00
C518   C     0.85331   0.83108   0.09309   0.00000  Uiso   1.00
C519   C     0.79641   0.83449   0.45278   0.00000  Uiso   1.00
C520   C     0.86712   0.84922   0.05004   0.00000  Uiso   1.00
C521   C     0.73249   0.80928   0.47205   0.00000  Uiso   1.00
C522   C     0.92860   0.88023   0.03238   0.00000  Uiso   1.00
C523   C     0.84057   0.85064   0.47936   0.00000  Uiso   1.00
C524   C     0.82158   0.83707   0.02429   0.00000  Uiso   1.00
C525   C     0.75723   0.81309   0.04255   0.00000  Uiso   1.00
C526   C     0.90249   0.88123   0.46276   0.00000  Uiso   1.00
C527   C     0.71331   0.79766   0.01682   0.00000  Uiso   1.00
C528   C     0.94524   0.89757   0.48913   0.00000  Uiso   1.00
H529   H     0.80940   0.80426   0.10722   0.00000  Uiso   1.00
H530   H     0.86312   0.85663   0.39025   0.00000  Uiso   1.00
H531   H     0.98927   0.89122   0.12217   0.00000  Uiso   1.00
H532   H     0.67302   0.79191   0.38150   0.00000  Uiso   1.00
H533   H     0.97256   0.77700   0.46004   0.00000  Uiso   1.00
H534   H     0.68602   0.91815   0.04595   0.00000  Uiso   1.00
H535   H     0.73871   0.80818   0.07735   0.00000  Uiso   1.00
H536   H     0.91910   0.89461   0.42954   0.00000  Uiso   1.00
C537   C     0.85097   0.98825   0.25909   0.00000  Uiso   1.00
C538   C     0.81580   0.67842   0.24079   0.00000  Uiso   1.00
N539   N     0.98173   0.84735   0.26212   0.00000  Uiso   1.00
N540   N     0.68494   0.81932   0.23788   0.00000  Uiso   1.00
H541   H     0.66807   0.87174   0.28430   0.00000  Uiso   1.00
H542   H     0.99860   0.79493   0.21569   0.00000  Uiso   1.00
O543   O     0.98319   0.77486   0.03529   0.00000  Uiso   1.00
C544   C     0.97772   0.73214   0.06200   0.00000  Uiso   1.00
H545   H     0.68062   0.70810   0.04796   0.00000  Uiso   1.00
H546   H     0.93023   0.70606   0.06464   0.00000  Uiso   1.00
H547   H     0.98017   0.74607   0.09572   0.00000  Uiso   1.00
O548   O     0.67247   0.92703   0.47175   0.00000  Uiso   1.00
C549   C     0.66840   0.97653   0.45891   0.00000  Uiso   1.00
H550   H     0.71510   0.67050   0.45647   0.00000  Uiso   1.00
H551   H     0.96536   0.99402   0.48317   0.00000  Uiso   1.00
H552   H     0.99193   0.97382   0.42594   0.00000  Uiso   1.00
N553   N     0.88332   0.68080   0.29144   0.00000  Uiso   1.00
O554   O     0.94141   0.67700   0.28901   0.00000  Uiso   1.00
O555   O     0.85188   0.70180   0.32644   0.00000  Uiso   1.00
N556   N     0.78355   0.98589   0.20837   0.00000  Uiso   1.00
O557   O     0.72555   0.98981   0.21066   0.00000  Uiso   1.00
O558   O     0.81505   0.96482   0.17345   0.00000  Uiso   1.00
O559   O     0.12815   0.23809   0.74686   0.00000  Uiso   1.00
O560   O     0.20518   0.09524   0.75314   0.00000  Uiso   1.00
O561   O     0.22829   0.24753   0.75503   0.00000  Uiso   1.00
O562   O     0.10504   0.08580   0.74498   0.00000  Uiso   1.00
C563   C     0.18103   0.26653   0.75203   0.00000  Uiso   1.00
C564   C     0.15234   0.06680   0.74791   0.00000  Uiso   1.00
O565   O     0.08851   0.15930   0.80855   0.00000  Uiso   1.00
O566   O     0.24482   0.17403   0.69146   0.00000  Uiso   1.00
O567   O     0.18866   0.16874   0.81671   0.00000  Uiso   1.00
O568   O     0.14468   0.16460   0.68329   0.00000  Uiso   1.00
C569   C     0.12794   0.16293   0.83324   0.00000  Uiso   1.00
C570   C     0.20545   0.17114   0.66685   0.00000  Uiso   1.00
Cu571  Cu    0.10737   0.16108   0.74517   0.00000  Uiso   1.00
Cu572  Cu    0.22596   0.17225   0.75484   0.00000  Uiso   1.00
C573   C     0.10435   0.15905   0.88117   0.00000  Uiso   1.00
C574   C     0.22907   0.18059   0.61960   0.00000  Uiso   1.00
C575   C     0.02178   0.12873   0.94594   0.00000  Uiso   1.00
C576   C     0.30577   0.22745   0.55863   0.00000  Uiso   1.00
C577   C     0.04079   0.13738   0.90096   0.00000  Uiso   1.00
C578   C     0.28922   0.21144   0.60203   0.00000  Uiso   1.00
C579   C     0.14785   0.17454   0.90706   0.00000  Uiso   1.00
C580   C     0.18664   0.16442   0.59309   0.00000  Uiso   1.00
C581   C     0.12975   0.16782   0.95278   0.00000  Uiso   1.00
C582   C     0.20046   0.18255   0.55004   0.00000  Uiso   1.00
C583   C     0.06582   0.14262   0.97205   0.00000  Uiso   1.00
C584   C     0.26193   0.21356   0.53238   0.00000  Uiso   1.00
C585   C     0.17390   0.18398   0.97936   0.00000  Uiso   1.00
C586   C     0.15491   0.17041   0.52429   0.00000  Uiso   1.00
C587   C     0.09056   0.14642   0.54255   0.00000  Uiso   1.00
C588   C     0.23582   0.21457   0.96276   0.00000  Uiso   1.00
C589   C     0.04664   0.13100   0.51682   0.00000  Uiso   1.00
C590   C     0.27857   0.23091   0.98913   0.00000  Uiso   1.00
H591   H     0.14273   0.13759   0.60722   0.00000  Uiso   1.00
H592   H     0.19645   0.18997   0.89025   0.00000  Uiso   1.00
H593   H     0.32260   0.22455   0.62217   0.00000  Uiso   1.00
H594   H     0.00635   0.12524   0.88150   0.00000  Uiso   1.00
H595   H     0.30590   0.11033   0.96004   0.00000  Uiso   1.00
H596   H     0.01936   0.25148   0.54595   0.00000  Uiso   1.00
H597   H     0.07205   0.14151   0.57735   0.00000  Uiso   1.00
H598   H     0.25243   0.22794   0.92954   0.00000  Uiso   1.00
C599   C     0.18430   0.32159   0.75909   0.00000  Uiso   1.00
C600   C     0.14913   0.01175   0.74079   0.00000  Uiso   1.00
N601   N     0.31506   0.18068   0.76212   0.00000  Uiso   1.00
N602   N     0.01827   0.15265   0.73788   0.00000  Uiso   1.00
H603   H     0.00140   0.20508   0.78430   0.00000  Uiso   1.00
H604   H     0.33193   0.12826   0.71569   0.00000  Uiso   1.00
O605   O     0.31653   0.10819   0.53529   0.00000  Uiso   1.00
C606   C     0.31105   0.06547   0.56200   0.00000  Uiso   1.00
H607   H     0.01395   0.04143   0.54796   0.00000  Uiso   1.00
H608   H     0.26356   0.03940   0.56464   0.00000  Uiso   1.00
H609   H     0.31350   0.07940   0.59572   0.00000  Uiso   1.00
O610   O     0.00580   0.26036   0.97175   0.00000  Uiso   1.00
C611   C     0.00173   0.30986   0.95891   0.00000  Uiso   1.00
H612   H     0.04843   0.00383   0.95647   0.00000  Uiso   1.00
H613   H     0.29870   0.32735   0.98317   0.00000  Uiso   1.00
H614   H     0.32527   0.30715   0.92594   0.00000  Uiso   1.00
N615   N     0.21665   0.01414   0.79144   0.00000  Uiso   1.00
O616   O     0.27474   0.01033   0.78901   0.00000  Uiso   1.00
O617   O     0.18521   0.03513   0.82644   0.00000  Uiso   1.00
N618   N     0.11689   0.31922   0.70837   0.00000  Uiso   1.00
O619   O     0.05888   0.32315   0.71066   0.00000  Uiso   1.00
O620   O     0.14838   0.29815   0.67345   0.00000  Uiso   1.00
O621   O     0.46148   0.23809   0.74686   0.00000  Uiso   1.00
O622   O     0.53852   0.09524   0.75314   0.00000  Uiso   1.00
O623   O     0.56163   0.24753   0.75503   0.00000  Uiso   1.00
O624   O     0.43837   0.08580   0.74498   0.00000  Uiso   1.00
C625   C     0.51436   0.26653   0.75203   0.00000  Uiso   1.00
C626   C     0.48567   0.06680   0.74791   0.00000  Uiso   1.00
O627   O     0.42185   0.15930   0.80855   0.00000  Uiso   1.00
O628   O     0.57815   0.17403   0.69146   0.00000  Uiso   1.00
O629   O     0.52199   0.16874   0.81671   0.00000  Uiso   1.00
O630   O     0.47801   0.16460   0.68329   0.00000  Uiso   1.00
C631   C     0.46127   0.16293   0.83324   0.00000  Uiso   1.00
C632   C     0.53878   0.17114   0.66685   0.00000  Uiso   1.00
Cu633  Cu    0.44071   0.16108   0.74517   0.00000  Uiso   1.00
Cu634  Cu    0.55929   0.17225   0.75484   0.00000  Uiso   1.00
C635   C     0.43769   0.15905   0.88117   0.00000  Uiso   1.00
C636   C     0.56240   0.18059   0.61960   0.00000  Uiso   1.00
C637   C     0.35512   0.12873   0.94594   0.00000  Uiso   1.00
C638   C     0.63910   0.22745   0.55863   0.00000  Uiso   1.00
C639   C     0.37412   0.13738   0.90096   0.00000  Uiso   1.00
C640   C     0.62255   0.21144   0.60203   0.00000  Uiso   1.00
C641   C     0.48119   0.17454   0.90706   0.00000  Uiso   1.00
C642   C     0.51997   0.16442   0.59309   0.00000  Uiso   1.00
C643   C     0.46308   0.16782   0.95278   0.00000  Uiso   1.00
C644   C     0.53379   0.18255   0.55004   0.00000  Uiso   1.00
C645   C     0.39916   0.14262   0.97205   0.00000  Uiso   1.00
C646   C     0.59526   0.21356   0.53238   0.00000  Uiso   1.00
C647   C     0.50724   0.18398   0.97936   0.00000  Uiso   1.00
C648   C     0.48825   0.17041   0.52429   0.00000  Uiso   1.00
C649   C     0.42389   0.14642   0.54255   0.00000  Uiso   1.00
C650   C     0.56915   0.21457   0.96276   0.00000  Uiso   1.00
C651   C     0.37997   0.13100   0.51682   0.00000  Uiso   1.00
C652   C     0.61190   0.23091   0.98913   0.00000  Uiso   1.00
H653   H     0.47606   0.13759   0.60722   0.00000  Uiso   1.00
H654   H     0.52979   0.18997   0.89025   0.00000  Uiso   1.00
H655   H     0.65593   0.22455   0.62217   0.00000  Uiso   1.00
H656   H     0.33969   0.12524   0.88150   0.00000  Uiso   1.00
H657   H     0.63923   0.11033   0.96004   0.00000  Uiso   1.00
H658   H     0.35269   0.25148   0.54595   0.00000  Uiso   1.00
H659   H     0.40538   0.14151   0.57735   0.00000  Uiso   1.00
H660   H     0.58577   0.22794   0.92954   0.00000  Uiso   1.00
C661   C     0.51763   0.32159   0.75909   0.00000  Uiso   1.00
C662   C     0.48247   0.01175   0.74079   0.00000  Uiso   1.00
N663   N     0.64839   0.18068   0.76212   0.00000  Uiso   1.00
N664   N     0.35161   0.15265   0.73788   0.00000  Uiso   1.00
H665   H     0.33474   0.20508   0.78430   0.00000  Uiso   1.00
H666   H     0.66527   0.12826   0.71569   0.00000  Uiso   1.00
O667   O     0.64986   0.10819   0.53529   0.00000  Uiso   1.00
C668   C     0.64438   0.06547   0.56200   0.00000  Uiso   1.00
H669   H     0.34728   0.04143   0.54796   0.00000  Uiso   1.00
H670   H     0.59690   0.03940   0.56464   0.00000  Uiso   1.00
H671   H     0.64684   0.07940   0.59572   0.00000  Uiso   1.00
O672   O     0.33913   0.26036   0.97175   0.00000  Uiso   1.00
C673   C     0.33507   0.30986   0.95891   0.00000  Uiso   1.00
H674   H     0.38176   0.00383   0.95647   0.00000  Uiso   1.00
H675   H     0.63203   0.32735   0.98317   0.00000  Uiso   1.00
H676   H     0.65860   0.30715   0.92594   0.00000  Uiso   1.00
N677   N     0.54999   0.01414   0.79144   0.00000  Uiso   1.00
O678   O     0.60807   0.01033   0.78901   0.00000  Uiso   1.00
O679   O     0.51854   0.03513   0.82644   0.00000  Uiso   1.00
N680   N     0.45022   0.31922   0.70837   0.00000  Uiso   1.00
O681   O     0.39222   0.32315   0.71066   0.00000  Uiso   1.00
O682   O     0.48172   0.29815   0.67345   0.00000  Uiso   1.00
O683   O     0.79482   0.23809   0.74686   0.00000  Uiso   1.00
O684   O     0.87185   0.09524   0.75314   0.00000  Uiso   1.00
O685   O     0.89496   0.24753   0.75503   0.00000  Uiso   1.00
O686   O     0.77171   0.08580   0.74498   0.00000  Uiso   1.00
C687   C     0.84769   0.26653   0.75203   0.00000  Uiso   1.00
C688   C     0.81901   0.06680   0.74791   0.00000  Uiso   1.00
O689   O     0.75518   0.15930   0.80855   0.00000  Uiso   1.00
O690   O     0.91149   0.17403   0.69146   0.00000  Uiso   1.00
O691   O     0.85532   0.16874   0.81671   0.00000  Uiso   1.00
O692   O     0.81134   0.16460   0.68329   0.00000  Uiso   1.00
C693   C     0.79461   0.16293   0.83324   0.00000  Uiso   1.00
C694   C     0.87212   0.17114   0.66685   0.00000  Uiso   1.00
Cu695  Cu    0.77404   0.16108   0.74517   0.00000  Uiso   1.00
Cu696  Cu    0.89263   0.17225   0.75484   0.00000  Uiso   1.00
C697   C     0.77102   0.15905   0.88117   0.00000  Uiso   1.00
C698   C     0.89573   0.18059   0.61960   0.00000  Uiso   1.00
C699   C     0.68845   0.12873   0.94594   0.00000  Uiso   1.00
C700   C     0.97244   0.22745   0.55863   0.00000  Uiso   1.00
C701   C     0.70745   0.13738   0.90096   0.00000  Uiso   1.00
C702   C     0.95589   0.21144   0.60203   0.00000  Uiso   1.00
C703   C     0.81452   0.17454   0.90706   0.00000  Uiso   1.00
C704   C     0.85331   0.16442   0.59309   0.00000  Uiso   1.00
C705   C     0.79641   0.16782   0.95278   0.00000  Uiso   1.00
C706   C     0.86712   0.18255   0.55004   0.00000  Uiso   1.00
C707   C     0.73249   0.14262   0.97205   0.00000  Uiso   1.00
C708   C     0.92860   0.21356   0.53238   0.00000  Uiso   1.00
C709   C     0.84057   0.18398   0.97936   0.00000  Uiso   1.00
C710   C     0.82158   0.17041   0.52429   0.00000  Uiso   1.00
C711   C     0.75723   0.14642   0.54255   0.00000  Uiso   1.00
C712   C     0.90249   0.21457   0.96276   0.00000  Uiso   1.00
C713   C     0.71331   0.13100   0.51682   0.00000  Uiso   1.00
C714   C     0.94524   0.23091   0.98913   0.00000  Uiso   1.00
H715   H     0.80940   0.13759   0.60722   0.00000  Uiso   1.00
H716   H     0.86312   0.18997   0.89025   0.00000  Uiso   1.00
H717   H     0.98927   0.22455   0.62217   0.00000  Uiso   1.00
H718   H     0.67302   0.12524   0.88150   0.00000  Uiso   1.00
H719   H     0.97256   0.11033   0.96004   0.00000  Uiso   1.00
H720   H     0.68602   0.25148   0.54595   0.00000  Uiso   1.00
H721   H     0.73871   0.14151   0.57735   0.00000  Uiso   1.00
H722   H     0.91910   0.22794   0.92954   0.00000  Uiso   1.00
C723   C     0.85097   0.32159   0.75909   0.00000  Uiso   1.00
C724   C     0.81580   0.01175   0.74079   0.00000  Uiso   1.00
N725   N     0.98173   0.18068   0.76212   0.00000  Uiso   1.00
N726   N     0.68494   0.15265   0.73788   0.00000  Uiso   1.00
H727   H     0.66807   0.20508   0.78430   0.00000  Uiso   1.00
H728   H     0.99860   0.12826   0.71569   0.00000  Uiso   1.00
O729   O     0.98319   0.10819   0.53529   0.00000  Uiso   1.00
C730   C     0.97772   0.06547   0.56200   0.00000  Uiso   1.00
H731   H     0.68062   0.04143   0.54796   0.00000  Uiso   1.00
H732   H     0.93023   0.03940   0.56464   0.00000  Uiso   1.00
H733   H     0.98017   0.07940   0.59572   0.00000  Uiso   1.00
O734   O     0.67247   0.26036   0.97175   0.00000  Uiso   1.00
C735   C     0.66840   0.30986   0.95891   0.00000  Uiso   1.00
H736   H     0.71510   0.00383   0.95647   0.00000  Uiso   1.00
H737   H     0.96536   0.32735   0.98317   0.00000  Uiso   1.00
H738   H     0.99193   0.30715   0.92594   0.00000  Uiso   1.00
N739   N     0.88332   0.01414   0.79144   0.00000  Uiso   1.00
O740   O     0.94141   0.01033   0.78901   0.00000  Uiso   1.00
O741   O     0.85188   0.03513   0.82644   0.00000  Uiso   1.00
N742   N     0.78355   0.31922   0.70837   0.00000  Uiso   1.00
O743   O     0.72555   0.32315   0.71066   0.00000  Uiso   1.00
O744   O     0.81505   0.29815   0.67345   0.00000  Uiso   1.00
O745   O     0.12815   0.57142   0.74686   0.00000  Uiso   1.00
O746   O     0.20518   0.42858   0.75314   0.00000  Uiso   1.00
O747   O     0.22829   0.58086   0.75503   0.00000  Uiso   1.00
O748   O     0.10504   0.41914   0.74498   0.00000  Uiso   1.00
C749   C     0.18103   0.59986   0.75203   0.00000  Uiso   1.00
C750   C     0.15234   0.40014   0.74791   0.00000  Uiso   1.00
O751   O     0.08851   0.49263   0.80855   0.00000  Uiso   1.00
O752   O     0.24482   0.50737   0.69146   0.00000  Uiso   1.00
O753   O     0.18866   0.50207   0.81671   0.00000  Uiso   1.00
O754   O     0.14468   0.49793   0.68329   0.00000  Uiso   1.00
C755   C     0.12794   0.49626   0.83324   0.00000  Uiso   1.00
C756   C     0.20545   0.50447   0.66685   0.00000  Uiso   1.00
Cu757  Cu    0.10737   0.49441   0.74517   0.00000  Uiso   1.00
Cu758  Cu    0.22596   0.50559   0.75484   0.00000  Uiso   1.00
C759   C     0.10435   0.49238   0.88117   0.00000  Uiso   1.00
C760   C     0.22907   0.51392   0.61960   0.00000  Uiso   1.00
C761   C     0.02178   0.46206   0.94594   0.00000  Uiso   1.00
C762   C     0.30577   0.56079   0.55863   0.00000  Uiso   1.00
C763   C     0.04079   0.47071   0.90096   0.00000  Uiso   1.00
C764   C     0.28922   0.54477   0.60203   0.00000  Uiso   1.00
C765   C     0.14785   0.50787   0.90706   0.00000  Uiso   1.00
C766   C     0.18664   0.49775   0.59309   0.00000  Uiso   1.00
C767   C     0.12975   0.50116   0.95278   0.00000  Uiso   1.00
C768   C     0.20046   0.51588   0.55004   0.00000  Uiso   1.00
C769   C     0.06582   0.47595   0.97205   0.00000  Uiso   1.00
C770   C     0.26193   0.54689   0.53238   0.00000  Uiso   1.00
C771   C     0.17390   0.51731   0.97936   0.00000  Uiso   1.00
C772   C     0.15491   0.50374   0.52429   0.00000  Uiso   1.00
C773   C     0.09056   0.47975   0.54255   0.00000  Uiso   1.00
C774   C     0.23582   0.54790   0.96276   0.00000  Uiso   1.00
C775   C     0.04664   0.46433   0.51682   0.00000  Uiso   1.00
C776   C     0.27857   0.56424   0.98913   0.00000  Uiso   1.00
H777   H     0.14273   0.47093   0.60722   0.00000  Uiso   1.00
H778   H     0.19645   0.52330   0.89025   0.00000  Uiso   1.00
H779   H     0.32260   0.55788   0.62217   0.00000  Uiso   1.00
H780   H     0.00635   0.45858   0.88150   0.00000  Uiso   1.00
H781   H     0.30590   0.44367   0.96004   0.00000  Uiso   1.00
H782   H     0.01936   0.58482   0.54595   0.00000  Uiso   1.00
H783   H     0.07205   0.47485   0.57735   0.00000  Uiso   1.00
H784   H     0.25243   0.56127   0.92954   0.00000  Uiso   1.00
C785   C     0.18430   0.65492   0.75909   0.00000  Uiso   1.00
C786   C     0.14913   0.34509   0.74079   0.00000  Uiso   1.00
N787   N     0.31506   0.51401   0.76212   0.00000  Uiso   1.00
N788   N     0.01827   0.48599   0.73788   0.00000  Uiso   1.00
H789   H     0.00140   0.53841   0.78430   0.00000  Uiso   1.00
H790   H     0.33193   0.46159   0.71569   0.00000  Uiso   1.00
O791   O     0.31653   0.44152   0.53529   0.00000  Uiso   1.00
C792   C     0.31105   0.39881   0.56200   0.00000  Uiso   1.00
H793   H     0.01395   0.37476   0.54796   0.00000  Uiso   1.00
H794   H     0.26356   0.37273   0.56464   0.00000  Uiso   1.00
H795   H     0.31350   0.41273   0.59572   0.00000  Uiso   1.00
O796   O     0.00580   0.59369   0.97175   0.00000  Uiso   1.00
C797   C     0.00173   0.64319   0.95891   0.00000  Uiso   1.00
H798   H     0.04843   0.33716   0.95647   0.00000  Uiso   1.00
H799   H     0.29870   0.66069   0.98317   0.00000  Uiso   1.00
H800   H     0.32527   0.64048   0.92594   0.00000  Uiso   1.00
N801   N     0.21665   0.34747   0.79144   0.00000  Uiso   1.00
O802   O     0.27474   0.34366   0.78901   0.00000  Uiso   1.00
O803   O     0.18521   0.36846   0.82644   0.00000  Uiso   1.00
N804   N     0.11689   0.65256   0.70837   0.00000  Uiso   1.00
O805   O     0.05888   0.65648   0.71066   0.00000  Uiso   1.00
O806   O     0.14838   0.63148   0.67345   0.00000  Uiso   1.00
O807   O     0.46148   0.57142   0.74686   0.00000  Uiso   1.00
O808   O     0.53852   0.42858   0.75314   0.00000  Uiso   1.00
O809   O     0.56163   0.58086   0.75503   0.00000  Uiso   1.00
O810   O     0.43837   0.41914   0.74498   0.00000  Uiso   1.00
C811   C     0.51436   0.59986   0.75203   0.00000  Uiso   1.00
C812   C     0.48567   0.40014   0.74791   0.00000  Uiso   1.00
O813   O     0.42185   0.49263   0.80855   0.00000  Uiso   1.00
O814   O     0.57815   0.50737   0.69146   0.00000  Uiso   1.00
O815   O     0.52199   0.50207   0.81671   0.00000  Uiso   1.00
O816   O     0.47801   0.49793   0.68329   0.00000  Uiso   1.00
C817   C     0.46127   0.49626   0.83324   0.00000  Uiso   1.00
C818   C     0.53878   0.50447   0.66685   0.00000  Uiso   1.00
Cu819  Cu    0.44071   0.49441   0.74517   0.00000  Uiso   1.00
Cu820  Cu    0.55929   0.50559   0.75484   0.00000  Uiso   1.00
C821   C     0.43769   0.49238   0.88117   0.00000  Uiso   1.00
C822   C     0.56240   0.51392   0.61960   0.00000  Uiso   1.00
C823   C     0.35512   0.46206   0.94594   0.00000  Uiso   1.00
C824   C     0.63910   0.56079   0.55863   0.00000  Uiso   1.00
C825   C     0.37412   0.47071   0.90096   0.00000  Uiso   1.00
C826   C     0.62255   0.54477   0.60203   0.00000  Uiso   1.00
C827   C     0.48119   0.50787   0.90706   0.00000  Uiso   1.00
C828   C     0.51997   0.49775   0.59309   0.00000  Uiso   1.00
C829   C     0.46308   0.50116   0.95278   0.00000  Uiso   1.00
C830   C     0.53379   0.51588   0.55004   0.00000  Uiso   1.00
C831   C     0.39916   0.47595   0.97205   0.00000  Uiso   1.00
C832   C     0.59526   0.54689   0.53238   0.00000  Uiso   1.00
C833   C     0.50724   0.51731   0.97936   0.00000  Uiso   1.00
C834   C     0.48825   0.50374   0.52429   0.00000  Uiso   1.00
C835   C     0.42389   0.47975   0.54255   0.00000  Uiso   1.00
C836   C     0.56915   0.54790   0.96276   0.00000  Uiso   1.00
C837   C     0.37997   0.46433   0.51682   0.00000  Uiso   1.00
C838   C     0.61190   0.56424   0.98913   0.00000  Uiso   1.00
H839   H     0.47606   0.47093   0.60722   0.00000  Uiso   1.00
H840   H     0.52979   0.52330   0.89025   0.00000  Uiso   1.00
H841   H     0.65593   0.55788   0.62217   0.00000  Uiso   1.00
H842   H     0.33969   0.45858   0.88150   0.00000  Uiso   1.00
H843   H     0.63923   0.44367   0.96004   0.00000  Uiso   1.00
H844   H     0.35269   0.58482   0.54595   0.00000  Uiso   1.00
H845   H     0.40538   0.47485   0.57735   0.00000  Uiso   1.00
H846   H     0.58577   0.56127   0.92954   0.00000  Uiso   1.00
C847   C     0.51763   0.65492   0.75909   0.00000  Uiso   1.00
C848   C     0.48247   0.34509   0.74079   0.00000  Uiso   1.00
N849   N     0.64839   0.51401   0.76212   0.00000  Uiso   1.00
N850   N     0.35161   0.48599   0.73788   0.00000  Uiso   1.00
H851   H     0.33474   0.53841   0.78430   0.00000  Uiso   1.00
H852   H     0.66527   0.46159   0.71569   0.00000  Uiso   1.00
O853   O     0.64986   0.44152   0.53529   0.00000  Uiso   1.00
C854   C     0.64438   0.39881   0.56200   0.00000  Uiso   1.00
H855   H     0.34728   0.37476   0.54796   0.00000  Uiso   1.00
H856   H     0.59690   0.37273   0.56464   0.00000  Uiso   1.00
H857   H     0.64684   0.41273   0.59572   0.00000  Uiso   1.00
O858   O     0.33913   0.59369   0.97175   0.00000  Uiso   1.00
C859   C     0.33507   0.64319   0.95891   0.00000  Uiso   1.00
H860   H     0.38176   0.33716   0.95647   0.00000  Uiso   1.00
H861   H     0.63203   0.66069   0.98317   0.00000  Uiso   1.00
H862   H     0.65860   0.64048   0.92594   0.00000  Uiso   1.00
N863   N     0.54999   0.34747   0.79144   0.00000  Uiso   1.00
O864   O     0.60807   0.34366   0.78901   0.00000  Uiso   1.00
O865   O     0.51854   0.36846   0.82644   0.00000  Uiso   1.00
N866   N     0.45022   0.65256   0.70837   0.00000  Uiso   1.00
O867   O     0.39222   0.65648   0.71066   0.00000  Uiso   1.00
O868   O     0.48172   0.63148   0.67345   0.00000  Uiso   1.00
O869   O     0.79482   0.57142   0.74686   0.00000  Uiso   1.00
O870   O     0.87185   0.42858   0.75314   0.00000  Uiso   1.00
O871   O     0.89496   0.58086   0.75503   0.00000  Uiso   1.00
O872   O     0.77171   0.41914   0.74498   0.00000  Uiso   1.00
C873   C     0.84769   0.59986   0.75203   0.00000  Uiso   1.00
C874   C     0.81901   0.40014   0.74791   0.00000  Uiso   1.00
O875   O     0.75518   0.49263   0.80855   0.00000  Uiso   1.00
O876   O     0.91149   0.50737   0.69146   0.00000  Uiso   1.00
O877   O     0.85532   0.50207   0.81671   0.00000  Uiso   1.00
O878   O     0.81134   0.49793   0.68329   0.00000  Uiso   1.00
C879   C     0.79461   0.49626   0.83324   0.00000  Uiso   1.00
C880   C     0.87212   0.50447   0.66685   0.00000  Uiso   1.00
Cu881  Cu    0.77404   0.49441   0.74517   0.00000  Uiso   1.00
Cu882  Cu    0.89263   0.50559   0.75484   0.00000  Uiso   1.00
C883   C     0.77102   0.49238   0.88117   0.00000  Uiso   1.00
C884   C     0.89573   0.51392   0.61960   0.00000  Uiso   1.00
C885   C     0.68845   0.46206   0.94594   0.00000  Uiso   1.00
C886   C     0.97244   0.56079   0.55863   0.00000  Uiso   1.00
C887   C     0.70745   0.47071   0.90096   0.00000  Uiso   1.00
C888   C     0.95589   0.54477   0.60203   0.00000  Uiso   1.00
C889   C     0.81452   0.50787   0.90706   0.00000  Uiso   1.00
C890   C     0.85331   0.49775   0.59309   0.00000  Uiso   1.00
C891   C     0.79641   0.50116   0.95278   0.00000  Uiso   1.00
C892   C     0.86712   0.51588   0.55004   0.00000  Uiso   1.00
C893   C     0.73249   0.47595   0.97205   0.00000  Uiso   1.00
C894   C     0.92860   0.54689   0.53238   0.00000  Uiso   1.00
C895   C     0.84057   0.51731   0.97936   0.00000  Uiso   1.00
C896   C     0.82158   0.50374   0.52429   0.00000  Uiso   1.00
C897   C     0.75723   0.47975   0.54255   0.00000  Uiso   1.00
C898   C     0.90249   0.54790   0.96276   0.00000  Uiso   1.00
C899   C     0.71331   0.46433   0.51682   0.00000  Uiso   1.00
C900   C     0.94524   0.56424   0.98913   0.00000  Uiso   1.00
H901   H     0.80940   0.47093   0.60722   0.00000  Uiso   1.00
H902   H     0.86312   0.52330   0.89025   0.00000  Uiso   1.00
H903   H     0.98927   0.55788   0.62217   0.00000  Uiso   1.00
H904   H     0.67302   0.45858   0.88150   0.00000  Uiso   1.00
H905   H     0.97256   0.44367   0.96004   0.00000  Uiso   1.00
H906   H     0.68602   0.58482   0.54595   0.00000  Uiso   1.00
H907   H     0.73871   0.47485   0.57735   0.00000  Uiso   1.00
H908   H     0.91910   0.56127   0.92954   0.00000  Uiso   1.00
C909   C     0.85097   0.65492   0.75909   0.00000  Uiso   1.00
C910   C     0.81580   0.34509   0.74079   0.00000  Uiso   1.00
N911   N     0.98173   0.51401   0.76212   0.00000  Uiso   1.00
N912   N     0.68494   0.48599   0.73788   0.00000  Uiso   1.00
H913   H     0.66807   0.53841   0.78430   0.00000  Uiso   1.00
H914   H     0.99860   0.46159   0.71569   0.00000  Uiso   1.00
O915   O     0.98319   0.44152   0.53529   0.00000  Uiso   1.00
C916   C     0.97772   0.39881   0.56200   0.00000  Uiso   1.00
H917   H     0.68062   0.37476   0.54796   0.00000  Uiso   1.00
H918   H     0.93023   0.37273   0.56464   0.00000  Uiso   1.00
H919   H     0.98017   0.41273   0.59572   0.00000  Uiso   1.00
O920   O     0.67247   0.59369   0.97175   0.00000  Uiso   1.00
C921   C     0.66840   0.64319   0.95891   0.00000  Uiso   1.00
H922   H     0.71510   0.33716   0.95647   0.00000  Uiso   1.00
H923   H     0.96536   0.66069   0.98317   0.00000  Uiso   1.00
H924   H     0.99193   0.64048   0.92594   0.00000  Uiso   1.00
N925   N     0.88332   0.34747   0.79144   0.00000  Uiso   1.00
O926   O     0.94141   0.34366   0.78901   0.00000  Uiso   1.00
O927   O     0.85188   0.36846   0.82644   0.00000  Uiso   1.00
N928   N     0.78355   0.65256   0.70837   0.00000  Uiso   1.00
O929   O     0.72555   0.65648   0.71066   0.00000  Uiso   1.00
O930   O     0.81505   0.63148   0.67345   0.00000  Uiso   1.00
O931   O     0.12815   0.90476   0.74686   0.00000  Uiso   1.00
O932   O     0.20518   0.76191   0.75314   0.00000  Uiso   1.00
O933   O     0.22829   0.91420   0.75503   0.00000  Uiso   1.00
O934   O     0.10504   0.75247   0.74498   0.00000  Uiso   1.00
C935   C     0.18103   0.93320   0.75203   0.00000  Uiso   1.00
C936   C     0.15234   0.73347   0.74791   0.00000  Uiso   1.00
O937   O     0.08851   0.82597   0.80855   0.00000  Uiso   1.00
O938   O     0.24482   0.84070   0.69146   0.00000  Uiso   1.00
O939   O     0.18866   0.83540   0.81671   0.00000  Uiso   1.00
O940   O     0.14468   0.83126   0.68329   0.00000  Uiso   1.00
C941   C     0.12794   0.82959   0.83324   0.00000  Uiso   1.00
C942   C     0.20545   0.83780   0.66685   0.00000  Uiso   1.00
Cu943  Cu    0.10737   0.82775   0.74517   0.00000  Uiso   1.00
Cu944  Cu    0.22596   0.83892   0.75484   0.00000  Uiso   1.00
C945   C     0.10435   0.82571   0.88117   0.00000  Uiso   1.00
C946   C     0.22907   0.84725   0.61960   0.00000  Uiso   1.00
C947   C     0.02178   0.79539   0.94594   0.00000  Uiso   1.00
C948   C     0.30577   0.89412   0.55863   0.00000  Uiso   1.00
C949   C     0.04079   0.80405   0.90096   0.00000  Uiso   1.00
C950   C     0.28922   0.87811   0.60203   0.00000  Uiso   1.00
C951   C     0.14785   0.84120   0.90706   0.00000  Uiso   1.00
C952   C     0.18664   0.83108   0.59309   0.00000  Uiso   1.00
C953   C     0.12975   0.83449   0.95278   0.00000  Uiso   1.00
C954   C     0.20046   0.84922   0.55004   0.00000  Uiso   1.00
C955   C     0.06582   0.80928   0.97205   0.00000  Uiso   1.00
C956   C     0.26193   0.88023   0.53238   0.00000  Uiso   1.00
C957   C     0.17390   0.85064   0.97936   0.00000  Uiso   1.00
C958   C     0.15491   0.83707   0.52429   0.00000  Uiso   1.00
C959   C     0.09056   0.81309   0.54255   0.00000  Uiso   1.00
C960   C     0.23582   0.88123   0.96276   0.00000  Uiso   1.00
C961   C     0.04664   0.79766   0.51682   0.00000  Uiso   1.00
C962   C     0.27857   0.89757   0.98913   0.00000  Uiso   1.00
H963   H     0.14273   0.80426   0.60722   0.00000  Uiso   1.00
H964   H     0.19645   0.85663   0.89025   0.00000  Uiso   1.00
H965   H     0.32260   0.89122   0.62217   0.00000  Uiso   1.00
H966   H     0.00635   0.79191   0.88150   0.00000  Uiso   1.00
H967   H     0.30590   0.77700   0.96004   0.00000  Uiso   1.00
H968   H     0.01936   0.91815   0.54595   0.00000  Uiso   1.00
H969   H     0.07205   0.80818   0.57735   0.00000  Uiso   1.00
H970   H     0.25243   0.89461   0.92954   0.00000  Uiso   1.00
C971   C     0.18430   0.98825   0.75909   0.00000  Uiso   1.00
C972   C     0.14913   0.67842   0.74079   0.00000  Uiso   1.00
N973   N     0.31506   0.84735   0.76212   0.00000  Uiso   1.00
N974   N     0.01827   0.81932   0.73788   0.00000  Uiso   1.00
H975   H     0.00140   0.87174   0.78430   0.00000  Uiso   1.00
H976   H     0.33193   0.79493   0.71569   0.00000  Uiso   1.00
O977   O     0.31653   0.77486   0.53529   0.00000  Uiso   1.00
C978   C     0.31105   0.73214   0.56200   0.00000  Uiso   1.00
H979   H     0.01395   0.70810   0.54796   0.00000  Uiso   1.00
H980   H     0.26356   0.70606   0.56464   0.00000  Uiso   1.00
H981   H     0.31350   0.74607   0.59572   0.00000  Uiso   1.00
O982   O     0.00580   0.92703   0.97175   0.00000  Uiso   1.00
C983   C     0.00173   0.97653   0.95891   0.00000  Uiso   1.00
H984   H     0.04843   0.67050   0.95647   0.00000  Uiso   1.00
H985   H     0.29870   0.99402   0.98317   0.00000  Uiso   1.00
H986   H     0.32527   0.97382   0.92594   0.00000  Uiso   1.00
N987   N     0.21665   0.68080   0.79144   0.00000  Uiso   1.00
O988   O     0.27474   0.67700   0.78901   0.00000  Uiso   1.00
O989   O     0.18521   0.70180   0.82644   0.00000  Uiso   1.00
N990   N     0.11689   0.98589   0.70837   0.00000  Uiso   1.00
O991   O     0.05888   0.98981   0.71066   0.00000  Uiso   1.00
O992   O     0.14838   0.96482   0.67345   0.00000  Uiso   1.00
O993   O     0.46148   0.90476   0.74686   0.00000  Uiso   1.00
O994   O     0.53852   0.76191   0.75314   0.00000  Uiso   1.00
O995   O     0.56163   0.91420   0.75503   0.00000  Uiso   1.00
O996   O     0.43837   0.75247   0.74498   0.00000  Uiso   1.00
C997   C     0.51436   0.93320   0.75203   0.00000  Uiso   1.00
C998   C     0.48567   0.73347   0.74791   0.00000  Uiso   1.00
O999   O     0.42185   0.82597   0.80855   0.00000  Uiso   1.00
O1000  O     0.57815   0.84070   0.69146   0.00000  Uiso   1.00
O1001  O     0.52199   0.83540   0.81671   0.00000  Uiso   1.00
O1002  O     0.47801   0.83126   0.68329   0.00000  Uiso   1.00
C1003  C     0.46127   0.82959   0.83324   0.00000  Uiso   1.00
C1004  C     0.53878   0.83780   0.66685   0.00000  Uiso   1.00
Cu1005 Cu    0.44071   0.82775   0.74517   0.00000  Uiso   1.00
Cu1006 Cu    0.55929   0.83892   0.75484   0.00000  Uiso   1.00
C1007  C     0.43769   0.82571   0.88117   0.00000  Uiso   1.00
C1008  C     0.56240   0.84725   0.61960   0.00000  Uiso   1.00
C1009  C     0.35512   0.79539   0.94594   0.00000  Uiso   1.00
C1010  C     0.63910   0.89412   0.55863   0.00000  Uiso   1.00
C1011  C     0.37412   0.80405   0.90096   0.00000  Uiso   1.00
C1012  C     0.62255   0.87811   0.60203   0.00000  Uiso   1.00
C1013  C     0.48119   0.84120   0.90706   0.00000  Uiso   1.00
C1014  C     0.51997   0.83108   0.59309   0.00000  Uiso   1.00
C1015  C     0.46308   0.83449   0.95278   0.00000  Uiso   1.00
C1016  C     0.53379   0.84922   0.55004   0.00000  Uiso   1.00
C1017  C     0.39916   0.80928   0.97205   0.00000  Uiso   1.00
C1018  C     0.59526   0.88023   0.53238   0.00000  Uiso   1.00
C1019  C     0.50724   0.85064   0.97936   0.00000  Uiso   1.00
C1020  C     0.48825   0.83707   0.52429   0.00000  Uiso   1.00
C1021  C     0.42389   0.81309   0.54255   0.00000  Uiso   1.00
C1022  C     0.56915   0.88123   0.96276   0.00000  Uiso   1.00
C1023  C     0.37997   0.79766   0.51682   0.00000  Uiso   1.00
C1024  C     0.61190   0.89757   0.98913   0.00000  Uiso   1.00
H1025  H     0.47606   0.80426   0.60722   0.00000  Uiso   1.00
H1026  H     0.52979   0.85663   0.89025   0.00000  Uiso   1.00
H1027  H     0.65593   0.89122   0.62217   0.00000  Uiso   1.00
H1028  H     0.33969   0.79191   0.88150   0.00000  Uiso   1.00
H1029  H     0.63923   0.77700   0.96004   0.00000  Uiso   1.00
H1030  H     0.35269   0.91815   0.54595   0.00000  Uiso   1.00
H1031  H     0.40538   0.80818   0.57735   0.00000  Uiso   1.00
H1032  H     0.58577   0.89461   0.92954   0.00000  Uiso   1.00
C1033  C     0.51763   0.98825   0.75909   0.00000  Uiso   1.00
C1034  C     0.48247   0.67842   0.74079   0.00000  Uiso   1.00
N1035  N     0.64839   0.84735   0.76212   0.00000  Uiso   1.00
N1036  N     0.35161   0.81932   0.73788   0.00000  Uiso   1.00
H1037  H     0.33474   0.87174   0.78430   0.00000  Uiso   1.00
H1038  H     0.66527   0.79493   0.71569   0.00000  Uiso   1.00
O1039  O     0.64986   0.77486   0.53529   0.00000  Uiso   1.00
C1040  C     0.64438   0.73214   0.56200   0.00000  Uiso   1.00
H1041  H     0.34728   0.70810   0.54796   0.00000  Uiso   1.00
H1042  H     0.59690   0.70606   0.56464   0.00000  Uiso   1.00
H1043  H     0.64684   0.74607   0.59572   0.00000  Uiso   1.00
O1044  O     0.33913   0.92703   0.97175   0.00000  Uiso   1.00
C1045  C     0.33507   0.97653   0.95891   0.00000  Uiso   1.00
H1046  H     0.38176   0.67050   0.95647   0.00000  Uiso   1.00
H1047  H     0.63203   0.99402   0.98317   0.00000  Uiso   1.00
H1048  H     0.65860   0.97382   0.92594   0.00000  Uiso   1.00
N1049  N     0.54999   0.68080   0.79144   0.00000  Uiso   1.00
O1050  O     0.60807   0.67700   0.78901   0.00000  Uiso   1.00
O1051  O     0.51854   0.70180   0.82644   0.00000  Uiso   1.00
N1052  N     0.45022   0.98589   0.70837   0.00000  Uiso   1.00
O1053  O     0.39222   0.98981   0.71066   0.00000  Uiso   1.00
O1054  O     0.48172   0.96482   0.67345   0.00000  Uiso   1.00
O1055  O     0.79482   0.90476   0.74686   0.00000  Uiso   1.00
O1056  O     0.87185   0.76191   0.75314   0.00000  Uiso   1.00
O1057  O     0.89496   0.91420   0.75503   0.00000  Uiso   1.00
O1058  O     0.77171   0.75247   0.74498   0.00000  Uiso   1.00
C1059  C     0.84769   0.93320   0.75203   0.00000  Uiso   1.00
C1060  C     0.81901   0.73347   0.74791   0.00000  Uiso   1.00
O1061  O     0.75518   0.82597   0.80855   0.00000  Uiso   1.00
O1062  O     0.91149   0.84070   0.69146   0.00000  Uiso   1.00
O1063  O     0.85532   0.83540   0.81671   0.00000  Uiso   1.00
O1064  O     0.81134   0.83126   0.68329   0.00000  Uiso   1.00
C1065  C     0.79461   0.82959   0.83324   0.00000  Uiso   1.00
C1066  C     0.87212   0.83780   0.66685   0.00000  Uiso   1.00
Cu1067 Cu    0.77404   0.82775   0.74517   0.00000  Uiso   1.00
Cu1068 Cu    0.89263   0.83892   0.75484   0.00000  Uiso   1.00
C1069  C     0.77102   0.82571   0.88117   0.00000  Uiso   1.00
C1070  C     0.89573   0.84725   0.61960   0.00000  Uiso   1.00
C1071  C     0.68845   0.79539   0.94594   0.00000  Uiso   1.00
C1072  C     0.97244   0.89412   0.55863   0.00000  Uiso   1.00
C1073  C     0.70745   0.80405   0.90096   0.00000  Uiso   1.00
C1074  C     0.95589   0.87811   0.60203   0.00000  Uiso   1.00
C1075  C     0.81452   0.84120   0.90706   0.00000  Uiso   1.00
C1076  C     0.85331   0.83108   0.59309   0.00000  Uiso   1.00
C1077  C     0.79641   0.83449   0.95278   0.00000  Uiso   1.00
C1078  C     0.86712   0.84922   0.55004   0.00000  Uiso   1.00
C1079  C     0.73249   0.80928   0.97205   0.00000  Uiso   1.00
C1080  C     0.92860   0.88023   0.53238   0.00000  Uiso   1.00
C1081  C     0.84057   0.85064   0.97936   0.00000  Uiso   1.00
C1082  C     0.82158   0.83707   0.52429   0.00000  Uiso   1.00
C1083  C     0.75723   0.81309   0.54255   0.00000  Uiso   1.00
C1084  C     0.90249   0.88123   0.96276   0.00000  Uiso   1.00
C1085  C     0.71331   0.79766   0.51682   0.00000  Uiso   1.00
C1086  C     0.94524   0.89757   0.98913   0.00000  Uiso   1.00
H1087  H     0.80940   0.80426   0.60722   0.00000  Uiso   1.00
H1088  H     0.86312   0.85663   0.89025   0.00000  Uiso   1.00
H1089  H     0.98927   0.89122   0.62217   0.00000  Uiso   1.00
H1090  H     0.67302   0.79191   0.88150   0.00000  Uiso   1.00
H1091  H     0.97256   0.77700   0.96004   0.00000  Uiso   1.00
H1092  H     0.68602   0.91815   0.54595   0.00000  Uiso   1.00
H1093  H     0.73871   0.80818   0.57735   0.00000  Uiso   1.00
H1094  H     0.91910   0.89461   0.92954   0.00000  Uiso   1.00
C1095  C     0.85097   0.98825   0.75909   0.00000  Uiso   1.00
C1096  C     0.81580   0.67842   0.74079   0.00000  Uiso   1.00
N1097  N     0.98173   0.84735   0.76212   0.00000  Uiso   1.00
N1098  N     0.68494   0.81932   0.73788   0.00000  Uiso   1.00
H1099  H     0.66807   0.87174   0.78430   0.00000  Uiso   1.00
H1100  H     0.99860   0.79493   0.71569   0.00000  Uiso   1.00
O1101  O     0.98319   0.77486   0.53529   0.00000  Uiso   1.00
C1102  C     0.97772   0.73214   0.56200   0.00000  Uiso   1.00
H1103  H     0.68062   0.70810   0.54796   0.00000  Uiso   1.00
H1104  H     0.93023   0.70606   0.56464   0.00000  Uiso   1.00
H1105  H     0.98017   0.74607   0.59572   0.00000  Uiso   1.00
O1106  O     0.67247   0.92703   0.97175   0.00000  Uiso   1.00
C1107  C     0.66840   0.97653   0.95891   0.00000  Uiso   1.00
H1108  H     0.71510   0.67050   0.95647   0.00000  Uiso   1.00
H1109  H     0.96536   0.99402   0.98317   0.00000  Uiso   1.00
H1110  H     0.99193   0.97382   0.92594   0.00000  Uiso   1.00
N1111  N     0.88332   0.68080   0.79144   0.00000  Uiso   1.00
O1112  O     0.94141   0.67700   0.78901   0.00000  Uiso   1.00
O1113  O     0.85188   0.70180   0.82644   0.00000  Uiso   1.00
N1114  N     0.78355   0.98589   0.70837   0.00000  Uiso   1.00
O1115  O     0.72555   0.98981   0.71066   0.00000  Uiso   1.00
O1116  O     0.81505   0.96482   0.67345   0.00000  Uiso   1.00
loop_
_geom_bond_atom_site_label_1
_geom_bond_atom_site_label_2
_geom_bond_distance
_geom_bond_site_symmetry_2
_ccdc_geom_bond_type
O1     C5      1.287   .     A
O1     Cu13    1.964   .     S
O2     C6      1.287   .     A
O2     Cu14    1.964   .     S
O3     Cu14    1.958   .     S
O3     C5      1.286   .     A
O4     C6      1.286   .     A
O4     Cu13    1.958   .     S
C5     C41     1.430   .     S
C6     C42     1.430   .     S
O7     Cu13    1.937   .     S
O7     C11     1.302   .     A
O8     C12     1.301   .     A
O8     Cu14    1.937   .     S
O9     Cu14    1.914   .     S
O9     C11     1.295   .     A
O10    C12     1.294   .     A
O10    Cu13    1.914   .     S
C11    C15     1.470   .     S
C12    C16     1.467   .     S
Cu13   Cu14    2.685   .     S
Cu13   N44     2.017   .     S
Cu14   N43     2.017   .     S
C15    C19     1.396   .     A
C15    C21     1.399   .     A
C16    C20     1.396   .     A
C16    C22     1.397   .     A
C17    C25     1.410   .     A
C17    C19     1.393   .     A
C17    H161    1.083   1_455 S
C18    C26     1.410   .     A
C18    C20     1.393   .     A
C18    H100    1.083   .     S
C19    H36     1.083   .     S
C20    H35     1.083   .     S
C21    C23     1.407   .     A
C21    H34     1.074   .     S
C22    C24     1.407   .     A
C22    H33     1.077   .     S
C23    C27     1.428   .     A
C23    C25     1.422   .     A
C24    C26     1.420   .     A
C24    C28     1.427   .     A
C25    C589    1.401   .     S
C26    C590    1.400   1_554 S
C27    C30     1.417   .     A
C27    C586    1.418   .     S
C28    C29     1.415   .     A
C28    C585    1.418   1_554 S
C29    H39     1.075   .     S
C29    C31     1.402   .     A
C30    C32     1.400   .     A
C30    H40     1.074   .     S
C31    C583    1.401   1_554 S
C31    O171    1.392   1_455 S
C32    C584    1.400   .     S
C32    O114    1.388   .     S
H37    C79     1.083   .     S
H38    C142    1.083   1_455 S
C41    C228    1.351   .     S
C41    N243    1.443   .     S
C42    C413    1.351   1_545 S
C42    N432    1.444   1_545 S
N43    N106    1.283   .     S
N43    H107    1.029   .     S
N44    N167    1.283   1_455 S
N44    H170    1.029   1_455 S
H45    N167    1.029   1_455 S
H46    N106    1.029   .     S
O47    C48     1.413   .     S
O47    C93     1.392   .     S
C48    H51     1.111   .     S
C48    H50     1.109   .     S
C48    H111    1.115   .     S
H49    C172    1.115   1_455 S
O52    C53     1.413   .     S
O52    C156    1.388   1_455 S
C53    H240    1.110   .     S
C53    H179    1.116   1_455 S
C53    H180    1.112   1_455 S
H54    C425    1.110   1_545 S
H55    C115    1.116   .     S
H56    C115    1.112   .     S
N57    O58     1.301   .     A
N57    O59     1.302   .     A
N57    C413    1.443   1_545 S
N60    O62     1.302   .     A
N60    O61     1.301   .     A
N60    C228    1.444   .     S
O63    C67     1.287   .     A
O63    Cu75    1.964   .     S
O64    C68     1.287   .     A
O64    Cu76    1.964   .     S
O65    Cu76    1.958   .     S
O65    C67     1.286   .     A
O66    C68     1.286   .     A
O66    Cu75    1.958   .     S
C67    C103    1.430   .     S
C68    C104    1.430   .     S
O69    Cu75    1.937   .     S
O69    C73     1.302   .     A
O70    C74     1.301   .     A
O70    Cu76    1.937   .     S
O71    Cu76    1.914   .     S
O71    C73     1.295   .     A
O72    C74     1.294   .     A
O72    Cu75    1.914   .     S
C73    C77     1.470   .     S
C74    C78     1.467   .     S
Cu75   Cu76    2.685   .     S
Cu75   N106    2.017   .     S
Cu76   N105    2.017   .     S
C77    C81     1.396   .     A
C77    C83     1.399   .     A
C78    C82     1.396   .     A
C78    C84     1.397   .     A
C79    C87     1.410   .     A
C79    C81     1.393   .     A
C80    C88     1.410   .     A
C80    C82     1.393   .     A
C80    H162    1.083   .     S
C81    H98     1.083   .     S
C82    H97     1.083   .     S
C83    C85     1.407   .     A
C83    H96     1.074   .     S
C84    C86     1.407   .     A
C84    H95     1.077   .     S
C85    C89     1.428   .     A
C85    C87     1.422   .     A
C86    C88     1.420   .     A
C86    C90     1.427   .     A
C87    C651    1.401   .     S
C88    C652    1.400   1_554 S
C89    C92     1.417   .     A
C89    C648    1.418   .     S
C90    C91     1.415   .     A
C90    C647    1.418   1_554 S
C91    H101    1.075   .     S
C91    C93     1.402   .     A
C92    C94     1.400   .     A
C92    H102    1.074   .     S
C93    C645    1.401   1_554 S
C94    C646    1.400   .     S
C94    O176    1.388   .     S
H99    C141    1.083   .     S
C103   C290    1.351   .     S
C103   N305    1.443   .     S
C104   C475    1.351   1_545 S
C104   N494    1.444   1_545 S
N105   N168    1.283   .     S
N105   H169    1.029   .     S
H108   N168    1.029   .     S
O109   C110    1.413   .     S
O109   C155    1.392   .     S
C110   H113    1.111   .     S
C110   H112    1.109   .     S
C110   H173    1.115   .     S
O114   C115    1.413   .     S
C115   H302    1.110   .     S
H116   C487    1.110   1_545 S
H117   C177    1.116   .     S
H118   C177    1.112   .     S
N119   O120    1.301   .     A
N119   O121    1.302   .     A
N119   C475    1.443   1_545 S
N122   O124    1.302   .     A
N122   O123    1.301   .     A
N122   C290    1.444   .     S
O125   C129    1.287   .     A
O125   Cu137   1.964   .     S
O126   C130    1.287   .     A
O126   Cu138   1.964   .     S
O127   Cu138   1.958   .     S
O127   C129    1.286   .     A
O128   C130    1.286   .     A
O128   Cu137   1.958   .     S
C129   C165    1.430   .     S
C130   C166    1.430   .     S
O131   Cu137   1.937   .     S
O131   C135    1.302   .     A
O132   C136    1.301   .     A
O132   Cu138   1.937   .     S
O133   Cu138   1.914   .     S
O133   C135    1.295   .     A
O134   C136    1.294   .     A
O134   Cu137   1.914   .     S
C135   C139    1.470   .     S
C136   C140    1.467   .     S
Cu137  Cu138   2.685   .     S
Cu137  N168    2.017   .     S
Cu138  N167    2.017   .     S
C139   C143    1.396   .     A
C139   C145    1.399   .     A
C140   C144    1.396   .     A
C140   C146    1.397   .     A
C141   C149    1.410   .     A
C141   C143    1.393   .     A
C142   C150    1.410   .     A
C142   C144    1.393   .     A
C142   H38     1.083   1_655 S
C143   H160    1.083   .     S
C144   H159    1.083   .     S
C145   C147    1.407   .     A
C145   H158    1.074   .     S
C146   C148    1.407   .     A
C146   H157    1.077   .     S
C147   C151    1.428   .     A
C147   C149    1.422   .     A
C148   C150    1.420   .     A
C148   C152    1.427   .     A
C149   C713    1.401   .     S
C150   C714    1.400   1_554 S
C151   C154    1.417   .     A
C151   C710    1.418   .     S
C152   C153    1.415   .     A
C152   C709    1.418   1_554 S
C153   H163    1.075   .     S
C153   C155    1.402   .     A
C154   C156    1.400   .     A
C154   H164    1.074   .     S
C155   C707    1.401   1_554 S
C156   C708    1.400   .     S
C156   O52     1.388   1_655 S
H161   C17     1.083   1_655 S
C165   C352    1.351   .     S
C165   N367    1.443   .     S
C166   C537    1.351   1_545 S
C166   N556    1.444   1_545 S
N167   N44     1.283   1_655 S
N167   H45     1.029   1_655 S
H170   N44     1.029   1_655 S
O171   C172    1.413   .     S
O171   C31     1.392   1_655 S
C172   H175    1.111   .     S
C172   H174    1.109   .     S
C172   H49     1.115   1_655 S
O176   C177    1.413   .     S
C177   H364    1.110   .     S
H178   C549    1.110   1_545 S
H179   C53     1.116   1_655 S
H180   C53     1.112   1_655 S
N181   O182    1.301   .     A
N181   O183    1.302   .     A
N181   C537    1.443   1_545 S
N184   O186    1.302   .     A
N184   O185    1.301   .     A
N184   C352    1.444   .     S
O187   C191    1.287   .     A
O187   Cu199   1.964   .     S
O188   C192    1.287   .     A
O188   Cu200   1.964   .     S
O189   Cu200   1.958   .     S
O189   C191    1.286   .     A
O190   C192    1.286   .     A
O190   Cu199   1.958   .     S
C191   C227    1.430   .     S
C192   C228    1.430   .     S
O193   Cu199   1.937   .     S
O193   C197    1.302   .     A
O194   C198    1.301   .     A
O194   Cu200   1.937   .     S
O195   Cu200   1.914   .     S
O195   C197    1.295   .     A
O196   C198    1.294   .     A
O196   Cu199   1.914   .     S
C197   C201    1.470   .     S
C198   C202    1.467   .     S
Cu199  Cu200   2.685   .     S
Cu199  N230    2.017   .     S
Cu200  N229    2.017   .     S
C201   C205    1.396   .     A
C201   C207    1.399   .     A
C202   C206    1.396   .     A
C202   C208    1.397   .     A
C203   C211    1.410   .     A
C203   C205    1.393   .     A
C203   H347    1.083   1_455 S
C204   C212    1.410   .     A
C204   C206    1.393   .     A
C204   H286    1.083   .     S
C205   H222    1.083   .     S
C206   H221    1.083   .     S
C207   C209    1.407   .     A
C207   H220    1.074   .     S
C208   C210    1.407   .     A
C208   H219    1.077   .     S
C209   C213    1.428   .     A
C209   C211    1.422   .     A
C210   C212    1.420   .     A
C210   C214    1.427   .     A
C211   C775    1.401   .     S
C212   C776    1.400   1_554 S
C213   C216    1.417   .     A
C213   C772    1.418   .     S
C214   C215    1.415   .     A
C214   C771    1.418   1_554 S
C215   H225    1.075   .     S
C215   C217    1.402   .     A
C216   C218    1.400   .     A
C216   H226    1.074   .     S
C217   C769    1.401   1_554 S
C217   O357    1.392   1_455 S
C218   C770    1.400   .     S
C218   O300    1.388   .     S
H223   C265    1.083   .     S
H224   C328    1.083   1_455 S
C227   C414    1.351   .     S
C227   N429    1.443   .     S
N229   N292    1.283   .     S
N229   H293    1.029   .     S
N230   N353    1.283   1_455 S
N230   H356    1.029   1_455 S
H231   N353    1.029   1_455 S
H232   N292    1.029   .     S
O233   C234    1.413   .     S
O233   C279    1.392   .     S
C234   H237    1.111   .     S
C234   H236    1.109   .     S
C234   H297    1.115   .     S
H235   C358    1.115   1_455 S
O238   C239    1.413   .     S
O238   C342    1.388   1_455 S
C239   H426    1.110   .     S
C239   H365    1.116   1_455 S
C239   H366    1.112   1_455 S
H241   C301    1.116   .     S
H242   C301    1.112   .     S
N243   O244    1.301   .     A
N243   O245    1.302   .     A
N246   O248    1.302   .     A
N246   O247    1.301   .     A
N246   C414    1.444   .     S
O249   C253    1.287   .     A
O249   Cu261   1.964   .     S
O250   C254    1.287   .     A
O250   Cu262   1.964   .     S
O251   Cu262   1.958   .     S
O251   C253    1.286   .     A
O252   C254    1.286   .     A
O252   Cu261   1.958   .     S
C253   C289    1.430   .     S
C254   C290    1.430   .     S
O255   Cu261   1.937   .     S
O255   C259    1.302   .     A
O256   C260    1.301   .     A
O256   Cu262   1.937   .     S
O257   Cu262   1.914   .     S
O257   C259    1.295   .     A
O258   C260    1.294   .     A
O258   Cu261   1.914   .     S
C259   C263    1.470   .     S
C260   C264    1.467   .     S
Cu261  Cu262   2.685   .     S
Cu261  N292    2.017   .     S
Cu262  N291    2.017   .     S
C263   C267    1.396   .     A
C263   C269    1.399   .     A
C264   C268    1.396   .     A
C264   C270    1.397   .     A
C265   C273    1.410   .     A
C265   C267    1.393   .     A
C266   C274    1.410   .     A
C266   C268    1.393   .     A
C266   H348    1.083   .     S
C267   H284    1.083   .     S
C268   H283    1.083   .     S
C269   C271    1.407   .     A
C269   H282    1.074   .     S
C270   C272    1.407   .     A
C270   H281    1.077   .     S
C271   C275    1.428   .     A
C271   C273    1.422   .     A
C272   C274    1.420   .     A
C272   C276    1.427   .     A
C273   C837    1.401   .     S
C274   C838    1.400   1_554 S
C275   C278    1.417   .     A
C275   C834    1.418   .     S
C276   C277    1.415   .     A
C276   C833    1.418   1_554 S
C277   H287    1.075   .     S
C277   C279    1.402   .     A
C278   C280    1.400   .     A
C278   H288    1.074   .     S
C279   C831    1.401   1_554 S
C280   C832    1.400   .     S
C280   O362    1.388   .     S
H285   C327    1.083   .     S
C289   C476    1.351   .     S
C289   N491    1.443   .     S
N291   N354    1.283   .     S
N291   H355    1.029   .     S
H294   N354    1.029   .     S
O295   C296    1.413   .     S
O295   C341    1.392   .     S
C296   H299    1.111   .     S
C296   H298    1.109   .     S
C296   H359    1.115   .     S
O300   C301    1.413   .     S
C301   H488    1.110   .     S
H303   C363    1.116   .     S
H304   C363    1.112   .     S
N305   O306    1.301   .     A
N305   O307    1.302   .     A
N308   O310    1.302   .     A
N308   O309    1.301   .     A
N308   C476    1.444   .     S
O311   C315    1.287   .     A
O311   Cu323   1.964   .     S
O312   C316    1.287   .     A
O312   Cu324   1.964   .     S
O313   Cu324   1.958   .     S
O313   C315    1.286   .     A
O314   C316    1.286   .     A
O314   Cu323   1.958   .     S
C315   C351    1.430   .     S
C316   C352    1.430   .     S
O317   Cu323   1.937   .     S
O317   C321    1.302   .     A
O318   C322    1.301   .     A
O318   Cu324   1.937   .     S
O319   Cu324   1.914   .     S
O319   C321    1.295   .     A
O320   C322    1.294   .     A
O320   Cu323   1.914   .     S
C321   C325    1.470   .     S
C322   C326    1.467   .     S
Cu323  Cu324   2.685   .     S
Cu323  N354    2.017   .     S
Cu324  N353    2.017   .     S
C325   C329    1.396   .     A
C325   C331    1.399   .     A
C326   C330    1.396   .     A
C326   C332    1.397   .     A
C327   C335    1.410   .     A
C327   C329    1.393   .     A
C328   C336    1.410   .     A
C328   C330    1.393   .     A
C328   H224    1.083   1_655 S
C329   H346    1.083   .     S
C330   H345    1.083   .     S
C331   C333    1.407   .     A
C331   H344    1.074   .     S
C332   C334    1.407   .     A
C332   H343    1.077   .     S
C333   C337    1.428   .     A
C333   C335    1.422   .     A
C334   C336    1.420   .     A
C334   C338    1.427   .     A
C335   C899    1.401   .     S
C336   C900    1.400   1_554 S
C337   C340    1.417   .     A
C337   C896    1.418   .     S
C338   C339    1.415   .     A
C338   C895    1.418   1_554 S
C339   H349    1.075   .     S
C339   C341    1.402   .     A
C340   C342    1.400   .     A
C340   H350    1.074   .     S
C341   C893    1.401   1_554 S
C342   C894    1.400   .     S
C342   O238    1.388   1_655 S
H347   C203    1.083   1_655 S
C351   C538    1.351   .     S
C351   N553    1.443   .     S
N353   N230    1.283   1_655 S
N353   H231    1.029   1_655 S
H356   N230    1.029   1_655 S
O357   C358    1.413   .     S
O357   C217    1.392   1_655 S
C358   H361    1.111   .     S
C358   H360    1.109   .     S
C358   H235    1.115   1_655 S
O362   C363    1.413   .     S
C363   H550    1.110   .     S
H365   C239    1.116   1_655 S
H366   C239    1.112   1_655 S
N367   O368    1.301   .     A
N367   O369    1.302   .     A
N370   O372    1.302   .     A
N370   O371    1.301   .     A
N370   C538    1.444   .     S
O373   C377    1.287   .     A
O373   Cu385   1.964   .     S
O374   C378    1.287   .     A
O374   Cu386   1.964   .     S
O375   Cu386   1.958   .     S
O375   C377    1.286   .     A
O376   C378    1.286   .     A
O376   Cu385   1.958   .     S
C377   C413    1.430   .     S
C378   C414    1.430   .     S
O379   Cu385   1.937   .     S
O379   C383    1.302   .     A
O380   C384    1.301   .     A
O380   Cu386   1.937   .     S
O381   Cu386   1.914   .     S
O381   C383    1.295   .     A
O382   C384    1.294   .     A
O382   Cu385   1.914   .     S
C383   C387    1.470   .     S
C384   C388    1.467   .     S
Cu385  Cu386   2.685   .     S
Cu385  N416    2.017   .     S
Cu386  N415    2.017   .     S
C387   C391    1.396   .     A
C387   C393    1.399   .     A
C388   C392    1.396   .     A
C388   C394    1.397   .     A
C389   C397    1.410   .     A
C389   C391    1.393   .     A
C389   H533    1.083   1_455 S
C390   C398    1.410   .     A
C390   C392    1.393   .     A
C390   H472    1.083   .     S
C391   H408    1.083   .     S
C392   H407    1.083   .     S
C393   C395    1.407   .     A
C393   H406    1.074   .     S
C394   C396    1.407   .     A
C394   H405    1.077   .     S
C395   C399    1.428   .     A
C395   C397    1.422   .     A
C396   C398    1.420   .     A
C396   C400    1.427   .     A
C397   C961    1.401   .     S
C398   C962    1.400   1_554 S
C399   C402    1.417   .     A
C399   C958    1.418   .     S
C400   C401    1.415   .     A
C400   C957    1.418   1_554 S
C401   H411    1.075   .     S
C401   C403    1.402   .     A
C402   C404    1.400   .     A
C402   H412    1.074   .     S
C403   C955    1.401   1_554 S
C403   O543    1.392   1_455 S
C404   C956    1.400   .     S
C404   O486    1.388   .     S
H409   C451    1.083   .     S
H410   C514    1.083   1_455 S
C413   C42     1.351   1_565 S
C413   N57     1.443   1_565 S
N415   N478    1.283   .     S
N415   H479    1.029   .     S
N416   N539    1.283   1_455 S
N416   H542    1.029   1_455 S
H417   N539    1.029   1_455 S
H418   N478    1.029   .     S
O419   C420    1.413   .     S
O419   C465    1.392   .     S
C420   H423    1.111   .     S
C420   H422    1.109   .     S
C420   H483    1.115   .     S
H421   C544    1.115   1_455 S
O424   C425    1.413   .     S
O424   C528    1.388   1_455 S
C425   H54     1.110   1_565 S
C425   H551    1.116   1_455 S
C425   H552    1.112   1_455 S
H427   C487    1.116   .     S
H428   C487    1.112   .     S
N429   O430    1.301   .     A
N429   O431    1.302   .     A
N432   O434    1.302   .     A
N432   O433    1.301   .     A
N432   C42     1.444   1_565 S
O435   C439    1.287   .     A
O435   Cu447   1.964   .     S
O436   C440    1.287   .     A
O436   Cu448   1.964   .     S
O437   Cu448   1.958   .     S
O437   C439    1.286   .     A
O438   C440    1.286   .     A
O438   Cu447   1.958   .     S
C439   C475    1.430   .     S
C440   C476    1.430   .     S
O441   Cu447   1.937   .     S
O441   C445    1.302   .     A
O442   C446    1.301   .     A
O442   Cu448   1.937   .     S
O443   Cu448   1.914   .     S
O443   C445    1.295   .     A
O444   C446    1.294   .     A
O444   Cu447   1.914   .     S
C445   C449    1.470   .     S
C446   C450    1.467   .     S
Cu447  Cu448   2.685   .     S
Cu447  N478    2.017   .     S
Cu448  N477    2.017   .     S
C449   C453    1.396   .     A
C449   C455    1.399   .     A
C450   C454    1.396   .     A
C450   C456    1.397   .     A
C451   C459    1.410   .     A
C451   C453    1.393   .     A
C452   C460    1.410   .     A
C452   C454    1.393   .     A
C452   H534    1.083   .     S
C453   H470    1.083   .     S
C454   H469    1.083   .     S
C455   C457    1.407   .     A
C455   H468    1.074   .     S
C456   C458    1.407   .     A
C456   H467    1.077   .     S
C457   C461    1.428   .     A
C457   C459    1.422   .     A
C458   C460    1.420   .     A
C458   C462    1.427   .     A
C459   C1023   1.401   .     S
C460   C1024   1.400   1_554 S
C461   C464    1.417   .     A
C461   C1020   1.418   .     S
C462   C463    1.415   .     A
C462   C1019   1.418   1_554 S
C463   H473    1.075   .     S
C463   C465    1.402   .     A
C464   C466    1.400   .     A
C464   H474    1.074   .     S
C465   C1017   1.401   1_554 S
C466   C1018   1.400   .     S
C466   O548    1.388   .     S
H471   C513    1.083   .     S
C475   C104    1.351   1_565 S
C475   N119    1.443   1_565 S
N477   N540    1.283   .     S
N477   H541    1.029   .     S
H480   N540    1.029   .     S
O481   C482    1.413   .     S
O481   C527    1.392   .     S
C482   H485    1.111   .     S
C482   H484    1.109   .     S
C482   H545    1.115   .     S
O486   C487    1.413   .     S
C487   H116    1.110   1_565 S
H489   C549    1.116   .     S
H490   C549    1.112   .     S
N491   O492    1.301   .     A
N491   O493    1.302   .     A
N494   O496    1.302   .     A
N494   O495    1.301   .     A
N494   C104    1.444   1_565 S
O497   C501    1.287   .     A
O497   Cu509   1.964   .     S
O498   C502    1.287   .     A
O498   Cu510   1.964   .     S
O499   Cu510   1.958   .     S
O499   C501    1.286   .     A
O500   C502    1.286   .     A
O500   Cu509   1.958   .     S
C501   C537    1.430   .     S
C502   C538    1.430   .     S
O503   Cu509   1.937   .     S
O503   C507    1.302   .     A
O504   C508    1.301   .     A
O504   Cu510   1.937   .     S
O505   Cu510   1.914   .     S
O505   C507    1.295   .     A
O506   C508    1.294   .     A
O506   Cu509   1.914   .     S
C507   C511    1.470   .     S
C508   C512    1.467   .     S
Cu509  Cu510   2.685   .     S
Cu509  N540    2.017   .     S
Cu510  N539    2.017   .     S
C511   C515    1.396   .     A
C511   C517    1.399   .     A
C512   C516    1.396   .     A
C512   C518    1.397   .     A
C513   C521    1.410   .     A
C513   C515    1.393   .     A
C514   C522    1.410   .     A
C514   C516    1.393   .     A
C514   H410    1.083   1_655 S
C515   H532    1.083   .     S
C516   H531    1.083   .     S
C517   C519    1.407   .     A
C517   H530    1.074   .     S
C518   C520    1.407   .     A
C518   H529    1.077   .     S
C519   C523    1.428   .     A
C519   C521    1.422   .     A
C520   C522    1.420   .     A
C520   C524    1.427   .     A
C521   C1085   1.401   .     S
C522   C1086   1.400   1_554 S
C523   C526    1.417   .     A
C523   C1082   1.418   .     S
C524   C525    1.415   .     A
C524   C1081   1.418   1_554 S
C525   H535    1.075   .     S
C525   C527    1.402   .     A
C526   C528    1.400   .     A
C526   H536    1.074   .     S
C527   C1079   1.401   1_554 S
C528   C1080   1.400   .     S
C528   O424    1.388   1_655 S
H533   C389    1.083   1_655 S
C537   C166    1.351   1_565 S
C537   N181    1.443   1_565 S
N539   N416    1.283   1_655 S
N539   H417    1.029   1_655 S
H542   N416    1.029   1_655 S
O543   C544    1.413   .     S
O543   C403    1.392   1_655 S
C544   H547    1.111   .     S
C544   H546    1.109   .     S
C544   H421    1.115   1_655 S
O548   C549    1.413   .     S
C549   H178    1.110   1_565 S
H551   C425    1.116   1_655 S
H552   C425    1.112   1_655 S
N553   O554    1.301   .     A
N553   O555    1.302   .     A
N556   O558    1.302   .     A
N556   O557    1.301   .     A
N556   C166    1.444   1_565 S
O559   C563    1.287   .     A
O559   Cu571   1.964   .     S
O560   C564    1.287   .     A
O560   Cu572   1.964   .     S
O561   Cu572   1.958   .     S
O561   C563    1.286   .     A
O562   C564    1.286   .     A
O562   Cu571   1.958   .     S
C563   C599    1.430   .     S
C564   C600    1.430   .     S
O565   Cu571   1.937   .     S
O565   C569    1.302   .     A
O566   C570    1.301   .     A
O566   Cu572   1.937   .     S
O567   Cu572   1.914   .     S
O567   C569    1.295   .     A
O568   C570    1.294   .     A
O568   Cu571   1.914   .     S
C569   C573    1.470   .     S
C570   C574    1.467   .     S
Cu571  Cu572   2.685   .     S
Cu571  N602    2.017   .     S
Cu572  N601    2.017   .     S
C573   C577    1.396   .     A
C573   C579    1.399   .     A
C574   C578    1.396   .     A
C574   C580    1.397   .     A
C575   C583    1.410   .     A
C575   C577    1.393   .     A
C575   H719    1.083   1_455 S
C576   C584    1.410   .     A
C576   C578    1.393   .     A
C576   H658    1.083   .     S
C577   H594    1.083   .     S
C578   H593    1.083   .     S
C579   C581    1.407   .     A
C579   H592    1.074   .     S
C580   C582    1.407   .     A
C580   H591    1.077   .     S
C581   C585    1.428   .     A
C581   C583    1.422   .     A
C582   C584    1.420   .     A
C582   C586    1.427   .     A
C583   C31     1.401   1_556 S
C585   C588    1.417   .     A
C585   C28     1.418   1_556 S
C586   C587    1.415   .     A
C587   H597    1.075   .     S
C587   C589    1.402   .     A
C588   C590    1.400   .     A
C588   H598    1.074   .     S
C589   O729    1.392   1_455 S
C590   C26     1.400   1_556 S
C590   O672    1.388   .     S
H595   C637    1.083   .     S
H596   C700    1.083   1_455 S
C599   C786    1.351   .     S
C599   N801    1.443   .     S
C600   C971    1.351   1_545 S
C600   N990    1.444   1_545 S
N601   N664    1.283   .     S
N601   H665    1.029   .     S
N602   N725    1.283   1_455 S
N602   H728    1.029   1_455 S
H603   N725    1.029   1_455 S
H604   N664    1.029   .     S
O605   C606    1.413   .     S
O605   C651    1.392   .     S
C606   H609    1.111   .     S
C606   H608    1.109   .     S
C606   H669    1.115   .     S
H607   C730    1.115   1_455 S
O610   C611    1.413   .     S
O610   C714    1.388   1_455 S
C611   H798    1.110   .     S
C611   H737    1.116   1_455 S
C611   H738    1.112   1_455 S
H612   C983    1.110   1_545 S
H613   C673    1.116   .     S
H614   C673    1.112   .     S
N615   O616    1.301   .     A
N615   O617    1.302   .     A
N615   C971    1.443   1_545 S
N618   O620    1.302   .     A
N618   O619    1.301   .     A
N618   C786    1.444   .     S
O621   C625    1.287   .     A
O621   Cu633   1.964   .     S
O622   C626    1.287   .     A
O622   Cu634   1.964   .     S
O623   Cu634   1.958   .     S
O623   C625    1.286   .     A
O624   C626    1.286   .     A
O624   Cu633   1.958   .     S
C625   C661    1.430   .     S
C626   C662    1.430   .     S
O627   Cu633   1.937   .     S
O627   C631    1.302   .     A
O628   C632    1.301   .     A
O628   Cu634   1.937   .     S
O629   Cu634   1.914   .     S
O629   C631    1.295   .     A
O630   C632    1.294   .     A
O630   Cu633   1.914   .     S
C631   C635    1.470   .     S
C632   C636    1.467   .     S
Cu633  Cu634   2.685   .     S
Cu633  N664    2.017   .     S
Cu634  N663    2.017   .     S
C635   C639    1.396   .     A
C635   C641    1.399   .     A
C636   C640    1.396   .     A
C636   C642    1.397   .     A
C637   C645    1.410   .     A
C637   C639    1.393   .     A
C638   C646    1.410   .     A
C638   C640    1.393   .     A
C638   H720    1.083   .     S
C639   H656    1.083   .     S
C640   H655    1.083   .     S
C641   C643    1.407   .     A
C641   H654    1.074   .     S
C642   C644    1.407   .     A
C642   H653    1.077   .     S
C643   C647    1.428   .     A
C643   C645    1.422   .     A
C644   C646    1.420   .     A
C644   C648    1.427   .     A
C645   C93     1.401   1_556 S
C647   C650    1.417   .     A
C647   C90     1.418   1_556 S
C648   C649    1.415   .     A
C649   H659    1.075   .     S
C649   C651    1.402   .     A
C650   C652    1.400   .     A
C650   H660    1.074   .     S
C652   C88     1.400   1_556 S
C652   O734    1.388   .     S
H657   C699    1.083   .     S
C661   C848    1.351   .     S
C661   N863    1.443   .     S
C662   C1033   1.351   1_545 S
C662   N1052   1.444   1_545 S
N663   N726    1.283   .     S
N663   H727    1.029   .     S
H666   N726    1.029   .     S
O667   C668    1.413   .     S
O667   C713    1.392   .     S
C668   H671    1.111   .     S
C668   H670    1.109   .     S
C668   H731    1.115   .     S
O672   C673    1.413   .     S
C673   H860    1.110   .     S
H674   C1045   1.110   1_545 S
H675   C735    1.116   .     S
H676   C735    1.112   .     S
N677   O678    1.301   .     A
N677   O679    1.302   .     A
N677   C1033   1.443   1_545 S
N680   O682    1.302   .     A
N680   O681    1.301   .     A
N680   C848    1.444   .     S
O683   C687    1.287   .     A
O683   Cu695   1.964   .     S
O684   C688    1.287   .     A
O684   Cu696   1.964   .     S
O685   Cu696   1.958   .     S
O685   C687    1.286   .     A
O686   C688    1.286   .     A
O686   Cu695   1.958   .     S
C687   C723    1.430   .     S
C688   C724    1.430   .     S
O689   Cu695   1.937   .     S
O689   C693    1.302   .     A
O690   C694    1.301   .     A
O690   Cu696   1.937   .     S
O691   Cu696   1.914   .     S
O691   C693    1.295   .     A
O692   C694    1.294   .     A
O692   Cu695   1.914   .     S
C693   C697    1.470   .     S
C694   C698    1.467   .     S
Cu695  Cu696   2.685   .     S
Cu695  N726    2.017   .     S
Cu696  N725    2.017   .     S
C697   C701    1.396   .     A
C697   C703    1.399   .     A
C698   C702    1.396   .     A
C698   C704    1.397   .     A
C699   C707    1.410   .     A
C699   C701    1.393   .     A
C700   C708    1.410   .     A
C700   C702    1.393   .     A
C700   H596    1.083   1_655 S
C701   H718    1.083   .     S
C702   H717    1.083   .     S
C703   C705    1.407   .     A
C703   H716    1.074   .     S
C704   C706    1.407   .     A
C704   H715    1.077   .     S
C705   C709    1.428   .     A
C705   C707    1.422   .     A
C706   C708    1.420   .     A
C706   C710    1.427   .     A
C707   C155    1.401   1_556 S
C709   C712    1.417   .     A
C709   C152    1.418   1_556 S
C710   C711    1.415   .     A
C711   H721    1.075   .     S
C711   C713    1.402   .     A
C712   C714    1.400   .     A
C712   H722    1.074   .     S
C714   C150    1.400   1_556 S
C714   O610    1.388   1_655 S
H719   C575    1.083   1_655 S
C723   C910    1.351   .     S
C723   N925    1.443   .     S
C724   C1095   1.351   1_545 S
C724   N1114   1.444   1_545 S
N725   N602    1.283   1_655 S
N725   H603    1.029   1_655 S
H728   N602    1.029   1_655 S
O729   C730    1.413   .     S
O729   C589    1.392   1_655 S
C730   H733    1.111   .     S
C730   H732    1.109   .     S
C730   H607    1.115   1_655 S
O734   C735    1.413   .     S
C735   H922    1.110   .     S
H736   C1107   1.110   1_545 S
H737   C611    1.116   1_655 S
H738   C611    1.112   1_655 S
N739   O740    1.301   .     A
N739   O741    1.302   .     A
N739   C1095   1.443   1_545 S
N742   O744    1.302   .     A
N742   O743    1.301   .     A
N742   C910    1.444   .     S
O745   C749    1.287   .     A
O745   Cu757   1.964   .     S
O746   C750    1.287   .     A
O746   Cu758   1.964   .     S
O747   Cu758   1.958   .     S
O747   C749    1.286   .     A
O748   C750    1.286   .     A
O748   Cu757   1.958   .     S
C749   C785    1.430   .     S
C750   C786    1.430   .     S
O751   Cu757   1.937   .     S
O751   C755    1.302   .     A
O752   C756    1.301   .     A
O752   Cu758   1.937   .     S
O753   Cu758   1.914   .     S
O753   C755    1.295   .     A
O754   C756    1.294   .     A
O754   Cu757   1.914   .     S
C755   C759    1.470   .     S
C756   C760    1.467   .     S
Cu757  Cu758   2.685   .     S
Cu757  N788    2.017   .     S
Cu758  N787    2.017   .     S
C759   C763    1.396   .     A
C759   C765    1.399   .     A
C760   C764    1.396   .     A
C760   C766    1.397   .     A
C761   C769    1.410   .     A
C761   C763    1.393   .     A
C761   H905    1.083   1_455 S
C762   C770    1.410   .     A
C762   C764    1.393   .     A
C762   H844    1.083   .     S
C763   H780    1.083   .     S
C764   H779    1.083   .     S
C765   C767    1.407   .     A
C765   H778    1.074   .     S
C766   C768    1.407   .     A
C766   H777    1.077   .     S
C767   C771    1.428   .     A
C767   C769    1.422   .     A
C768   C770    1.420   .     A
C768   C772    1.427   .     A
C769   C217    1.401   1_556 S
C771   C774    1.417   .     A
C771   C214    1.418   1_556 S
C772   C773    1.415   .     A
C773   H783    1.075   .     S
C773   C775    1.402   .     A
C774   C776    1.400   .     A
C774   H784    1.074   .     S
C775   O915    1.392   1_455 S
C776   C212    1.400   1_556 S
C776   O858    1.388   .     S
H781   C823    1.083   .     S
H782   C886    1.083   1_455 S
C785   C972    1.351   .     S
C785   N987    1.443   .     S
N787   N850    1.283   .     S
N787   H851    1.029   .     S
N788   N911    1.283   1_455 S
N788   H914    1.029   1_455 S
H789   N911    1.029   1_455 S
H790   N850    1.029   .     S
O791   C792    1.413   .     S
O791   C837    1.392   .     S
C792   H795    1.111   .     S
C792   H794    1.109   .     S
C792   H855    1.115   .     S
H793   C916    1.115   1_455 S
O796   C797    1.413   .     S
O796   C900    1.388   1_455 S
C797   H984    1.110   .     S
C797   H923    1.116   1_455 S
C797   H924    1.112   1_455 S
H799   C859    1.116   .     S
H800   C859    1.112   .     S
N801   O802    1.301   .     A
N801   O803    1.302   .     A
N804   O806    1.302   .     A
N804   O805    1.301   .     A
N804   C972    1.444   .     S
O807   C811    1.287   .     A
O807   Cu819   1.964   .     S
O808   C812    1.287   .     A
O808   Cu820   1.964   .     S
O809   Cu820   1.958   .     S
O809   C811    1.286   .     A
O810   C812    1.286   .     A
O810   Cu819   1.958   .     S
C811   C847    1.430   .     S
C812   C848    1.430   .     S
O813   Cu819   1.937   .     S
O813   C817    1.302   .     A
O814   C818    1.301   .     A
O814   Cu820   1.937   .     S
O815   Cu820   1.914   .     S
O815   C817    1.295   .     A
O816   C818    1.294   .     A
O816   Cu819   1.914   .     S
C817   C821    1.470   .     S
C818   C822    1.467   .     S
Cu819  Cu820   2.685   .     S
Cu819  N850    2.017   .     S
Cu820  N849    2.017   .     S
C821   C825    1.396   .     A
C821   C827    1.399   .     A
C822   C826    1.396   .     A
C822   C828    1.397   .     A
C823   C831    1.410   .     A
C823   C825    1.393   .     A
C824   C832    1.410   .     A
C824   C826    1.393   .     A
C824   H906    1.083   .     S
C825   H842    1.083   .     S
C826   H841    1.083   .     S
C827   C829    1.407   .     A
C827   H840    1.074   .     S
C828   C830    1.407   .     A
C828   H839    1.077   .     S
C829   C833    1.428   .     A
C829   C831    1.422   .     A
C830   C832    1.420   .     A
C830   C834    1.427   .     A
C831   C279    1.401   1_556 S
C833   C836    1.417   .     A
C833   C276    1.418   1_556 S
C834   C835    1.415   .     A
C835   H845    1.075   .     S
C835   C837    1.402   .     A
C836   C838    1.400   .     A
C836   H846    1.074   .     S
C838   C274    1.400   1_556 S
C838   O920    1.388   .     S
H843   C885    1.083   .     S
C847   C1034   1.351   .     S
C847   N1049   1.443   .     S
N849   N912    1.283   .     S
N849   H913    1.029   .     S
H852   N912    1.029   .     S
O853   C854    1.413   .     S
O853   C899    1.392   .     S
C854   H857    1.111   .     S
C854   H856    1.109   .     S
C854   H917    1.115   .     S
O858   C859    1.413   .     S
C859   H1046   1.110   .     S
H861   C921    1.116   .     S
H862   C921    1.112   .     S
N863   O864    1.301   .     A
N863   O865    1.302   .     A
N866   O868    1.302   .     A
N866   O867    1.301   .     A
N866   C1034   1.444   .     S
O869   C873    1.287   .     A
O869   Cu881   1.964   .     S
O870   C874    1.287   .     A
O870   Cu882   1.964   .     S
O871   Cu882   1.958   .     S
O871   C873    1.286   .     A
O872   C874    1.286   .     A
O872   Cu881   1.958   .     S
C873   C909    1.430   .     S
C874   C910    1.430   .     S
O875   Cu881   1.937   .     S
O875   C879    1.302   .     A
O876   C880    1.301   .     A
O876   Cu882   1.937   .     S
O877   Cu882   1.914   .     S
O877   C879    1.295   .     A
O878   C880    1.294   .     A
O878   Cu881   1.914   .     S
C879   C883    1.470   .     S
C880   C884    1.467   .     S
Cu881  Cu882   2.685   .     S
Cu881  N912    2.017   .     S
Cu882  N911    2.017   .     S
C883   C887    1.396   .     A
C883   C889    1.399   .     A
C884   C888    1.396   .     A
C884   C890    1.397   .     A
C885   C893    1.410   .     A
C885   C887    1.393   .     A
C886   C894    1.410   .     A
C886   C888    1.393   .     A
C886   H782    1.083   1_655 S
C887   H904    1.083   .     S
C888   H903    1.083   .     S
C889   C891    1.407   .     A
C889   H902    1.074   .     S
C890   C892    1.407   .     A
C890   H901    1.077   .     S
C891   C895    1.428   .     A
C891   C893    1.422   .     A
C892   C894    1.420   .     A
C892   C896    1.427   .     A
C893   C341    1.401   1_556 S
C895   C898    1.417   .     A
C895   C338    1.418   1_556 S
C896   C897    1.415   .     A
C897   H907    1.075   .     S
C897   C899    1.402   .     A
C898   C900    1.400   .     A
C898   H908    1.074   .     S
C900   C336    1.400   1_556 S
C900   O796    1.388   1_655 S
H905   C761    1.083   1_655 S
C909   C1096   1.351   .     S
C909   N1111   1.443   .     S
N911   N788    1.283   1_655 S
N911   H789    1.029   1_655 S
H914   N788    1.029   1_655 S
O915   C916    1.413   .     S
O915   C775    1.392   1_655 S
C916   H919    1.111   .     S
C916   H918    1.109   .     S
C916   H793    1.115   1_655 S
O920   C921    1.413   .     S
C921   H1108   1.110   .     S
H923   C797    1.116   1_655 S
H924   C797    1.112   1_655 S
N925   O926    1.301   .     A
N925   O927    1.302   .     A
N928   O930    1.302   .     A
N928   O929    1.301   .     A
N928   C1096   1.444   .     S
O931   C935    1.287   .     A
O931   Cu943   1.964   .     S
O932   C936    1.287   .     A
O932   Cu944   1.964   .     S
O933   Cu944   1.958   .     S
O933   C935    1.286   .     A
O934   C936    1.286   .     A
O934   Cu943   1.958   .     S
C935   C971    1.430   .     S
C936   C972    1.430   .     S
O937   Cu943   1.937   .     S
O937   C941    1.302   .     A
O938   C942    1.301   .     A
O938   Cu944   1.937   .     S
O939   Cu944   1.914   .     S
O939   C941    1.295   .     A
O940   C942    1.294   .     A
O940   Cu943   1.914   .     S
C941   C945    1.470   .     S
C942   C946    1.467   .     S
Cu943  Cu944   2.685   .     S
Cu943  N974    2.017   .     S
Cu944  N973    2.017   .     S
C945   C949    1.396   .     A
C945   C951    1.399   .     A
C946   C950    1.396   .     A
C946   C952    1.397   .     A
C947   C955    1.410   .     A
C947   C949    1.393   .     A
C947   H1091   1.083   1_455 S
C948   C956    1.410   .     A
C948   C950    1.393   .     A
C948   H1030   1.083   .     S
C949   H966    1.083   .     S
C950   H965    1.083   .     S
C951   C953    1.407   .     A
C951   H964    1.074   .     S
C952   C954    1.407   .     A
C952   H963    1.077   .     S
C953   C957    1.428   .     A
C953   C955    1.422   .     A
C954   C956    1.420   .     A
C954   C958    1.427   .     A
C955   C403    1.401   1_556 S
C957   C960    1.417   .     A
C957   C400    1.418   1_556 S
C958   C959    1.415   .     A
C959   H969    1.075   .     S
C959   C961    1.402   .     A
C960   C962    1.400   .     A
C960   H970    1.074   .     S
C961   O1101   1.392   1_455 S
C962   C398    1.400   1_556 S
C962   O1044   1.388   .     S
H967   C1009   1.083   .     S
H968   C1072   1.083   1_455 S
C971   C600    1.351   1_565 S
C971   N615    1.443   1_565 S
N973   N1036   1.283   .     S
N973   H1037   1.029   .     S
N974   N1097   1.283   1_455 S
N974   H1100   1.029   1_455 S
H975   N1097   1.029   1_455 S
H976   N1036   1.029   .     S
O977   C978    1.413   .     S
O977   C1023   1.392   .     S
C978   H981    1.111   .     S
C978   H980    1.109   .     S
C978   H1041   1.115   .     S
H979   C1102   1.115   1_455 S
O982   C983    1.413   .     S
O982   C1086   1.388   1_455 S
C983   H612    1.110   1_565 S
C983   H1109   1.116   1_455 S
C983   H1110   1.112   1_455 S
H985   C1045   1.116   .     S
H986   C1045   1.112   .     S
N987   O988    1.301   .     A
N987   O989    1.302   .     A
N990   O992    1.302   .     A
N990   O991    1.301   .     A
N990   C600    1.444   1_565 S
O993   C997    1.287   .     A
O993   Cu1005  1.964   .     S
O994   C998    1.287   .     A
O994   Cu1006  1.964   .     S
O995   Cu1006  1.958   .     S
O995   C997    1.286   .     A
O996   C998    1.286   .     A
O996   Cu1005  1.958   .     S
C997   C1033   1.430   .     S
C998   C1034   1.430   .     S
O999   Cu1005  1.937   .     S
O999   C1003   1.302   .     A
O1000  C1004   1.301   .     A
O1000  Cu1006  1.937   .     S
O1001  Cu1006  1.914   .     S
O1001  C1003   1.295   .     A
O1002  C1004   1.294   .     A
O1002  Cu1005  1.914   .     S
C1003  C1007   1.470   .     S
C1004  C1008   1.467   .     S
Cu1005 Cu1006  2.685   .     S
Cu1005 N1036   2.017   .     S
Cu1006 N1035   2.017   .     S
C1007  C1011   1.396   .     A
C1007  C1013   1.399   .     A
C1008  C1012   1.396   .     A
C1008  C1014   1.397   .     A
C1009  C1017   1.410   .     A
C1009  C1011   1.393   .     A
C1010  C1018   1.410   .     A
C1010  C1012   1.393   .     A
C1010  H1092   1.083   .     S
C1011  H1028   1.083   .     S
C1012  H1027   1.083   .     S
C1013  C1015   1.407   .     A
C1013  H1026   1.074   .     S
C1014  C1016   1.407   .     A
C1014  H1025   1.077   .     S
C1015  C1019   1.428   .     A
C1015  C1017   1.422   .     A
C1016  C1018   1.420   .     A
C1016  C1020   1.427   .     A
C1017  C465    1.401   1_556 S
C1019  C1022   1.417   .     A
C1019  C462    1.418   1_556 S
C1020  C1021   1.415   .     A
C1021  H1031   1.075   .     S
C1021  C1023   1.402   .     A
C1022  C1024   1.400   .     A
C1022  H1032   1.074   .     S
C1024  C460    1.400   1_556 S
C1024  O1106   1.388   .     S
H1029  C1071   1.083   .     S
C1033  C662    1.351   1_565 S
C1033  N677    1.443   1_565 S
N1035  N1098   1.283   .     S
N1035  H1099   1.029   .     S
H1038  N1098   1.029   .     S
O1039  C1040   1.413   .     S
O1039  C1085   1.392   .     S
C1040  H1043   1.111   .     S
C1040  H1042   1.109   .     S
C1040  H1103   1.115   .     S
O1044  C1045   1.413   .     S
C1045  H674    1.110   1_565 S
H1047  C1107   1.116   .     S
H1048  C1107   1.112   .     S
N1049  O1050   1.301   .     A
N1049  O1051   1.302   .     A
N1052  O1054   1.302   .     A
N1052  O1053   1.301   .     A
N1052  C662    1.444   1_565 S
O1055  C1059   1.287   .     A
O1055  Cu1067  1.964   .     S
O1056  C1060   1.287   .     A
O1056  Cu1068  1.964   .     S
O1057  Cu1068  1.958   .     S
O1057  C1059   1.286   .     A
O1058  C1060   1.286   .     A
O1058  Cu1067  1.958   .     S
C1059  C1095   1.430   .     S
C1060  C1096   1.430   .     S
O1061  Cu1067  1.937   .     S
O1061  C1065   1.302   .     A
O1062  C1066   1.301   .     A
O1062  Cu1068  1.937   .     S
O1063  Cu1068  1.914   .     S
O1063  C1065   1.295   .     A
O1064  C1066   1.294   .     A
O1064  Cu1067  1.914   .     S
C1065  C1069   1.470   .     S
C1066  C1070   1.467   .     S
Cu1067 Cu1068  2.685   .     S
Cu1067 N1098   2.017   .     S
Cu1068 N1097   2.017   .     S
C1069  C1073   1.396   .     A
C1069  C1075   1.399   .     A
C1070  C1074   1.396   .     A
C1070  C1076   1.397   .     A
C1071  C1079   1.410   .     A
C1071  C1073   1.393   .     A
C1072  C1080   1.410   .     A
C1072  C1074   1.393   .     A
C1072  H968    1.083   1_655 S
C1073  H1090   1.083   .     S
C1074  H1089   1.083   .     S
C1075  C1077   1.407   .     A
C1075  H1088   1.074   .     S
C1076  C1078   1.407   .     A
C1076  H1087   1.077   .     S
C1077  C1081   1.428   .     A
C1077  C1079   1.422   .     A
C1078  C1080   1.420   .     A
C1078  C1082   1.427   .     A
C1079  C527    1.401   1_556 S
C1081  C1084   1.417   .     A
C1081  C524    1.418   1_556 S
C1082  C1083   1.415   .     A
C1083  H1093   1.075   .     S
C1083  C1085   1.402   .     A
C1084  C1086   1.400   .     A
C1084  H1094   1.074   .     S
C1086  C522    1.400   1_556 S
C1086  O982    1.388   1_655 S
H1091  C947    1.083   1_655 S
C1095  C724    1.351   1_565 S
C1095  N739    1.443   1_565 S
N1097  N974    1.283   1_655 S
N1097  H975    1.029   1_655 S
H1100  N974    1.029   1_655 S
O1101  C1102   1.413   .     S
O1101  C961    1.392   1_655 S
C1102  H1105   1.111   .     S
C1102  H1104   1.109   .     S
C1102  H979    1.115   1_655 S
O1106  C1107   1.413   .     S
C1107  H736    1.110   1_565 S
H1109  C983    1.116   1_655 S
H1110  C983    1.112   1_655 S
N1111  O1112   1.301   .     A
N1111  O1113   1.302   .     A
N1114  O1116   1.302   .     A
N1114  O1115   1.301   .     A
N1114  C724    1.444   1_565 S
