data_str_m2_o1_o16_pcu_sym.14
_audit_creation_date              2020-01-03
_audit_creation_method            'Materials Studio'
_symmetry_space_group_name_H-M    'P1'
_symmetry_Int_Tables_number       1
_symmetry_cell_setting            triclinic
loop_
_symmetry_equiv_pos_as_xyz
  x,y,z
_cell_length_a                    28.9668
_cell_length_b                    32.3902
_cell_length_c                    27.0776
_cell_angle_alpha                 91.2555
_cell_angle_beta                  73.0624
_cell_angle_gamma                 89.8259
loop_
_atom_site_label
_atom_site_type_symbol
_atom_site_fract_x
_atom_site_fract_y
_atom_site_fract_z
_atom_site_U_iso_or_equiv
_atom_site_adp_type
_atom_site_occupancy
O1     O     0.12708   0.22678   0.25000   0.00000  Uiso   1.00
O2     O     0.20627   0.22679   0.25000   0.00000  Uiso   1.00
C3     C     0.16700   0.24577   0.24855   0.00000  Uiso   1.00
O4     O     0.10775   0.16665   0.32549   0.00000  Uiso   1.00
O5     O     0.18694   0.16666   0.32549   0.00000  Uiso   1.00
C6     C     0.14080   0.17078   0.34978   0.00000  Uiso   1.00
Cu7    Cu    0.11978   0.16666   0.25000   0.00000  Uiso   1.00
Cu8    Cu    0.21355   0.16667   0.25000   0.00000  Uiso   1.00
O9     O     0.12706   0.10654   0.24999   0.00000  Uiso   1.00
O10    O     0.20625   0.10655   0.24999   0.00000  Uiso   1.00
O11    O     0.14640   0.16667   0.17451   0.00000  Uiso   1.00
O12    O     0.22559   0.16668   0.17451   0.00000  Uiso   1.00
C13    C     0.16670   0.08755   0.24997   0.00000  Uiso   1.00
C14    C     0.19263   0.16699   0.15030   0.00000  Uiso   1.00
C15    C     0.26527   0.15856   0.00932   0.00000  Uiso   1.00
H16    H     0.28040   0.18246   0.41298   0.00000  Uiso   1.00
H17    H     0.30137   0.15155   0.48566   0.00000  Uiso   1.00
C18    C     0.20725   0.16750   0.09356   0.00000  Uiso   1.00
C19    C     0.07614   0.18150   0.43490   0.00000  Uiso   1.00
C20    C     0.06177   0.18055   0.48852   0.00000  Uiso   1.00
C21    C     0.09451   0.17178   0.01535   0.00000  Uiso   1.00
C22    C     0.14478   0.17487   0.48994   0.00000  Uiso   1.00
C23    C     0.15970   0.18084   0.43554   0.00000  Uiso   1.00
C24    C     0.18109   0.17225   0.01577   0.00000  Uiso   1.00
C25    C     0.22987   0.16865   0.48617   0.00000  Uiso   1.00
C26    C     0.24324   0.17905   0.43462   0.00000  Uiso   1.00
C27    C     0.20861   0.18903   0.41132   0.00000  Uiso   1.00
C28    C     0.17133   0.17520   0.06953   0.00000  Uiso   1.00
C29    C     0.25487   0.15867   0.06271   0.00000  Uiso   1.00
C30    C     0.12552   0.17840   0.40709   0.00000  Uiso   1.00
H31    H     0.13631   0.18548   0.09324   0.00000  Uiso   1.00
H32    H     0.02417   0.18298   0.00956   0.00000  Uiso   1.00
H33    H     0.22114   0.20370   0.37456   0.00000  Uiso   1.00
C34    C     0.19674   0.31205   0.27110   0.00000  Uiso   1.00
H35    H     0.21907   0.29585   0.29043   0.00000  Uiso   1.00
C36    C     0.19654   0.02143   0.27227   0.00000  Uiso   1.00
H37    H     0.21878   0.03767   0.29217   0.00000  Uiso   1.00
C38    C     0.16687   0.04292   0.24907   0.00000  Uiso   1.00
C39    C     0.13776   0.02168   0.22415   0.00000  Uiso   1.00
H40    H     0.11599   0.03851   0.20481   0.00000  Uiso   1.00
C41    C     0.13845   0.31207   0.22153   0.00000  Uiso   1.00
C42    C     0.16756   0.29047   0.24636   0.00000  Uiso   1.00
C43    C     0.30260   0.19856   0.27214   0.00000  Uiso   1.00
H44    H     0.27955   0.22437   0.29000   0.00000  Uiso   1.00
C45    C     0.01839   0.19836   0.27255   0.00000  Uiso   1.00
H46    H     0.03152   0.22398   0.29073   0.00000  Uiso   1.00
N47    N     0.04931   0.16666   0.24998   0.00000  Uiso   1.00
C48    C     0.03084   0.13497   0.22698   0.00000  Uiso   1.00
C49    C     0.31479   0.13431   0.22851   0.00000  Uiso   1.00
N50    N     0.28402   0.16669   0.24999   0.00000  Uiso   1.00
O51    O     0.29218   0.15122   0.08307   0.00000  Uiso   1.00
H52    H     0.29492   0.17622   0.10377   0.00000  Uiso   1.00
N53    N     0.11152   0.29125   0.19163   0.00000  Uiso   1.00
O54    O     0.13208   0.26248   0.15806   0.00000  Uiso   1.00
O55    O     0.06953   0.30559   0.19151   0.00000  Uiso   1.00
O56    O     0.05943   0.10292   0.20082   0.00000  Uiso   1.00
H57    H     0.09087   0.11445   0.18213   0.00000  Uiso   1.00
N58    N     0.29809   0.09881   0.20674   0.00000  Uiso   1.00
O59    O     0.30363   0.06240   0.22369   0.00000  Uiso   1.00
O60    O     0.28782   0.10149   0.16334   0.00000  Uiso   1.00
N61    N     0.03966   0.18319   0.40932   0.00000  Uiso   1.00
O62    O     0.02812   0.21848   0.39394   0.00000  Uiso   1.00
O63    O     0.02451   0.14898   0.39351   0.00000  Uiso   1.00
O64    O     0.07556   0.15722   0.06443   0.00000  Uiso   1.00
H65    H     0.09583   0.13334   0.06783   0.00000  Uiso   1.00
O66    O     0.46042   0.22678   0.25000   0.00000  Uiso   1.00
O67    O     0.53961   0.22679   0.25000   0.00000  Uiso   1.00
C68    C     0.50033   0.24577   0.24855   0.00000  Uiso   1.00
O69    O     0.44108   0.16665   0.32549   0.00000  Uiso   1.00
O70    O     0.52027   0.16666   0.32549   0.00000  Uiso   1.00
C71    C     0.47414   0.17078   0.34978   0.00000  Uiso   1.00
Cu72   Cu    0.45311   0.16666   0.25000   0.00000  Uiso   1.00
Cu73   Cu    0.54689   0.16667   0.25000   0.00000  Uiso   1.00
O74    O     0.46039   0.10654   0.24999   0.00000  Uiso   1.00
O75    O     0.53958   0.10655   0.24999   0.00000  Uiso   1.00
O76    O     0.47973   0.16667   0.17451   0.00000  Uiso   1.00
O77    O     0.55892   0.16668   0.17451   0.00000  Uiso   1.00
C78    C     0.50003   0.08755   0.24997   0.00000  Uiso   1.00
C79    C     0.52596   0.16699   0.15030   0.00000  Uiso   1.00
C80    C     0.59860   0.15856   0.00932   0.00000  Uiso   1.00
H81    H     0.61373   0.18246   0.41298   0.00000  Uiso   1.00
H82    H     0.63470   0.15155   0.48566   0.00000  Uiso   1.00
C83    C     0.54058   0.16750   0.09356   0.00000  Uiso   1.00
C84    C     0.40948   0.18150   0.43490   0.00000  Uiso   1.00
C85    C     0.39511   0.18055   0.48852   0.00000  Uiso   1.00
C86    C     0.42784   0.17178   0.01535   0.00000  Uiso   1.00
C87    C     0.47812   0.17487   0.48994   0.00000  Uiso   1.00
C88    C     0.49304   0.18084   0.43554   0.00000  Uiso   1.00
C89    C     0.51443   0.17225   0.01577   0.00000  Uiso   1.00
C90    C     0.56320   0.16865   0.48617   0.00000  Uiso   1.00
C91    C     0.57658   0.17905   0.43462   0.00000  Uiso   1.00
C92    C     0.54194   0.18903   0.41132   0.00000  Uiso   1.00
C93    C     0.50466   0.17520   0.06953   0.00000  Uiso   1.00
C94    C     0.58820   0.15867   0.06271   0.00000  Uiso   1.00
C95    C     0.45886   0.17840   0.40709   0.00000  Uiso   1.00
H96    H     0.46964   0.18548   0.09324   0.00000  Uiso   1.00
H97    H     0.35750   0.18298   0.00956   0.00000  Uiso   1.00
H98    H     0.55447   0.20370   0.37456   0.00000  Uiso   1.00
C99    C     0.53008   0.31205   0.27110   0.00000  Uiso   1.00
H100   H     0.55240   0.29585   0.29043   0.00000  Uiso   1.00
C101   C     0.52988   0.02143   0.27227   0.00000  Uiso   1.00
H102   H     0.55211   0.03767   0.29217   0.00000  Uiso   1.00
C103   C     0.50020   0.04292   0.24907   0.00000  Uiso   1.00
C104   C     0.47109   0.02168   0.22415   0.00000  Uiso   1.00
H105   H     0.44933   0.03851   0.20481   0.00000  Uiso   1.00
C106   C     0.47179   0.31207   0.22153   0.00000  Uiso   1.00
C107   C     0.50089   0.29047   0.24636   0.00000  Uiso   1.00
C108   C     0.63593   0.19856   0.27214   0.00000  Uiso   1.00
H109   H     0.61289   0.22437   0.29000   0.00000  Uiso   1.00
C110   C     0.35173   0.19836   0.27255   0.00000  Uiso   1.00
H111   H     0.36485   0.22398   0.29073   0.00000  Uiso   1.00
N112   N     0.38265   0.16666   0.24998   0.00000  Uiso   1.00
C113   C     0.36417   0.13497   0.22698   0.00000  Uiso   1.00
C114   C     0.64813   0.13431   0.22851   0.00000  Uiso   1.00
N115   N     0.61735   0.16669   0.24999   0.00000  Uiso   1.00
O116   O     0.62552   0.15122   0.08307   0.00000  Uiso   1.00
H117   H     0.62825   0.17622   0.10377   0.00000  Uiso   1.00
N118   N     0.44485   0.29125   0.19163   0.00000  Uiso   1.00
O119   O     0.46541   0.26248   0.15806   0.00000  Uiso   1.00
O120   O     0.40286   0.30559   0.19151   0.00000  Uiso   1.00
O121   O     0.39277   0.10292   0.20082   0.00000  Uiso   1.00
H122   H     0.42420   0.11445   0.18213   0.00000  Uiso   1.00
N123   N     0.63142   0.09881   0.20674   0.00000  Uiso   1.00
O124   O     0.63696   0.06240   0.22369   0.00000  Uiso   1.00
O125   O     0.62115   0.10149   0.16334   0.00000  Uiso   1.00
N126   N     0.37299   0.18319   0.40932   0.00000  Uiso   1.00
O127   O     0.36146   0.21848   0.39394   0.00000  Uiso   1.00
O128   O     0.35785   0.14898   0.39351   0.00000  Uiso   1.00
O129   O     0.40889   0.15722   0.06443   0.00000  Uiso   1.00
H130   H     0.42916   0.13334   0.06783   0.00000  Uiso   1.00
O131   O     0.79375   0.22678   0.25000   0.00000  Uiso   1.00
O132   O     0.87294   0.22679   0.25000   0.00000  Uiso   1.00
C133   C     0.83366   0.24577   0.24855   0.00000  Uiso   1.00
O134   O     0.77441   0.16665   0.32549   0.00000  Uiso   1.00
O135   O     0.85360   0.16666   0.32549   0.00000  Uiso   1.00
C136   C     0.80747   0.17078   0.34978   0.00000  Uiso   1.00
Cu137  Cu    0.78645   0.16666   0.25000   0.00000  Uiso   1.00
Cu138  Cu    0.88022   0.16667   0.25000   0.00000  Uiso   1.00
O139   O     0.79373   0.10654   0.24999   0.00000  Uiso   1.00
O140   O     0.87292   0.10655   0.24999   0.00000  Uiso   1.00
O141   O     0.81306   0.16667   0.17451   0.00000  Uiso   1.00
O142   O     0.89225   0.16668   0.17451   0.00000  Uiso   1.00
C143   C     0.83336   0.08755   0.24997   0.00000  Uiso   1.00
C144   C     0.85930   0.16699   0.15030   0.00000  Uiso   1.00
C145   C     0.93194   0.15856   0.00932   0.00000  Uiso   1.00
H146   H     0.94707   0.18246   0.41298   0.00000  Uiso   1.00
H147   H     0.96804   0.15155   0.48566   0.00000  Uiso   1.00
C148   C     0.87391   0.16750   0.09356   0.00000  Uiso   1.00
C149   C     0.74281   0.18150   0.43490   0.00000  Uiso   1.00
C150   C     0.72844   0.18055   0.48852   0.00000  Uiso   1.00
C151   C     0.76118   0.17178   0.01535   0.00000  Uiso   1.00
C152   C     0.81145   0.17487   0.48994   0.00000  Uiso   1.00
C153   C     0.82637   0.18084   0.43554   0.00000  Uiso   1.00
C154   C     0.84776   0.17225   0.01577   0.00000  Uiso   1.00
C155   C     0.89654   0.16865   0.48617   0.00000  Uiso   1.00
C156   C     0.90991   0.17905   0.43462   0.00000  Uiso   1.00
C157   C     0.87527   0.18903   0.41132   0.00000  Uiso   1.00
C158   C     0.83799   0.17520   0.06953   0.00000  Uiso   1.00
C159   C     0.92154   0.15867   0.06271   0.00000  Uiso   1.00
C160   C     0.79219   0.17840   0.40709   0.00000  Uiso   1.00
H161   H     0.80297   0.18548   0.09324   0.00000  Uiso   1.00
H162   H     0.69083   0.18298   0.00956   0.00000  Uiso   1.00
H163   H     0.88780   0.20370   0.37456   0.00000  Uiso   1.00
C164   C     0.86341   0.31205   0.27110   0.00000  Uiso   1.00
H165   H     0.88574   0.29585   0.29043   0.00000  Uiso   1.00
C166   C     0.86321   0.02143   0.27227   0.00000  Uiso   1.00
H167   H     0.88545   0.03767   0.29217   0.00000  Uiso   1.00
C168   C     0.83354   0.04292   0.24907   0.00000  Uiso   1.00
C169   C     0.80442   0.02168   0.22415   0.00000  Uiso   1.00
H170   H     0.78266   0.03851   0.20481   0.00000  Uiso   1.00
C171   C     0.80512   0.31207   0.22153   0.00000  Uiso   1.00
C172   C     0.83423   0.29047   0.24636   0.00000  Uiso   1.00
C173   C     0.96927   0.19856   0.27214   0.00000  Uiso   1.00
H174   H     0.94622   0.22437   0.29000   0.00000  Uiso   1.00
C175   C     0.68506   0.19836   0.27255   0.00000  Uiso   1.00
H176   H     0.69819   0.22398   0.29073   0.00000  Uiso   1.00
N177   N     0.71598   0.16666   0.24998   0.00000  Uiso   1.00
C178   C     0.69750   0.13497   0.22698   0.00000  Uiso   1.00
C179   C     0.98146   0.13431   0.22851   0.00000  Uiso   1.00
N180   N     0.95069   0.16669   0.24999   0.00000  Uiso   1.00
O181   O     0.95885   0.15122   0.08307   0.00000  Uiso   1.00
H182   H     0.96159   0.17622   0.10377   0.00000  Uiso   1.00
N183   N     0.77818   0.29125   0.19163   0.00000  Uiso   1.00
O184   O     0.79874   0.26248   0.15806   0.00000  Uiso   1.00
O185   O     0.73620   0.30559   0.19151   0.00000  Uiso   1.00
O186   O     0.72610   0.10292   0.20082   0.00000  Uiso   1.00
H187   H     0.75753   0.11445   0.18213   0.00000  Uiso   1.00
N188   N     0.96475   0.09881   0.20674   0.00000  Uiso   1.00
O189   O     0.97029   0.06240   0.22369   0.00000  Uiso   1.00
O190   O     0.95448   0.10149   0.16334   0.00000  Uiso   1.00
N191   N     0.70633   0.18319   0.40932   0.00000  Uiso   1.00
O192   O     0.69479   0.21848   0.39394   0.00000  Uiso   1.00
O193   O     0.69118   0.14898   0.39351   0.00000  Uiso   1.00
O194   O     0.74222   0.15722   0.06443   0.00000  Uiso   1.00
H195   H     0.76250   0.13334   0.06783   0.00000  Uiso   1.00
O196   O     0.12708   0.56011   0.25000   0.00000  Uiso   1.00
O197   O     0.20627   0.56012   0.25000   0.00000  Uiso   1.00
C198   C     0.16700   0.57910   0.24855   0.00000  Uiso   1.00
O199   O     0.10775   0.49998   0.32549   0.00000  Uiso   1.00
O200   O     0.18694   0.49999   0.32549   0.00000  Uiso   1.00
C201   C     0.14080   0.50411   0.34978   0.00000  Uiso   1.00
Cu202  Cu    0.11978   0.49999   0.25000   0.00000  Uiso   1.00
Cu203  Cu    0.21355   0.50001   0.25000   0.00000  Uiso   1.00
O204   O     0.12706   0.43988   0.24999   0.00000  Uiso   1.00
O205   O     0.20625   0.43989   0.24999   0.00000  Uiso   1.00
O206   O     0.14640   0.50001   0.17451   0.00000  Uiso   1.00
O207   O     0.22559   0.50002   0.17451   0.00000  Uiso   1.00
C208   C     0.16670   0.42089   0.24997   0.00000  Uiso   1.00
C209   C     0.19263   0.50032   0.15030   0.00000  Uiso   1.00
C210   C     0.26527   0.49190   0.00932   0.00000  Uiso   1.00
H211   H     0.28040   0.51579   0.41298   0.00000  Uiso   1.00
H212   H     0.30137   0.48488   0.48566   0.00000  Uiso   1.00
C213   C     0.20725   0.50083   0.09356   0.00000  Uiso   1.00
C214   C     0.07614   0.51483   0.43490   0.00000  Uiso   1.00
C215   C     0.06177   0.51388   0.48852   0.00000  Uiso   1.00
C216   C     0.09451   0.50511   0.01535   0.00000  Uiso   1.00
C217   C     0.14478   0.50821   0.48994   0.00000  Uiso   1.00
C218   C     0.15970   0.51418   0.43554   0.00000  Uiso   1.00
C219   C     0.18109   0.50558   0.01577   0.00000  Uiso   1.00
C220   C     0.22987   0.50198   0.48617   0.00000  Uiso   1.00
C221   C     0.24324   0.51238   0.43462   0.00000  Uiso   1.00
C222   C     0.20861   0.52237   0.41132   0.00000  Uiso   1.00
C223   C     0.17133   0.50854   0.06953   0.00000  Uiso   1.00
C224   C     0.25487   0.49200   0.06271   0.00000  Uiso   1.00
C225   C     0.12552   0.51174   0.40709   0.00000  Uiso   1.00
H226   H     0.13631   0.51882   0.09324   0.00000  Uiso   1.00
H227   H     0.02417   0.51631   0.00956   0.00000  Uiso   1.00
H228   H     0.22114   0.53703   0.37456   0.00000  Uiso   1.00
C229   C     0.19674   0.64538   0.27110   0.00000  Uiso   1.00
H230   H     0.21907   0.62919   0.29043   0.00000  Uiso   1.00
C231   C     0.19654   0.35476   0.27227   0.00000  Uiso   1.00
H232   H     0.21878   0.37100   0.29217   0.00000  Uiso   1.00
C233   C     0.16687   0.37625   0.24907   0.00000  Uiso   1.00
C234   C     0.13776   0.35502   0.22415   0.00000  Uiso   1.00
H235   H     0.11599   0.37185   0.20481   0.00000  Uiso   1.00
C236   C     0.13845   0.64540   0.22153   0.00000  Uiso   1.00
C237   C     0.16756   0.62380   0.24636   0.00000  Uiso   1.00
C238   C     0.30260   0.53190   0.27214   0.00000  Uiso   1.00
H239   H     0.27955   0.55770   0.29000   0.00000  Uiso   1.00
C240   C     0.01839   0.53170   0.27255   0.00000  Uiso   1.00
H241   H     0.03152   0.55731   0.29073   0.00000  Uiso   1.00
N242   N     0.04931   0.49999   0.24998   0.00000  Uiso   1.00
C243   C     0.03084   0.46831   0.22698   0.00000  Uiso   1.00
C244   C     0.31479   0.46765   0.22851   0.00000  Uiso   1.00
N245   N     0.28402   0.50002   0.24999   0.00000  Uiso   1.00
O246   O     0.29218   0.48456   0.08307   0.00000  Uiso   1.00
H247   H     0.29492   0.50955   0.10377   0.00000  Uiso   1.00
N248   N     0.11152   0.62459   0.19163   0.00000  Uiso   1.00
O249   O     0.13208   0.59582   0.15806   0.00000  Uiso   1.00
O250   O     0.06953   0.63892   0.19151   0.00000  Uiso   1.00
O251   O     0.05943   0.43625   0.20082   0.00000  Uiso   1.00
H252   H     0.09087   0.44778   0.18213   0.00000  Uiso   1.00
N253   N     0.29809   0.43214   0.20674   0.00000  Uiso   1.00
O254   O     0.30363   0.39573   0.22369   0.00000  Uiso   1.00
O255   O     0.28782   0.43482   0.16334   0.00000  Uiso   1.00
N256   N     0.03966   0.51653   0.40932   0.00000  Uiso   1.00
O257   O     0.02812   0.55182   0.39394   0.00000  Uiso   1.00
O258   O     0.02451   0.48231   0.39351   0.00000  Uiso   1.00
O259   O     0.07556   0.49056   0.06443   0.00000  Uiso   1.00
H260   H     0.09583   0.46667   0.06783   0.00000  Uiso   1.00
O261   O     0.46042   0.56011   0.25000   0.00000  Uiso   1.00
O262   O     0.53961   0.56012   0.25000   0.00000  Uiso   1.00
C263   C     0.50033   0.57910   0.24855   0.00000  Uiso   1.00
O264   O     0.44108   0.49998   0.32549   0.00000  Uiso   1.00
O265   O     0.52027   0.49999   0.32549   0.00000  Uiso   1.00
C266   C     0.47414   0.50411   0.34978   0.00000  Uiso   1.00
Cu267  Cu    0.45311   0.49999   0.25000   0.00000  Uiso   1.00
Cu268  Cu    0.54689   0.50001   0.25000   0.00000  Uiso   1.00
O269   O     0.46039   0.43988   0.24999   0.00000  Uiso   1.00
O270   O     0.53958   0.43989   0.24999   0.00000  Uiso   1.00
O271   O     0.47973   0.50001   0.17451   0.00000  Uiso   1.00
O272   O     0.55892   0.50002   0.17451   0.00000  Uiso   1.00
C273   C     0.50003   0.42089   0.24997   0.00000  Uiso   1.00
C274   C     0.52596   0.50032   0.15030   0.00000  Uiso   1.00
C275   C     0.59860   0.49190   0.00932   0.00000  Uiso   1.00
H276   H     0.61373   0.51579   0.41298   0.00000  Uiso   1.00
H277   H     0.63470   0.48488   0.48566   0.00000  Uiso   1.00
C278   C     0.54058   0.50083   0.09356   0.00000  Uiso   1.00
C279   C     0.40948   0.51483   0.43490   0.00000  Uiso   1.00
C280   C     0.39511   0.51388   0.48852   0.00000  Uiso   1.00
C281   C     0.42784   0.50511   0.01535   0.00000  Uiso   1.00
C282   C     0.47812   0.50821   0.48994   0.00000  Uiso   1.00
C283   C     0.49304   0.51418   0.43554   0.00000  Uiso   1.00
C284   C     0.51443   0.50558   0.01577   0.00000  Uiso   1.00
C285   C     0.56320   0.50198   0.48617   0.00000  Uiso   1.00
C286   C     0.57658   0.51238   0.43462   0.00000  Uiso   1.00
C287   C     0.54194   0.52237   0.41132   0.00000  Uiso   1.00
C288   C     0.50466   0.50854   0.06953   0.00000  Uiso   1.00
C289   C     0.58820   0.49200   0.06271   0.00000  Uiso   1.00
C290   C     0.45886   0.51174   0.40709   0.00000  Uiso   1.00
H291   H     0.46964   0.51882   0.09324   0.00000  Uiso   1.00
H292   H     0.35750   0.51631   0.00956   0.00000  Uiso   1.00
H293   H     0.55447   0.53703   0.37456   0.00000  Uiso   1.00
C294   C     0.53008   0.64538   0.27110   0.00000  Uiso   1.00
H295   H     0.55240   0.62919   0.29043   0.00000  Uiso   1.00
C296   C     0.52988   0.35476   0.27227   0.00000  Uiso   1.00
H297   H     0.55211   0.37100   0.29217   0.00000  Uiso   1.00
C298   C     0.50020   0.37625   0.24907   0.00000  Uiso   1.00
C299   C     0.47109   0.35502   0.22415   0.00000  Uiso   1.00
H300   H     0.44933   0.37185   0.20481   0.00000  Uiso   1.00
C301   C     0.47179   0.64540   0.22153   0.00000  Uiso   1.00
C302   C     0.50089   0.62380   0.24636   0.00000  Uiso   1.00
C303   C     0.63593   0.53190   0.27214   0.00000  Uiso   1.00
H304   H     0.61289   0.55770   0.29000   0.00000  Uiso   1.00
C305   C     0.35173   0.53170   0.27255   0.00000  Uiso   1.00
H306   H     0.36485   0.55731   0.29073   0.00000  Uiso   1.00
N307   N     0.38265   0.49999   0.24998   0.00000  Uiso   1.00
C308   C     0.36417   0.46831   0.22698   0.00000  Uiso   1.00
C309   C     0.64813   0.46765   0.22851   0.00000  Uiso   1.00
N310   N     0.61735   0.50002   0.24999   0.00000  Uiso   1.00
O311   O     0.62552   0.48456   0.08307   0.00000  Uiso   1.00
H312   H     0.62825   0.50955   0.10377   0.00000  Uiso   1.00
N313   N     0.44485   0.62459   0.19163   0.00000  Uiso   1.00
O314   O     0.46541   0.59582   0.15806   0.00000  Uiso   1.00
O315   O     0.40286   0.63892   0.19151   0.00000  Uiso   1.00
O316   O     0.39277   0.43625   0.20082   0.00000  Uiso   1.00
H317   H     0.42420   0.44778   0.18213   0.00000  Uiso   1.00
N318   N     0.63142   0.43214   0.20674   0.00000  Uiso   1.00
O319   O     0.63696   0.39573   0.22369   0.00000  Uiso   1.00
O320   O     0.62115   0.43482   0.16334   0.00000  Uiso   1.00
N321   N     0.37299   0.51653   0.40932   0.00000  Uiso   1.00
O322   O     0.36146   0.55182   0.39394   0.00000  Uiso   1.00
O323   O     0.35785   0.48231   0.39351   0.00000  Uiso   1.00
O324   O     0.40889   0.49056   0.06443   0.00000  Uiso   1.00
H325   H     0.42916   0.46667   0.06783   0.00000  Uiso   1.00
O326   O     0.79375   0.56011   0.25000   0.00000  Uiso   1.00
O327   O     0.87294   0.56012   0.25000   0.00000  Uiso   1.00
C328   C     0.83366   0.57910   0.24855   0.00000  Uiso   1.00
O329   O     0.77441   0.49998   0.32549   0.00000  Uiso   1.00
O330   O     0.85360   0.49999   0.32549   0.00000  Uiso   1.00
C331   C     0.80747   0.50411   0.34978   0.00000  Uiso   1.00
Cu332  Cu    0.78645   0.49999   0.25000   0.00000  Uiso   1.00
Cu333  Cu    0.88022   0.50001   0.25000   0.00000  Uiso   1.00
O334   O     0.79373   0.43988   0.24999   0.00000  Uiso   1.00
O335   O     0.87292   0.43989   0.24999   0.00000  Uiso   1.00
O336   O     0.81306   0.50001   0.17451   0.00000  Uiso   1.00
O337   O     0.89225   0.50002   0.17451   0.00000  Uiso   1.00
C338   C     0.83336   0.42089   0.24997   0.00000  Uiso   1.00
C339   C     0.85930   0.50032   0.15030   0.00000  Uiso   1.00
C340   C     0.93194   0.49190   0.00932   0.00000  Uiso   1.00
H341   H     0.94707   0.51579   0.41298   0.00000  Uiso   1.00
H342   H     0.96804   0.48488   0.48566   0.00000  Uiso   1.00
C343   C     0.87391   0.50083   0.09356   0.00000  Uiso   1.00
C344   C     0.74281   0.51483   0.43490   0.00000  Uiso   1.00
C345   C     0.72844   0.51388   0.48852   0.00000  Uiso   1.00
C346   C     0.76118   0.50511   0.01535   0.00000  Uiso   1.00
C347   C     0.81145   0.50821   0.48994   0.00000  Uiso   1.00
C348   C     0.82637   0.51418   0.43554   0.00000  Uiso   1.00
C349   C     0.84776   0.50558   0.01577   0.00000  Uiso   1.00
C350   C     0.89654   0.50198   0.48617   0.00000  Uiso   1.00
C351   C     0.90991   0.51238   0.43462   0.00000  Uiso   1.00
C352   C     0.87527   0.52237   0.41132   0.00000  Uiso   1.00
C353   C     0.83799   0.50854   0.06953   0.00000  Uiso   1.00
C354   C     0.92154   0.49200   0.06271   0.00000  Uiso   1.00
C355   C     0.79219   0.51174   0.40709   0.00000  Uiso   1.00
H356   H     0.80297   0.51882   0.09324   0.00000  Uiso   1.00
H357   H     0.69083   0.51631   0.00956   0.00000  Uiso   1.00
H358   H     0.88780   0.53703   0.37456   0.00000  Uiso   1.00
C359   C     0.86341   0.64538   0.27110   0.00000  Uiso   1.00
H360   H     0.88574   0.62919   0.29043   0.00000  Uiso   1.00
C361   C     0.86321   0.35476   0.27227   0.00000  Uiso   1.00
H362   H     0.88545   0.37100   0.29217   0.00000  Uiso   1.00
C363   C     0.83354   0.37625   0.24907   0.00000  Uiso   1.00
C364   C     0.80442   0.35502   0.22415   0.00000  Uiso   1.00
H365   H     0.78266   0.37185   0.20481   0.00000  Uiso   1.00
C366   C     0.80512   0.64540   0.22153   0.00000  Uiso   1.00
C367   C     0.83423   0.62380   0.24636   0.00000  Uiso   1.00
C368   C     0.96927   0.53190   0.27214   0.00000  Uiso   1.00
H369   H     0.94622   0.55770   0.29000   0.00000  Uiso   1.00
C370   C     0.68506   0.53170   0.27255   0.00000  Uiso   1.00
H371   H     0.69819   0.55731   0.29073   0.00000  Uiso   1.00
N372   N     0.71598   0.49999   0.24998   0.00000  Uiso   1.00
C373   C     0.69750   0.46831   0.22698   0.00000  Uiso   1.00
C374   C     0.98146   0.46765   0.22851   0.00000  Uiso   1.00
N375   N     0.95069   0.50002   0.24999   0.00000  Uiso   1.00
O376   O     0.95885   0.48456   0.08307   0.00000  Uiso   1.00
H377   H     0.96159   0.50955   0.10377   0.00000  Uiso   1.00
N378   N     0.77818   0.62459   0.19163   0.00000  Uiso   1.00
O379   O     0.79874   0.59582   0.15806   0.00000  Uiso   1.00
O380   O     0.73620   0.63892   0.19151   0.00000  Uiso   1.00
O381   O     0.72610   0.43625   0.20082   0.00000  Uiso   1.00
H382   H     0.75753   0.44778   0.18213   0.00000  Uiso   1.00
N383   N     0.96475   0.43214   0.20674   0.00000  Uiso   1.00
O384   O     0.97029   0.39573   0.22369   0.00000  Uiso   1.00
O385   O     0.95448   0.43482   0.16334   0.00000  Uiso   1.00
N386   N     0.70633   0.51653   0.40932   0.00000  Uiso   1.00
O387   O     0.69479   0.55182   0.39394   0.00000  Uiso   1.00
O388   O     0.69118   0.48231   0.39351   0.00000  Uiso   1.00
O389   O     0.74222   0.49056   0.06443   0.00000  Uiso   1.00
H390   H     0.76250   0.46667   0.06783   0.00000  Uiso   1.00
O391   O     0.12708   0.89345   0.25000   0.00000  Uiso   1.00
O392   O     0.20627   0.89346   0.25000   0.00000  Uiso   1.00
C393   C     0.16700   0.91243   0.24855   0.00000  Uiso   1.00
O394   O     0.10775   0.83332   0.32549   0.00000  Uiso   1.00
O395   O     0.18694   0.83333   0.32549   0.00000  Uiso   1.00
C396   C     0.14080   0.83745   0.34978   0.00000  Uiso   1.00
Cu397  Cu    0.11978   0.83333   0.25000   0.00000  Uiso   1.00
Cu398  Cu    0.21355   0.83334   0.25000   0.00000  Uiso   1.00
O399   O     0.12706   0.77321   0.24999   0.00000  Uiso   1.00
O400   O     0.20625   0.77322   0.24999   0.00000  Uiso   1.00
O401   O     0.14640   0.83334   0.17451   0.00000  Uiso   1.00
O402   O     0.22559   0.83335   0.17451   0.00000  Uiso   1.00
C403   C     0.16670   0.75422   0.24997   0.00000  Uiso   1.00
C404   C     0.19263   0.83366   0.15030   0.00000  Uiso   1.00
C405   C     0.26527   0.82523   0.00932   0.00000  Uiso   1.00
H406   H     0.28040   0.84912   0.41298   0.00000  Uiso   1.00
H407   H     0.30137   0.81822   0.48566   0.00000  Uiso   1.00
C408   C     0.20725   0.83417   0.09356   0.00000  Uiso   1.00
C409   C     0.07614   0.84816   0.43490   0.00000  Uiso   1.00
C410   C     0.06177   0.84721   0.48852   0.00000  Uiso   1.00
C411   C     0.09451   0.83845   0.01535   0.00000  Uiso   1.00
C412   C     0.14478   0.84154   0.48994   0.00000  Uiso   1.00
C413   C     0.15970   0.84751   0.43554   0.00000  Uiso   1.00
C414   C     0.18109   0.83891   0.01577   0.00000  Uiso   1.00
C415   C     0.22987   0.83532   0.48617   0.00000  Uiso   1.00
C416   C     0.24324   0.84572   0.43462   0.00000  Uiso   1.00
C417   C     0.20861   0.85570   0.41132   0.00000  Uiso   1.00
C418   C     0.17133   0.84187   0.06953   0.00000  Uiso   1.00
C419   C     0.25487   0.82533   0.06271   0.00000  Uiso   1.00
C420   C     0.12552   0.84507   0.40709   0.00000  Uiso   1.00
H421   H     0.13631   0.85215   0.09324   0.00000  Uiso   1.00
H422   H     0.02417   0.84965   0.00956   0.00000  Uiso   1.00
H423   H     0.22114   0.87037   0.37456   0.00000  Uiso   1.00
C424   C     0.19674   0.97871   0.27110   0.00000  Uiso   1.00
H425   H     0.21907   0.96252   0.29043   0.00000  Uiso   1.00
C426   C     0.19654   0.68810   0.27227   0.00000  Uiso   1.00
H427   H     0.21878   0.70433   0.29217   0.00000  Uiso   1.00
C428   C     0.16687   0.70958   0.24907   0.00000  Uiso   1.00
C429   C     0.13776   0.68835   0.22415   0.00000  Uiso   1.00
H430   H     0.11599   0.70518   0.20481   0.00000  Uiso   1.00
C431   C     0.13845   0.97874   0.22153   0.00000  Uiso   1.00
C432   C     0.16756   0.95713   0.24636   0.00000  Uiso   1.00
C433   C     0.30260   0.86523   0.27214   0.00000  Uiso   1.00
H434   H     0.27955   0.89103   0.29000   0.00000  Uiso   1.00
C435   C     0.01839   0.86503   0.27255   0.00000  Uiso   1.00
H436   H     0.03152   0.89065   0.29073   0.00000  Uiso   1.00
N437   N     0.04931   0.83332   0.24998   0.00000  Uiso   1.00
C438   C     0.03084   0.80164   0.22698   0.00000  Uiso   1.00
C439   C     0.31479   0.80098   0.22851   0.00000  Uiso   1.00
N440   N     0.28402   0.83335   0.24999   0.00000  Uiso   1.00
O441   O     0.29218   0.81789   0.08307   0.00000  Uiso   1.00
H442   H     0.29492   0.84289   0.10377   0.00000  Uiso   1.00
N443   N     0.11152   0.95792   0.19163   0.00000  Uiso   1.00
O444   O     0.13208   0.92915   0.15806   0.00000  Uiso   1.00
O445   O     0.06953   0.97225   0.19151   0.00000  Uiso   1.00
O446   O     0.05943   0.76959   0.20082   0.00000  Uiso   1.00
H447   H     0.09087   0.78112   0.18213   0.00000  Uiso   1.00
N448   N     0.29809   0.76548   0.20674   0.00000  Uiso   1.00
O449   O     0.30363   0.72906   0.22369   0.00000  Uiso   1.00
O450   O     0.28782   0.76815   0.16334   0.00000  Uiso   1.00
N451   N     0.03966   0.84986   0.40932   0.00000  Uiso   1.00
O452   O     0.02812   0.88515   0.39394   0.00000  Uiso   1.00
O453   O     0.02451   0.81565   0.39351   0.00000  Uiso   1.00
O454   O     0.07556   0.82389   0.06443   0.00000  Uiso   1.00
H455   H     0.09583   0.80001   0.06783   0.00000  Uiso   1.00
O456   O     0.46042   0.89345   0.25000   0.00000  Uiso   1.00
O457   O     0.53961   0.89346   0.25000   0.00000  Uiso   1.00
C458   C     0.50033   0.91243   0.24855   0.00000  Uiso   1.00
O459   O     0.44108   0.83332   0.32549   0.00000  Uiso   1.00
O460   O     0.52027   0.83333   0.32549   0.00000  Uiso   1.00
C461   C     0.47414   0.83745   0.34978   0.00000  Uiso   1.00
Cu462  Cu    0.45311   0.83333   0.25000   0.00000  Uiso   1.00
Cu463  Cu    0.54689   0.83334   0.25000   0.00000  Uiso   1.00
O464   O     0.46039   0.77321   0.24999   0.00000  Uiso   1.00
O465   O     0.53958   0.77322   0.24999   0.00000  Uiso   1.00
O466   O     0.47973   0.83334   0.17451   0.00000  Uiso   1.00
O467   O     0.55892   0.83335   0.17451   0.00000  Uiso   1.00
C468   C     0.50003   0.75422   0.24997   0.00000  Uiso   1.00
C469   C     0.52596   0.83366   0.15030   0.00000  Uiso   1.00
C470   C     0.59860   0.82523   0.00932   0.00000  Uiso   1.00
H471   H     0.61373   0.84912   0.41298   0.00000  Uiso   1.00
H472   H     0.63470   0.81822   0.48566   0.00000  Uiso   1.00
C473   C     0.54058   0.83417   0.09356   0.00000  Uiso   1.00
C474   C     0.40948   0.84816   0.43490   0.00000  Uiso   1.00
C475   C     0.39511   0.84721   0.48852   0.00000  Uiso   1.00
C476   C     0.42784   0.83845   0.01535   0.00000  Uiso   1.00
C477   C     0.47812   0.84154   0.48994   0.00000  Uiso   1.00
C478   C     0.49304   0.84751   0.43554   0.00000  Uiso   1.00
C479   C     0.51443   0.83891   0.01577   0.00000  Uiso   1.00
C480   C     0.56320   0.83532   0.48617   0.00000  Uiso   1.00
C481   C     0.57658   0.84572   0.43462   0.00000  Uiso   1.00
C482   C     0.54194   0.85570   0.41132   0.00000  Uiso   1.00
C483   C     0.50466   0.84187   0.06953   0.00000  Uiso   1.00
C484   C     0.58820   0.82533   0.06271   0.00000  Uiso   1.00
C485   C     0.45886   0.84507   0.40709   0.00000  Uiso   1.00
H486   H     0.46964   0.85215   0.09324   0.00000  Uiso   1.00
H487   H     0.35750   0.84965   0.00956   0.00000  Uiso   1.00
H488   H     0.55447   0.87037   0.37456   0.00000  Uiso   1.00
C489   C     0.53008   0.97871   0.27110   0.00000  Uiso   1.00
H490   H     0.55240   0.96252   0.29043   0.00000  Uiso   1.00
C491   C     0.52988   0.68810   0.27227   0.00000  Uiso   1.00
H492   H     0.55211   0.70433   0.29217   0.00000  Uiso   1.00
C493   C     0.50020   0.70958   0.24907   0.00000  Uiso   1.00
C494   C     0.47109   0.68835   0.22415   0.00000  Uiso   1.00
H495   H     0.44933   0.70518   0.20481   0.00000  Uiso   1.00
C496   C     0.47179   0.97874   0.22153   0.00000  Uiso   1.00
C497   C     0.50089   0.95713   0.24636   0.00000  Uiso   1.00
C498   C     0.63593   0.86523   0.27214   0.00000  Uiso   1.00
H499   H     0.61289   0.89103   0.29000   0.00000  Uiso   1.00
C500   C     0.35173   0.86503   0.27255   0.00000  Uiso   1.00
H501   H     0.36485   0.89065   0.29073   0.00000  Uiso   1.00
N502   N     0.38265   0.83332   0.24998   0.00000  Uiso   1.00
C503   C     0.36417   0.80164   0.22698   0.00000  Uiso   1.00
C504   C     0.64813   0.80098   0.22851   0.00000  Uiso   1.00
N505   N     0.61735   0.83335   0.24999   0.00000  Uiso   1.00
O506   O     0.62552   0.81789   0.08307   0.00000  Uiso   1.00
H507   H     0.62825   0.84289   0.10377   0.00000  Uiso   1.00
N508   N     0.44485   0.95792   0.19163   0.00000  Uiso   1.00
O509   O     0.46541   0.92915   0.15806   0.00000  Uiso   1.00
O510   O     0.40286   0.97225   0.19151   0.00000  Uiso   1.00
O511   O     0.39277   0.76959   0.20082   0.00000  Uiso   1.00
H512   H     0.42420   0.78112   0.18213   0.00000  Uiso   1.00
N513   N     0.63142   0.76548   0.20674   0.00000  Uiso   1.00
O514   O     0.63696   0.72906   0.22369   0.00000  Uiso   1.00
O515   O     0.62115   0.76815   0.16334   0.00000  Uiso   1.00
N516   N     0.37299   0.84986   0.40932   0.00000  Uiso   1.00
O517   O     0.36146   0.88515   0.39394   0.00000  Uiso   1.00
O518   O     0.35785   0.81565   0.39351   0.00000  Uiso   1.00
O519   O     0.40889   0.82389   0.06443   0.00000  Uiso   1.00
H520   H     0.42916   0.80001   0.06783   0.00000  Uiso   1.00
O521   O     0.79375   0.89345   0.25000   0.00000  Uiso   1.00
O522   O     0.87294   0.89346   0.25000   0.00000  Uiso   1.00
C523   C     0.83366   0.91243   0.24855   0.00000  Uiso   1.00
O524   O     0.77441   0.83332   0.32549   0.00000  Uiso   1.00
O525   O     0.85360   0.83333   0.32549   0.00000  Uiso   1.00
C526   C     0.80747   0.83745   0.34978   0.00000  Uiso   1.00
Cu527  Cu    0.78645   0.83333   0.25000   0.00000  Uiso   1.00
Cu528  Cu    0.88022   0.83334   0.25000   0.00000  Uiso   1.00
O529   O     0.79373   0.77321   0.24999   0.00000  Uiso   1.00
O530   O     0.87292   0.77322   0.24999   0.00000  Uiso   1.00
O531   O     0.81306   0.83334   0.17451   0.00000  Uiso   1.00
O532   O     0.89225   0.83335   0.17451   0.00000  Uiso   1.00
C533   C     0.83336   0.75422   0.24997   0.00000  Uiso   1.00
C534   C     0.85930   0.83366   0.15030   0.00000  Uiso   1.00
C535   C     0.93194   0.82523   0.00932   0.00000  Uiso   1.00
H536   H     0.94707   0.84912   0.41298   0.00000  Uiso   1.00
H537   H     0.96804   0.81822   0.48566   0.00000  Uiso   1.00
C538   C     0.87391   0.83417   0.09356   0.00000  Uiso   1.00
C539   C     0.74281   0.84816   0.43490   0.00000  Uiso   1.00
C540   C     0.72844   0.84721   0.48852   0.00000  Uiso   1.00
C541   C     0.76118   0.83845   0.01535   0.00000  Uiso   1.00
C542   C     0.81145   0.84154   0.48994   0.00000  Uiso   1.00
C543   C     0.82637   0.84751   0.43554   0.00000  Uiso   1.00
C544   C     0.84776   0.83891   0.01577   0.00000  Uiso   1.00
C545   C     0.89654   0.83532   0.48617   0.00000  Uiso   1.00
C546   C     0.90991   0.84572   0.43462   0.00000  Uiso   1.00
C547   C     0.87527   0.85570   0.41132   0.00000  Uiso   1.00
C548   C     0.83799   0.84187   0.06953   0.00000  Uiso   1.00
C549   C     0.92154   0.82533   0.06271   0.00000  Uiso   1.00
C550   C     0.79219   0.84507   0.40709   0.00000  Uiso   1.00
H551   H     0.80297   0.85215   0.09324   0.00000  Uiso   1.00
H552   H     0.69083   0.84965   0.00956   0.00000  Uiso   1.00
H553   H     0.88780   0.87037   0.37456   0.00000  Uiso   1.00
C554   C     0.86341   0.97871   0.27110   0.00000  Uiso   1.00
H555   H     0.88574   0.96252   0.29043   0.00000  Uiso   1.00
C556   C     0.86321   0.68810   0.27227   0.00000  Uiso   1.00
H557   H     0.88545   0.70433   0.29217   0.00000  Uiso   1.00
C558   C     0.83354   0.70958   0.24907   0.00000  Uiso   1.00
C559   C     0.80442   0.68835   0.22415   0.00000  Uiso   1.00
H560   H     0.78266   0.70518   0.20481   0.00000  Uiso   1.00
C561   C     0.80512   0.97874   0.22153   0.00000  Uiso   1.00
C562   C     0.83423   0.95713   0.24636   0.00000  Uiso   1.00
C563   C     0.96927   0.86523   0.27214   0.00000  Uiso   1.00
H564   H     0.94622   0.89103   0.29000   0.00000  Uiso   1.00
C565   C     0.68506   0.86503   0.27255   0.00000  Uiso   1.00
H566   H     0.69819   0.89065   0.29073   0.00000  Uiso   1.00
N567   N     0.71598   0.83332   0.24998   0.00000  Uiso   1.00
C568   C     0.69750   0.80164   0.22698   0.00000  Uiso   1.00
C569   C     0.98146   0.80098   0.22851   0.00000  Uiso   1.00
N570   N     0.95069   0.83335   0.24999   0.00000  Uiso   1.00
O571   O     0.95885   0.81789   0.08307   0.00000  Uiso   1.00
H572   H     0.96159   0.84289   0.10377   0.00000  Uiso   1.00
N573   N     0.77818   0.95792   0.19163   0.00000  Uiso   1.00
O574   O     0.79874   0.92915   0.15806   0.00000  Uiso   1.00
O575   O     0.73620   0.97225   0.19151   0.00000  Uiso   1.00
O576   O     0.72610   0.76959   0.20082   0.00000  Uiso   1.00
H577   H     0.75753   0.78112   0.18213   0.00000  Uiso   1.00
N578   N     0.96475   0.76548   0.20674   0.00000  Uiso   1.00
O579   O     0.97029   0.72906   0.22369   0.00000  Uiso   1.00
O580   O     0.95448   0.76815   0.16334   0.00000  Uiso   1.00
N581   N     0.70633   0.84986   0.40932   0.00000  Uiso   1.00
O582   O     0.69479   0.88515   0.39394   0.00000  Uiso   1.00
O583   O     0.69118   0.81565   0.39351   0.00000  Uiso   1.00
O584   O     0.74222   0.82389   0.06443   0.00000  Uiso   1.00
H585   H     0.76250   0.80001   0.06783   0.00000  Uiso   1.00
O586   O     0.12708   0.22678   0.75000   0.00000  Uiso   1.00
O587   O     0.20627   0.22679   0.75000   0.00000  Uiso   1.00
C588   C     0.16700   0.24577   0.74855   0.00000  Uiso   1.00
O589   O     0.10775   0.16665   0.82549   0.00000  Uiso   1.00
O590   O     0.18694   0.16666   0.82549   0.00000  Uiso   1.00
C591   C     0.14080   0.17078   0.84978   0.00000  Uiso   1.00
Cu592  Cu    0.11978   0.16666   0.75000   0.00000  Uiso   1.00
Cu593  Cu    0.21355   0.16667   0.75000   0.00000  Uiso   1.00
O594   O     0.12706   0.10654   0.74999   0.00000  Uiso   1.00
O595   O     0.20625   0.10655   0.74999   0.00000  Uiso   1.00
O596   O     0.14640   0.16667   0.67451   0.00000  Uiso   1.00
O597   O     0.22559   0.16668   0.67451   0.00000  Uiso   1.00
C598   C     0.16670   0.08755   0.74997   0.00000  Uiso   1.00
C599   C     0.19263   0.16699   0.65030   0.00000  Uiso   1.00
C600   C     0.26527   0.15856   0.50932   0.00000  Uiso   1.00
H601   H     0.28040   0.18246   0.91298   0.00000  Uiso   1.00
H602   H     0.30137   0.15155   0.98566   0.00000  Uiso   1.00
C603   C     0.20725   0.16750   0.59356   0.00000  Uiso   1.00
C604   C     0.07614   0.18150   0.93490   0.00000  Uiso   1.00
C605   C     0.06177   0.18055   0.98852   0.00000  Uiso   1.00
C606   C     0.09451   0.17178   0.51535   0.00000  Uiso   1.00
C607   C     0.14478   0.17487   0.98994   0.00000  Uiso   1.00
C608   C     0.15970   0.18084   0.93554   0.00000  Uiso   1.00
C609   C     0.18109   0.17225   0.51577   0.00000  Uiso   1.00
C610   C     0.22987   0.16865   0.98617   0.00000  Uiso   1.00
C611   C     0.24324   0.17905   0.93462   0.00000  Uiso   1.00
C612   C     0.20861   0.18903   0.91132   0.00000  Uiso   1.00
C613   C     0.17133   0.17520   0.56953   0.00000  Uiso   1.00
C614   C     0.25487   0.15867   0.56271   0.00000  Uiso   1.00
C615   C     0.12552   0.17840   0.90709   0.00000  Uiso   1.00
H616   H     0.13631   0.18548   0.59324   0.00000  Uiso   1.00
H617   H     0.02417   0.18298   0.50956   0.00000  Uiso   1.00
H618   H     0.22114   0.20370   0.87456   0.00000  Uiso   1.00
C619   C     0.19674   0.31205   0.77110   0.00000  Uiso   1.00
H620   H     0.21907   0.29585   0.79043   0.00000  Uiso   1.00
C621   C     0.19654   0.02143   0.77227   0.00000  Uiso   1.00
H622   H     0.21878   0.03767   0.79217   0.00000  Uiso   1.00
C623   C     0.16687   0.04292   0.74907   0.00000  Uiso   1.00
C624   C     0.13776   0.02168   0.72415   0.00000  Uiso   1.00
H625   H     0.11599   0.03851   0.70481   0.00000  Uiso   1.00
C626   C     0.13845   0.31207   0.72153   0.00000  Uiso   1.00
C627   C     0.16756   0.29047   0.74636   0.00000  Uiso   1.00
C628   C     0.30260   0.19856   0.77214   0.00000  Uiso   1.00
H629   H     0.27955   0.22437   0.79000   0.00000  Uiso   1.00
C630   C     0.01839   0.19836   0.77255   0.00000  Uiso   1.00
H631   H     0.03152   0.22398   0.79073   0.00000  Uiso   1.00
N632   N     0.04931   0.16666   0.74998   0.00000  Uiso   1.00
C633   C     0.03084   0.13497   0.72698   0.00000  Uiso   1.00
C634   C     0.31479   0.13431   0.72851   0.00000  Uiso   1.00
N635   N     0.28402   0.16669   0.74999   0.00000  Uiso   1.00
O636   O     0.29218   0.15122   0.58307   0.00000  Uiso   1.00
H637   H     0.29492   0.17622   0.60377   0.00000  Uiso   1.00
N638   N     0.11152   0.29125   0.69163   0.00000  Uiso   1.00
O639   O     0.13208   0.26248   0.65806   0.00000  Uiso   1.00
O640   O     0.06953   0.30559   0.69151   0.00000  Uiso   1.00
O641   O     0.05943   0.10292   0.70082   0.00000  Uiso   1.00
H642   H     0.09087   0.11445   0.68213   0.00000  Uiso   1.00
N643   N     0.29809   0.09881   0.70674   0.00000  Uiso   1.00
O644   O     0.30363   0.06240   0.72369   0.00000  Uiso   1.00
O645   O     0.28782   0.10149   0.66334   0.00000  Uiso   1.00
N646   N     0.03966   0.18319   0.90932   0.00000  Uiso   1.00
O647   O     0.02812   0.21848   0.89394   0.00000  Uiso   1.00
O648   O     0.02451   0.14898   0.89351   0.00000  Uiso   1.00
O649   O     0.07556   0.15722   0.56443   0.00000  Uiso   1.00
H650   H     0.09583   0.13334   0.56783   0.00000  Uiso   1.00
O651   O     0.46042   0.22678   0.75000   0.00000  Uiso   1.00
O652   O     0.53961   0.22679   0.75000   0.00000  Uiso   1.00
C653   C     0.50033   0.24577   0.74855   0.00000  Uiso   1.00
O654   O     0.44108   0.16665   0.82549   0.00000  Uiso   1.00
O655   O     0.52027   0.16666   0.82549   0.00000  Uiso   1.00
C656   C     0.47414   0.17078   0.84978   0.00000  Uiso   1.00
Cu657  Cu    0.45311   0.16666   0.75000   0.00000  Uiso   1.00
Cu658  Cu    0.54689   0.16667   0.75000   0.00000  Uiso   1.00
O659   O     0.46039   0.10654   0.74999   0.00000  Uiso   1.00
O660   O     0.53958   0.10655   0.74999   0.00000  Uiso   1.00
O661   O     0.47973   0.16667   0.67451   0.00000  Uiso   1.00
O662   O     0.55892   0.16668   0.67451   0.00000  Uiso   1.00
C663   C     0.50003   0.08755   0.74997   0.00000  Uiso   1.00
C664   C     0.52596   0.16699   0.65030   0.00000  Uiso   1.00
C665   C     0.59860   0.15856   0.50932   0.00000  Uiso   1.00
H666   H     0.61373   0.18246   0.91298   0.00000  Uiso   1.00
H667   H     0.63470   0.15155   0.98566   0.00000  Uiso   1.00
C668   C     0.54058   0.16750   0.59356   0.00000  Uiso   1.00
C669   C     0.40948   0.18150   0.93490   0.00000  Uiso   1.00
C670   C     0.39511   0.18055   0.98852   0.00000  Uiso   1.00
C671   C     0.42784   0.17178   0.51535   0.00000  Uiso   1.00
C672   C     0.47812   0.17487   0.98994   0.00000  Uiso   1.00
C673   C     0.49304   0.18084   0.93554   0.00000  Uiso   1.00
C674   C     0.51443   0.17225   0.51577   0.00000  Uiso   1.00
C675   C     0.56320   0.16865   0.98617   0.00000  Uiso   1.00
C676   C     0.57658   0.17905   0.93462   0.00000  Uiso   1.00
C677   C     0.54194   0.18903   0.91132   0.00000  Uiso   1.00
C678   C     0.50466   0.17520   0.56953   0.00000  Uiso   1.00
C679   C     0.58820   0.15867   0.56271   0.00000  Uiso   1.00
C680   C     0.45886   0.17840   0.90709   0.00000  Uiso   1.00
H681   H     0.46964   0.18548   0.59324   0.00000  Uiso   1.00
H682   H     0.35750   0.18298   0.50956   0.00000  Uiso   1.00
H683   H     0.55447   0.20370   0.87456   0.00000  Uiso   1.00
C684   C     0.53008   0.31205   0.77110   0.00000  Uiso   1.00
H685   H     0.55240   0.29585   0.79043   0.00000  Uiso   1.00
C686   C     0.52988   0.02143   0.77227   0.00000  Uiso   1.00
H687   H     0.55211   0.03767   0.79217   0.00000  Uiso   1.00
C688   C     0.50020   0.04292   0.74907   0.00000  Uiso   1.00
C689   C     0.47109   0.02168   0.72415   0.00000  Uiso   1.00
H690   H     0.44933   0.03851   0.70481   0.00000  Uiso   1.00
C691   C     0.47179   0.31207   0.72153   0.00000  Uiso   1.00
C692   C     0.50089   0.29047   0.74636   0.00000  Uiso   1.00
C693   C     0.63593   0.19856   0.77214   0.00000  Uiso   1.00
H694   H     0.61289   0.22437   0.79000   0.00000  Uiso   1.00
C695   C     0.35173   0.19836   0.77255   0.00000  Uiso   1.00
H696   H     0.36485   0.22398   0.79073   0.00000  Uiso   1.00
N697   N     0.38265   0.16666   0.74998   0.00000  Uiso   1.00
C698   C     0.36417   0.13497   0.72698   0.00000  Uiso   1.00
C699   C     0.64813   0.13431   0.72851   0.00000  Uiso   1.00
N700   N     0.61735   0.16669   0.74999   0.00000  Uiso   1.00
O701   O     0.62552   0.15122   0.58307   0.00000  Uiso   1.00
H702   H     0.62825   0.17622   0.60377   0.00000  Uiso   1.00
N703   N     0.44485   0.29125   0.69163   0.00000  Uiso   1.00
O704   O     0.46541   0.26248   0.65806   0.00000  Uiso   1.00
O705   O     0.40286   0.30559   0.69151   0.00000  Uiso   1.00
O706   O     0.39277   0.10292   0.70082   0.00000  Uiso   1.00
H707   H     0.42420   0.11445   0.68213   0.00000  Uiso   1.00
N708   N     0.63142   0.09881   0.70674   0.00000  Uiso   1.00
O709   O     0.63696   0.06240   0.72369   0.00000  Uiso   1.00
O710   O     0.62115   0.10149   0.66334   0.00000  Uiso   1.00
N711   N     0.37299   0.18319   0.90932   0.00000  Uiso   1.00
O712   O     0.36146   0.21848   0.89394   0.00000  Uiso   1.00
O713   O     0.35785   0.14898   0.89351   0.00000  Uiso   1.00
O714   O     0.40889   0.15722   0.56443   0.00000  Uiso   1.00
H715   H     0.42916   0.13334   0.56783   0.00000  Uiso   1.00
O716   O     0.79375   0.22678   0.75000   0.00000  Uiso   1.00
O717   O     0.87294   0.22679   0.75000   0.00000  Uiso   1.00
C718   C     0.83366   0.24577   0.74855   0.00000  Uiso   1.00
O719   O     0.77441   0.16665   0.82549   0.00000  Uiso   1.00
O720   O     0.85360   0.16666   0.82549   0.00000  Uiso   1.00
C721   C     0.80747   0.17078   0.84978   0.00000  Uiso   1.00
Cu722  Cu    0.78645   0.16666   0.75000   0.00000  Uiso   1.00
Cu723  Cu    0.88022   0.16667   0.75000   0.00000  Uiso   1.00
O724   O     0.79373   0.10654   0.74999   0.00000  Uiso   1.00
O725   O     0.87292   0.10655   0.74999   0.00000  Uiso   1.00
O726   O     0.81306   0.16667   0.67451   0.00000  Uiso   1.00
O727   O     0.89225   0.16668   0.67451   0.00000  Uiso   1.00
C728   C     0.83336   0.08755   0.74997   0.00000  Uiso   1.00
C729   C     0.85930   0.16699   0.65030   0.00000  Uiso   1.00
C730   C     0.93194   0.15856   0.50932   0.00000  Uiso   1.00
H731   H     0.94707   0.18246   0.91298   0.00000  Uiso   1.00
H732   H     0.96804   0.15155   0.98566   0.00000  Uiso   1.00
C733   C     0.87391   0.16750   0.59356   0.00000  Uiso   1.00
C734   C     0.74281   0.18150   0.93490   0.00000  Uiso   1.00
C735   C     0.72844   0.18055   0.98852   0.00000  Uiso   1.00
C736   C     0.76118   0.17178   0.51535   0.00000  Uiso   1.00
C737   C     0.81145   0.17487   0.98994   0.00000  Uiso   1.00
C738   C     0.82637   0.18084   0.93554   0.00000  Uiso   1.00
C739   C     0.84776   0.17225   0.51577   0.00000  Uiso   1.00
C740   C     0.89654   0.16865   0.98617   0.00000  Uiso   1.00
C741   C     0.90991   0.17905   0.93462   0.00000  Uiso   1.00
C742   C     0.87527   0.18903   0.91132   0.00000  Uiso   1.00
C743   C     0.83799   0.17520   0.56953   0.00000  Uiso   1.00
C744   C     0.92154   0.15867   0.56271   0.00000  Uiso   1.00
C745   C     0.79219   0.17840   0.90709   0.00000  Uiso   1.00
H746   H     0.80297   0.18548   0.59324   0.00000  Uiso   1.00
H747   H     0.69083   0.18298   0.50956   0.00000  Uiso   1.00
H748   H     0.88780   0.20370   0.87456   0.00000  Uiso   1.00
C749   C     0.86341   0.31205   0.77110   0.00000  Uiso   1.00
H750   H     0.88574   0.29585   0.79043   0.00000  Uiso   1.00
C751   C     0.86321   0.02143   0.77227   0.00000  Uiso   1.00
H752   H     0.88545   0.03767   0.79217   0.00000  Uiso   1.00
C753   C     0.83354   0.04292   0.74907   0.00000  Uiso   1.00
C754   C     0.80442   0.02168   0.72415   0.00000  Uiso   1.00
H755   H     0.78266   0.03851   0.70481   0.00000  Uiso   1.00
C756   C     0.80512   0.31207   0.72153   0.00000  Uiso   1.00
C757   C     0.83423   0.29047   0.74636   0.00000  Uiso   1.00
C758   C     0.96927   0.19856   0.77214   0.00000  Uiso   1.00
H759   H     0.94622   0.22437   0.79000   0.00000  Uiso   1.00
C760   C     0.68506   0.19836   0.77255   0.00000  Uiso   1.00
H761   H     0.69819   0.22398   0.79073   0.00000  Uiso   1.00
N762   N     0.71598   0.16666   0.74998   0.00000  Uiso   1.00
C763   C     0.69750   0.13497   0.72698   0.00000  Uiso   1.00
C764   C     0.98146   0.13431   0.72851   0.00000  Uiso   1.00
N765   N     0.95069   0.16669   0.74999   0.00000  Uiso   1.00
O766   O     0.95885   0.15122   0.58307   0.00000  Uiso   1.00
H767   H     0.96159   0.17622   0.60377   0.00000  Uiso   1.00
N768   N     0.77818   0.29125   0.69163   0.00000  Uiso   1.00
O769   O     0.79874   0.26248   0.65806   0.00000  Uiso   1.00
O770   O     0.73620   0.30559   0.69151   0.00000  Uiso   1.00
O771   O     0.72610   0.10292   0.70082   0.00000  Uiso   1.00
H772   H     0.75753   0.11445   0.68213   0.00000  Uiso   1.00
N773   N     0.96475   0.09881   0.70674   0.00000  Uiso   1.00
O774   O     0.97029   0.06240   0.72369   0.00000  Uiso   1.00
O775   O     0.95448   0.10149   0.66334   0.00000  Uiso   1.00
N776   N     0.70633   0.18319   0.90932   0.00000  Uiso   1.00
O777   O     0.69479   0.21848   0.89394   0.00000  Uiso   1.00
O778   O     0.69118   0.14898   0.89351   0.00000  Uiso   1.00
O779   O     0.74222   0.15722   0.56443   0.00000  Uiso   1.00
H780   H     0.76250   0.13334   0.56783   0.00000  Uiso   1.00
O781   O     0.12708   0.56011   0.75000   0.00000  Uiso   1.00
O782   O     0.20627   0.56012   0.75000   0.00000  Uiso   1.00
C783   C     0.16700   0.57910   0.74855   0.00000  Uiso   1.00
O784   O     0.10775   0.49998   0.82549   0.00000  Uiso   1.00
O785   O     0.18694   0.49999   0.82549   0.00000  Uiso   1.00
C786   C     0.14080   0.50411   0.84978   0.00000  Uiso   1.00
Cu787  Cu    0.11978   0.49999   0.75000   0.00000  Uiso   1.00
Cu788  Cu    0.21355   0.50001   0.75000   0.00000  Uiso   1.00
O789   O     0.12706   0.43988   0.74999   0.00000  Uiso   1.00
O790   O     0.20625   0.43989   0.74999   0.00000  Uiso   1.00
O791   O     0.14640   0.50001   0.67451   0.00000  Uiso   1.00
O792   O     0.22559   0.50002   0.67451   0.00000  Uiso   1.00
C793   C     0.16670   0.42089   0.74997   0.00000  Uiso   1.00
C794   C     0.19263   0.50032   0.65030   0.00000  Uiso   1.00
C795   C     0.26527   0.49190   0.50932   0.00000  Uiso   1.00
H796   H     0.28040   0.51579   0.91298   0.00000  Uiso   1.00
H797   H     0.30137   0.48488   0.98566   0.00000  Uiso   1.00
C798   C     0.20725   0.50083   0.59356   0.00000  Uiso   1.00
C799   C     0.07614   0.51483   0.93490   0.00000  Uiso   1.00
C800   C     0.06177   0.51388   0.98852   0.00000  Uiso   1.00
C801   C     0.09451   0.50511   0.51535   0.00000  Uiso   1.00
C802   C     0.14478   0.50821   0.98994   0.00000  Uiso   1.00
C803   C     0.15970   0.51418   0.93554   0.00000  Uiso   1.00
C804   C     0.18109   0.50558   0.51577   0.00000  Uiso   1.00
C805   C     0.22987   0.50198   0.98617   0.00000  Uiso   1.00
C806   C     0.24324   0.51238   0.93462   0.00000  Uiso   1.00
C807   C     0.20861   0.52237   0.91132   0.00000  Uiso   1.00
C808   C     0.17133   0.50854   0.56953   0.00000  Uiso   1.00
C809   C     0.25487   0.49200   0.56271   0.00000  Uiso   1.00
C810   C     0.12552   0.51174   0.90709   0.00000  Uiso   1.00
H811   H     0.13631   0.51882   0.59324   0.00000  Uiso   1.00
H812   H     0.02417   0.51631   0.50956   0.00000  Uiso   1.00
H813   H     0.22114   0.53703   0.87456   0.00000  Uiso   1.00
C814   C     0.19674   0.64538   0.77110   0.00000  Uiso   1.00
H815   H     0.21907   0.62919   0.79043   0.00000  Uiso   1.00
C816   C     0.19654   0.35476   0.77227   0.00000  Uiso   1.00
H817   H     0.21878   0.37100   0.79217   0.00000  Uiso   1.00
C818   C     0.16687   0.37625   0.74907   0.00000  Uiso   1.00
C819   C     0.13776   0.35502   0.72415   0.00000  Uiso   1.00
H820   H     0.11599   0.37185   0.70481   0.00000  Uiso   1.00
C821   C     0.13845   0.64540   0.72153   0.00000  Uiso   1.00
C822   C     0.16756   0.62380   0.74636   0.00000  Uiso   1.00
C823   C     0.30260   0.53190   0.77214   0.00000  Uiso   1.00
H824   H     0.27955   0.55770   0.79000   0.00000  Uiso   1.00
C825   C     0.01839   0.53170   0.77255   0.00000  Uiso   1.00
H826   H     0.03152   0.55731   0.79073   0.00000  Uiso   1.00
N827   N     0.04931   0.49999   0.74998   0.00000  Uiso   1.00
C828   C     0.03084   0.46831   0.72698   0.00000  Uiso   1.00
C829   C     0.31479   0.46765   0.72851   0.00000  Uiso   1.00
N830   N     0.28402   0.50002   0.74999   0.00000  Uiso   1.00
O831   O     0.29218   0.48456   0.58307   0.00000  Uiso   1.00
H832   H     0.29492   0.50955   0.60377   0.00000  Uiso   1.00
N833   N     0.11152   0.62459   0.69163   0.00000  Uiso   1.00
O834   O     0.13208   0.59582   0.65806   0.00000  Uiso   1.00
O835   O     0.06953   0.63892   0.69151   0.00000  Uiso   1.00
O836   O     0.05943   0.43625   0.70082   0.00000  Uiso   1.00
H837   H     0.09087   0.44778   0.68213   0.00000  Uiso   1.00
N838   N     0.29809   0.43214   0.70674   0.00000  Uiso   1.00
O839   O     0.30363   0.39573   0.72369   0.00000  Uiso   1.00
O840   O     0.28782   0.43482   0.66334   0.00000  Uiso   1.00
N841   N     0.03966   0.51653   0.90932   0.00000  Uiso   1.00
O842   O     0.02812   0.55182   0.89394   0.00000  Uiso   1.00
O843   O     0.02451   0.48231   0.89351   0.00000  Uiso   1.00
O844   O     0.07556   0.49056   0.56443   0.00000  Uiso   1.00
H845   H     0.09583   0.46667   0.56783   0.00000  Uiso   1.00
O846   O     0.46042   0.56011   0.75000   0.00000  Uiso   1.00
O847   O     0.53961   0.56012   0.75000   0.00000  Uiso   1.00
C848   C     0.50033   0.57910   0.74855   0.00000  Uiso   1.00
O849   O     0.44108   0.49998   0.82549   0.00000  Uiso   1.00
O850   O     0.52027   0.49999   0.82549   0.00000  Uiso   1.00
C851   C     0.47414   0.50411   0.84978   0.00000  Uiso   1.00
Cu852  Cu    0.45311   0.49999   0.75000   0.00000  Uiso   1.00
Cu853  Cu    0.54689   0.50001   0.75000   0.00000  Uiso   1.00
O854   O     0.46039   0.43988   0.74999   0.00000  Uiso   1.00
O855   O     0.53958   0.43989   0.74999   0.00000  Uiso   1.00
O856   O     0.47973   0.50001   0.67451   0.00000  Uiso   1.00
O857   O     0.55892   0.50002   0.67451   0.00000  Uiso   1.00
C858   C     0.50003   0.42089   0.74997   0.00000  Uiso   1.00
C859   C     0.52596   0.50032   0.65030   0.00000  Uiso   1.00
C860   C     0.59860   0.49190   0.50932   0.00000  Uiso   1.00
H861   H     0.61373   0.51579   0.91298   0.00000  Uiso   1.00
H862   H     0.63470   0.48488   0.98566   0.00000  Uiso   1.00
C863   C     0.54058   0.50083   0.59356   0.00000  Uiso   1.00
C864   C     0.40948   0.51483   0.93490   0.00000  Uiso   1.00
C865   C     0.39511   0.51388   0.98852   0.00000  Uiso   1.00
C866   C     0.42784   0.50511   0.51535   0.00000  Uiso   1.00
C867   C     0.47812   0.50821   0.98994   0.00000  Uiso   1.00
C868   C     0.49304   0.51418   0.93554   0.00000  Uiso   1.00
C869   C     0.51443   0.50558   0.51577   0.00000  Uiso   1.00
C870   C     0.56320   0.50198   0.98617   0.00000  Uiso   1.00
C871   C     0.57658   0.51238   0.93462   0.00000  Uiso   1.00
C872   C     0.54194   0.52237   0.91132   0.00000  Uiso   1.00
C873   C     0.50466   0.50854   0.56953   0.00000  Uiso   1.00
C874   C     0.58820   0.49200   0.56271   0.00000  Uiso   1.00
C875   C     0.45886   0.51174   0.90709   0.00000  Uiso   1.00
H876   H     0.46964   0.51882   0.59324   0.00000  Uiso   1.00
H877   H     0.35750   0.51631   0.50956   0.00000  Uiso   1.00
H878   H     0.55447   0.53703   0.87456   0.00000  Uiso   1.00
C879   C     0.53008   0.64538   0.77110   0.00000  Uiso   1.00
H880   H     0.55240   0.62919   0.79043   0.00000  Uiso   1.00
C881   C     0.52988   0.35476   0.77227   0.00000  Uiso   1.00
H882   H     0.55211   0.37100   0.79217   0.00000  Uiso   1.00
C883   C     0.50020   0.37625   0.74907   0.00000  Uiso   1.00
C884   C     0.47109   0.35502   0.72415   0.00000  Uiso   1.00
H885   H     0.44933   0.37185   0.70481   0.00000  Uiso   1.00
C886   C     0.47179   0.64540   0.72153   0.00000  Uiso   1.00
C887   C     0.50089   0.62380   0.74636   0.00000  Uiso   1.00
C888   C     0.63593   0.53190   0.77214   0.00000  Uiso   1.00
H889   H     0.61289   0.55770   0.79000   0.00000  Uiso   1.00
C890   C     0.35173   0.53170   0.77255   0.00000  Uiso   1.00
H891   H     0.36485   0.55731   0.79073   0.00000  Uiso   1.00
N892   N     0.38265   0.49999   0.74998   0.00000  Uiso   1.00
C893   C     0.36417   0.46831   0.72698   0.00000  Uiso   1.00
C894   C     0.64813   0.46765   0.72851   0.00000  Uiso   1.00
N895   N     0.61735   0.50002   0.74999   0.00000  Uiso   1.00
O896   O     0.62552   0.48456   0.58307   0.00000  Uiso   1.00
H897   H     0.62825   0.50955   0.60377   0.00000  Uiso   1.00
N898   N     0.44485   0.62459   0.69163   0.00000  Uiso   1.00
O899   O     0.46541   0.59582   0.65806   0.00000  Uiso   1.00
O900   O     0.40286   0.63892   0.69151   0.00000  Uiso   1.00
O901   O     0.39277   0.43625   0.70082   0.00000  Uiso   1.00
H902   H     0.42420   0.44778   0.68213   0.00000  Uiso   1.00
N903   N     0.63142   0.43214   0.70674   0.00000  Uiso   1.00
O904   O     0.63696   0.39573   0.72369   0.00000  Uiso   1.00
O905   O     0.62115   0.43482   0.66334   0.00000  Uiso   1.00
N906   N     0.37299   0.51653   0.90932   0.00000  Uiso   1.00
O907   O     0.36146   0.55182   0.89394   0.00000  Uiso   1.00
O908   O     0.35785   0.48231   0.89351   0.00000  Uiso   1.00
O909   O     0.40889   0.49056   0.56443   0.00000  Uiso   1.00
H910   H     0.42916   0.46667   0.56783   0.00000  Uiso   1.00
O911   O     0.79375   0.56011   0.75000   0.00000  Uiso   1.00
O912   O     0.87294   0.56012   0.75000   0.00000  Uiso   1.00
C913   C     0.83366   0.57910   0.74855   0.00000  Uiso   1.00
O914   O     0.77441   0.49998   0.82549   0.00000  Uiso   1.00
O915   O     0.85360   0.49999   0.82549   0.00000  Uiso   1.00
C916   C     0.80747   0.50411   0.84978   0.00000  Uiso   1.00
Cu917  Cu    0.78645   0.49999   0.75000   0.00000  Uiso   1.00
Cu918  Cu    0.88022   0.50001   0.75000   0.00000  Uiso   1.00
O919   O     0.79373   0.43988   0.74999   0.00000  Uiso   1.00
O920   O     0.87292   0.43989   0.74999   0.00000  Uiso   1.00
O921   O     0.81306   0.50001   0.67451   0.00000  Uiso   1.00
O922   O     0.89225   0.50002   0.67451   0.00000  Uiso   1.00
C923   C     0.83336   0.42089   0.74997   0.00000  Uiso   1.00
C924   C     0.85930   0.50032   0.65030   0.00000  Uiso   1.00
C925   C     0.93194   0.49190   0.50932   0.00000  Uiso   1.00
H926   H     0.94707   0.51579   0.91298   0.00000  Uiso   1.00
H927   H     0.96804   0.48488   0.98566   0.00000  Uiso   1.00
C928   C     0.87391   0.50083   0.59356   0.00000  Uiso   1.00
C929   C     0.74281   0.51483   0.93490   0.00000  Uiso   1.00
C930   C     0.72844   0.51388   0.98852   0.00000  Uiso   1.00
C931   C     0.76118   0.50511   0.51535   0.00000  Uiso   1.00
C932   C     0.81145   0.50821   0.98994   0.00000  Uiso   1.00
C933   C     0.82637   0.51418   0.93554   0.00000  Uiso   1.00
C934   C     0.84776   0.50558   0.51577   0.00000  Uiso   1.00
C935   C     0.89654   0.50198   0.98617   0.00000  Uiso   1.00
C936   C     0.90991   0.51238   0.93462   0.00000  Uiso   1.00
C937   C     0.87527   0.52237   0.91132   0.00000  Uiso   1.00
C938   C     0.83799   0.50854   0.56953   0.00000  Uiso   1.00
C939   C     0.92154   0.49200   0.56271   0.00000  Uiso   1.00
C940   C     0.79219   0.51174   0.90709   0.00000  Uiso   1.00
H941   H     0.80297   0.51882   0.59324   0.00000  Uiso   1.00
H942   H     0.69083   0.51631   0.50956   0.00000  Uiso   1.00
H943   H     0.88780   0.53703   0.87456   0.00000  Uiso   1.00
C944   C     0.86341   0.64538   0.77110   0.00000  Uiso   1.00
H945   H     0.88574   0.62919   0.79043   0.00000  Uiso   1.00
C946   C     0.86321   0.35476   0.77227   0.00000  Uiso   1.00
H947   H     0.88545   0.37100   0.79217   0.00000  Uiso   1.00
C948   C     0.83354   0.37625   0.74907   0.00000  Uiso   1.00
C949   C     0.80442   0.35502   0.72415   0.00000  Uiso   1.00
H950   H     0.78266   0.37185   0.70481   0.00000  Uiso   1.00
C951   C     0.80512   0.64540   0.72153   0.00000  Uiso   1.00
C952   C     0.83423   0.62380   0.74636   0.00000  Uiso   1.00
C953   C     0.96927   0.53190   0.77214   0.00000  Uiso   1.00
H954   H     0.94622   0.55770   0.79000   0.00000  Uiso   1.00
C955   C     0.68506   0.53170   0.77255   0.00000  Uiso   1.00
H956   H     0.69819   0.55731   0.79073   0.00000  Uiso   1.00
N957   N     0.71598   0.49999   0.74998   0.00000  Uiso   1.00
C958   C     0.69750   0.46831   0.72698   0.00000  Uiso   1.00
C959   C     0.98146   0.46765   0.72851   0.00000  Uiso   1.00
N960   N     0.95069   0.50002   0.74999   0.00000  Uiso   1.00
O961   O     0.95885   0.48456   0.58307   0.00000  Uiso   1.00
H962   H     0.96159   0.50955   0.60377   0.00000  Uiso   1.00
N963   N     0.77818   0.62459   0.69163   0.00000  Uiso   1.00
O964   O     0.79874   0.59582   0.65806   0.00000  Uiso   1.00
O965   O     0.73620   0.63892   0.69151   0.00000  Uiso   1.00
O966   O     0.72610   0.43625   0.70082   0.00000  Uiso   1.00
H967   H     0.75753   0.44778   0.68213   0.00000  Uiso   1.00
N968   N     0.96475   0.43214   0.70674   0.00000  Uiso   1.00
O969   O     0.97029   0.39573   0.72369   0.00000  Uiso   1.00
O970   O     0.95448   0.43482   0.66334   0.00000  Uiso   1.00
N971   N     0.70633   0.51653   0.90932   0.00000  Uiso   1.00
O972   O     0.69479   0.55182   0.89394   0.00000  Uiso   1.00
O973   O     0.69118   0.48231   0.89351   0.00000  Uiso   1.00
O974   O     0.74222   0.49056   0.56443   0.00000  Uiso   1.00
H975   H     0.76250   0.46667   0.56783   0.00000  Uiso   1.00
O976   O     0.12708   0.89345   0.75000   0.00000  Uiso   1.00
O977   O     0.20627   0.89346   0.75000   0.00000  Uiso   1.00
C978   C     0.16700   0.91243   0.74855   0.00000  Uiso   1.00
O979   O     0.10775   0.83332   0.82549   0.00000  Uiso   1.00
O980   O     0.18694   0.83333   0.82549   0.00000  Uiso   1.00
C981   C     0.14080   0.83745   0.84978   0.00000  Uiso   1.00
Cu982  Cu    0.11978   0.83333   0.75000   0.00000  Uiso   1.00
Cu983  Cu    0.21355   0.83334   0.75000   0.00000  Uiso   1.00
O984   O     0.12706   0.77321   0.74999   0.00000  Uiso   1.00
O985   O     0.20625   0.77322   0.74999   0.00000  Uiso   1.00
O986   O     0.14640   0.83334   0.67451   0.00000  Uiso   1.00
O987   O     0.22559   0.83335   0.67451   0.00000  Uiso   1.00
C988   C     0.16670   0.75422   0.74997   0.00000  Uiso   1.00
C989   C     0.19263   0.83366   0.65030   0.00000  Uiso   1.00
C990   C     0.26527   0.82523   0.50932   0.00000  Uiso   1.00
H991   H     0.28040   0.84912   0.91298   0.00000  Uiso   1.00
H992   H     0.30137   0.81822   0.98566   0.00000  Uiso   1.00
C993   C     0.20725   0.83417   0.59356   0.00000  Uiso   1.00
C994   C     0.07614   0.84816   0.93490   0.00000  Uiso   1.00
C995   C     0.06177   0.84721   0.98852   0.00000  Uiso   1.00
C996   C     0.09451   0.83845   0.51535   0.00000  Uiso   1.00
C997   C     0.14478   0.84154   0.98994   0.00000  Uiso   1.00
C998   C     0.15970   0.84751   0.93554   0.00000  Uiso   1.00
C999   C     0.18109   0.83891   0.51577   0.00000  Uiso   1.00
C1000  C     0.22987   0.83532   0.98617   0.00000  Uiso   1.00
C1001  C     0.24324   0.84572   0.93462   0.00000  Uiso   1.00
C1002  C     0.20861   0.85570   0.91132   0.00000  Uiso   1.00
C1003  C     0.17133   0.84187   0.56953   0.00000  Uiso   1.00
C1004  C     0.25487   0.82533   0.56271   0.00000  Uiso   1.00
C1005  C     0.12552   0.84507   0.90709   0.00000  Uiso   1.00
H1006  H     0.13631   0.85215   0.59324   0.00000  Uiso   1.00
H1007  H     0.02417   0.84965   0.50956   0.00000  Uiso   1.00
H1008  H     0.22114   0.87037   0.87456   0.00000  Uiso   1.00
C1009  C     0.19674   0.97871   0.77110   0.00000  Uiso   1.00
H1010  H     0.21907   0.96252   0.79043   0.00000  Uiso   1.00
C1011  C     0.19654   0.68810   0.77227   0.00000  Uiso   1.00
H1012  H     0.21878   0.70433   0.79217   0.00000  Uiso   1.00
C1013  C     0.16687   0.70958   0.74907   0.00000  Uiso   1.00
C1014  C     0.13776   0.68835   0.72415   0.00000  Uiso   1.00
H1015  H     0.11599   0.70518   0.70481   0.00000  Uiso   1.00
C1016  C     0.13845   0.97874   0.72153   0.00000  Uiso   1.00
C1017  C     0.16756   0.95713   0.74636   0.00000  Uiso   1.00
C1018  C     0.30260   0.86523   0.77214   0.00000  Uiso   1.00
H1019  H     0.27955   0.89103   0.79000   0.00000  Uiso   1.00
C1020  C     0.01839   0.86503   0.77255   0.00000  Uiso   1.00
H1021  H     0.03152   0.89065   0.79073   0.00000  Uiso   1.00
N1022  N     0.04931   0.83332   0.74998   0.00000  Uiso   1.00
C1023  C     0.03084   0.80164   0.72698   0.00000  Uiso   1.00
C1024  C     0.31479   0.80098   0.72851   0.00000  Uiso   1.00
N1025  N     0.28402   0.83335   0.74999   0.00000  Uiso   1.00
O1026  O     0.29218   0.81789   0.58307   0.00000  Uiso   1.00
H1027  H     0.29492   0.84289   0.60377   0.00000  Uiso   1.00
N1028  N     0.11152   0.95792   0.69163   0.00000  Uiso   1.00
O1029  O     0.13208   0.92915   0.65806   0.00000  Uiso   1.00
O1030  O     0.06953   0.97225   0.69151   0.00000  Uiso   1.00
O1031  O     0.05943   0.76959   0.70082   0.00000  Uiso   1.00
H1032  H     0.09087   0.78112   0.68213   0.00000  Uiso   1.00
N1033  N     0.29809   0.76548   0.70674   0.00000  Uiso   1.00
O1034  O     0.30363   0.72906   0.72369   0.00000  Uiso   1.00
O1035  O     0.28782   0.76815   0.66334   0.00000  Uiso   1.00
N1036  N     0.03966   0.84986   0.90932   0.00000  Uiso   1.00
O1037  O     0.02812   0.88515   0.89394   0.00000  Uiso   1.00
O1038  O     0.02451   0.81565   0.89351   0.00000  Uiso   1.00
O1039  O     0.07556   0.82389   0.56443   0.00000  Uiso   1.00
H1040  H     0.09583   0.80001   0.56783   0.00000  Uiso   1.00
O1041  O     0.46042   0.89345   0.75000   0.00000  Uiso   1.00
O1042  O     0.53961   0.89346   0.75000   0.00000  Uiso   1.00
C1043  C     0.50033   0.91243   0.74855   0.00000  Uiso   1.00
O1044  O     0.44108   0.83332   0.82549   0.00000  Uiso   1.00
O1045  O     0.52027   0.83333   0.82549   0.00000  Uiso   1.00
C1046  C     0.47414   0.83745   0.84978   0.00000  Uiso   1.00
Cu1047 Cu    0.45311   0.83333   0.75000   0.00000  Uiso   1.00
Cu1048 Cu    0.54689   0.83334   0.75000   0.00000  Uiso   1.00
O1049  O     0.46039   0.77321   0.74999   0.00000  Uiso   1.00
O1050  O     0.53958   0.77322   0.74999   0.00000  Uiso   1.00
O1051  O     0.47973   0.83334   0.67451   0.00000  Uiso   1.00
O1052  O     0.55892   0.83335   0.67451   0.00000  Uiso   1.00
C1053  C     0.50003   0.75422   0.74997   0.00000  Uiso   1.00
C1054  C     0.52596   0.83366   0.65030   0.00000  Uiso   1.00
C1055  C     0.59860   0.82523   0.50932   0.00000  Uiso   1.00
H1056  H     0.61373   0.84912   0.91298   0.00000  Uiso   1.00
H1057  H     0.63470   0.81822   0.98566   0.00000  Uiso   1.00
C1058  C     0.54058   0.83417   0.59356   0.00000  Uiso   1.00
C1059  C     0.40948   0.84816   0.93490   0.00000  Uiso   1.00
C1060  C     0.39511   0.84721   0.98852   0.00000  Uiso   1.00
C1061  C     0.42784   0.83845   0.51535   0.00000  Uiso   1.00
C1062  C     0.47812   0.84154   0.98994   0.00000  Uiso   1.00
C1063  C     0.49304   0.84751   0.93554   0.00000  Uiso   1.00
C1064  C     0.51443   0.83891   0.51577   0.00000  Uiso   1.00
C1065  C     0.56320   0.83532   0.98617   0.00000  Uiso   1.00
C1066  C     0.57658   0.84572   0.93462   0.00000  Uiso   1.00
C1067  C     0.54194   0.85570   0.91132   0.00000  Uiso   1.00
C1068  C     0.50466   0.84187   0.56953   0.00000  Uiso   1.00
C1069  C     0.58820   0.82533   0.56271   0.00000  Uiso   1.00
C1070  C     0.45886   0.84507   0.90709   0.00000  Uiso   1.00
H1071  H     0.46964   0.85215   0.59324   0.00000  Uiso   1.00
H1072  H     0.35750   0.84965   0.50956   0.00000  Uiso   1.00
H1073  H     0.55447   0.87037   0.87456   0.00000  Uiso   1.00
C1074  C     0.53008   0.97871   0.77110   0.00000  Uiso   1.00
H1075  H     0.55240   0.96252   0.79043   0.00000  Uiso   1.00
C1076  C     0.52988   0.68810   0.77227   0.00000  Uiso   1.00
H1077  H     0.55211   0.70433   0.79217   0.00000  Uiso   1.00
C1078  C     0.50020   0.70958   0.74907   0.00000  Uiso   1.00
C1079  C     0.47109   0.68835   0.72415   0.00000  Uiso   1.00
H1080  H     0.44933   0.70518   0.70481   0.00000  Uiso   1.00
C1081  C     0.47179   0.97874   0.72153   0.00000  Uiso   1.00
C1082  C     0.50089   0.95713   0.74636   0.00000  Uiso   1.00
C1083  C     0.63593   0.86523   0.77214   0.00000  Uiso   1.00
H1084  H     0.61289   0.89103   0.79000   0.00000  Uiso   1.00
C1085  C     0.35173   0.86503   0.77255   0.00000  Uiso   1.00
H1086  H     0.36485   0.89065   0.79073   0.00000  Uiso   1.00
N1087  N     0.38265   0.83332   0.74998   0.00000  Uiso   1.00
C1088  C     0.36417   0.80164   0.72698   0.00000  Uiso   1.00
C1089  C     0.64813   0.80098   0.72851   0.00000  Uiso   1.00
N1090  N     0.61735   0.83335   0.74999   0.00000  Uiso   1.00
O1091  O     0.62552   0.81789   0.58307   0.00000  Uiso   1.00
H1092  H     0.62825   0.84289   0.60377   0.00000  Uiso   1.00
N1093  N     0.44485   0.95792   0.69163   0.00000  Uiso   1.00
O1094  O     0.46541   0.92915   0.65806   0.00000  Uiso   1.00
O1095  O     0.40286   0.97225   0.69151   0.00000  Uiso   1.00
O1096  O     0.39277   0.76959   0.70082   0.00000  Uiso   1.00
H1097  H     0.42420   0.78112   0.68213   0.00000  Uiso   1.00
N1098  N     0.63142   0.76548   0.70674   0.00000  Uiso   1.00
O1099  O     0.63696   0.72906   0.72369   0.00000  Uiso   1.00
O1100  O     0.62115   0.76815   0.66334   0.00000  Uiso   1.00
N1101  N     0.37299   0.84986   0.90932   0.00000  Uiso   1.00
O1102  O     0.36146   0.88515   0.89394   0.00000  Uiso   1.00
O1103  O     0.35785   0.81565   0.89351   0.00000  Uiso   1.00
O1104  O     0.40889   0.82389   0.56443   0.00000  Uiso   1.00
H1105  H     0.42916   0.80001   0.56783   0.00000  Uiso   1.00
O1106  O     0.79375   0.89345   0.75000   0.00000  Uiso   1.00
O1107  O     0.87294   0.89346   0.75000   0.00000  Uiso   1.00
C1108  C     0.83366   0.91243   0.74855   0.00000  Uiso   1.00
O1109  O     0.77441   0.83332   0.82549   0.00000  Uiso   1.00
O1110  O     0.85360   0.83333   0.82549   0.00000  Uiso   1.00
C1111  C     0.80747   0.83745   0.84978   0.00000  Uiso   1.00
Cu1112 Cu    0.78645   0.83333   0.75000   0.00000  Uiso   1.00
Cu1113 Cu    0.88022   0.83334   0.75000   0.00000  Uiso   1.00
O1114  O     0.79373   0.77321   0.74999   0.00000  Uiso   1.00
O1115  O     0.87292   0.77322   0.74999   0.00000  Uiso   1.00
O1116  O     0.81306   0.83334   0.67451   0.00000  Uiso   1.00
O1117  O     0.89225   0.83335   0.67451   0.00000  Uiso   1.00
C1118  C     0.83336   0.75422   0.74997   0.00000  Uiso   1.00
C1119  C     0.85930   0.83366   0.65030   0.00000  Uiso   1.00
C1120  C     0.93194   0.82523   0.50932   0.00000  Uiso   1.00
H1121  H     0.94707   0.84912   0.91298   0.00000  Uiso   1.00
H1122  H     0.96804   0.81822   0.98566   0.00000  Uiso   1.00
C1123  C     0.87391   0.83417   0.59356   0.00000  Uiso   1.00
C1124  C     0.74281   0.84816   0.93490   0.00000  Uiso   1.00
C1125  C     0.72844   0.84721   0.98852   0.00000  Uiso   1.00
C1126  C     0.76118   0.83845   0.51535   0.00000  Uiso   1.00
C1127  C     0.81145   0.84154   0.98994   0.00000  Uiso   1.00
C1128  C     0.82637   0.84751   0.93554   0.00000  Uiso   1.00
C1129  C     0.84776   0.83891   0.51577   0.00000  Uiso   1.00
C1130  C     0.89654   0.83532   0.98617   0.00000  Uiso   1.00
C1131  C     0.90991   0.84572   0.93462   0.00000  Uiso   1.00
C1132  C     0.87527   0.85570   0.91132   0.00000  Uiso   1.00
C1133  C     0.83799   0.84187   0.56953   0.00000  Uiso   1.00
C1134  C     0.92154   0.82533   0.56271   0.00000  Uiso   1.00
C1135  C     0.79219   0.84507   0.90709   0.00000  Uiso   1.00
H1136  H     0.80297   0.85215   0.59324   0.00000  Uiso   1.00
H1137  H     0.69083   0.84965   0.50956   0.00000  Uiso   1.00
H1138  H     0.88780   0.87037   0.87456   0.00000  Uiso   1.00
C1139  C     0.86341   0.97871   0.77110   0.00000  Uiso   1.00
H1140  H     0.88574   0.96252   0.79043   0.00000  Uiso   1.00
C1141  C     0.86321   0.68810   0.77227   0.00000  Uiso   1.00
H1142  H     0.88545   0.70433   0.79217   0.00000  Uiso   1.00
C1143  C     0.83354   0.70958   0.74907   0.00000  Uiso   1.00
C1144  C     0.80442   0.68835   0.72415   0.00000  Uiso   1.00
H1145  H     0.78266   0.70518   0.70481   0.00000  Uiso   1.00
C1146  C     0.80512   0.97874   0.72153   0.00000  Uiso   1.00
C1147  C     0.83423   0.95713   0.74636   0.00000  Uiso   1.00
C1148  C     0.96927   0.86523   0.77214   0.00000  Uiso   1.00
H1149  H     0.94622   0.89103   0.79000   0.00000  Uiso   1.00
C1150  C     0.68506   0.86503   0.77255   0.00000  Uiso   1.00
H1151  H     0.69819   0.89065   0.79073   0.00000  Uiso   1.00
N1152  N     0.71598   0.83332   0.74998   0.00000  Uiso   1.00
C1153  C     0.69750   0.80164   0.72698   0.00000  Uiso   1.00
C1154  C     0.98146   0.80098   0.72851   0.00000  Uiso   1.00
N1155  N     0.95069   0.83335   0.74999   0.00000  Uiso   1.00
O1156  O     0.95885   0.81789   0.58307   0.00000  Uiso   1.00
H1157  H     0.96159   0.84289   0.60377   0.00000  Uiso   1.00
N1158  N     0.77818   0.95792   0.69163   0.00000  Uiso   1.00
O1159  O     0.79874   0.92915   0.65806   0.00000  Uiso   1.00
O1160  O     0.73620   0.97225   0.69151   0.00000  Uiso   1.00
O1161  O     0.72610   0.76959   0.70082   0.00000  Uiso   1.00
H1162  H     0.75753   0.78112   0.68213   0.00000  Uiso   1.00
N1163  N     0.96475   0.76548   0.70674   0.00000  Uiso   1.00
O1164  O     0.97029   0.72906   0.72369   0.00000  Uiso   1.00
O1165  O     0.95448   0.76815   0.66334   0.00000  Uiso   1.00
N1166  N     0.70633   0.84986   0.90932   0.00000  Uiso   1.00
O1167  O     0.69479   0.88515   0.89394   0.00000  Uiso   1.00
O1168  O     0.69118   0.81565   0.89351   0.00000  Uiso   1.00
O1169  O     0.74222   0.82389   0.56443   0.00000  Uiso   1.00
H1170  H     0.76250   0.80001   0.56783   0.00000  Uiso   1.00
loop_
_geom_bond_atom_site_label_1
_geom_bond_atom_site_label_2
_geom_bond_distance
_geom_bond_site_symmetry_2
_ccdc_geom_bond_type
O1     Cu7     1.959   .     S
O1     C3      1.302   .     A
O2     C3      1.303   .     A
O2     Cu8     1.958   .     S
C3     C42     1.450   .     S
O4     Cu7     1.971   .     S
O4     C6      1.316   .     A
O5     Cu8     1.963   .     S
O5     C6      1.311   .     A
C6     C30     1.499   .     S
Cu7    O9      1.958   .     S
Cu7    Cu8     2.716   .     S
Cu7    O11     1.963   .     S
Cu7    N47     2.041   .     S
Cu8    O12     1.971   .     S
Cu8    N50     2.041   .     S
Cu8    O10     1.959   .     S
O9     C13     1.301   .     A
O10    C13     1.302   .     A
O11    C14     1.309   .     A
O12    C14     1.306   .     A
C13    C38     1.445   .     S
C14    C18     1.470   .     S
C15    C29     1.388   .     A
C15    H602    1.076   1_554 S
C15    C610    1.390   1_554 S
H16    C26     1.072   .     S
H17    C600    1.076   .     S
C18    C28     1.403   .     A
C18    C29     1.414   .     A
C19    C20     1.390   .     A
C19    C30     1.411   .     A
C19    N61     1.424   .     S
C20    C606    1.384   .     S
C20    H617    1.074   .     S
C21    O64     1.376   .     S
C21    C605    1.384   1_554 S
C21    C607    1.423   1_554 S
C22    C23     1.427   .     A
C22    C606    1.423   .     S
C22    C609    1.426   .     S
C23    C27     1.406   .     A
C23    C30     1.422   .     A
C24    C28     1.401   .     A
C24    C607    1.426   1_554 S
C24    C610    1.410   1_554 S
C25    C26     1.385   .     A
C25    C600    1.390   .     S
C25    C609    1.410   .     S
C26    C27     1.373   .     A
C27    H33     1.077   .     S
C28    H31     1.078   .     S
C29    O51     1.372   .     S
H32    C605    1.074   1_554 S
C34    C42     1.402   .     A
C34    H35     1.084   .     S
C34    C231    1.383   .     S
C36    C38     1.396   .     A
C36    H37     1.083   .     S
C36    C424    1.383   1_545 S
C38    C39     1.398   .     A
C39    H40     1.082   .     S
C39    C431    1.391   1_545 S
C41    C42     1.414   .     A
C41    N53     1.438   .     S
C41    C234    1.391   .     S
C43    H44     1.081   .     S
C43    N50     1.371   .     A
C43    C110    1.426   .     S
C45    N47     1.370   .     A
C45    H46     1.081   .     S
C45    C173    1.426   1_455 S
N47    C48     1.377   .     A
C48    O56     1.374   .     S
C48    C179    1.419   1_455 S
C49    N50     1.378   .     A
C49    N58     1.430   .     S
C49    C113    1.419   .     S
O51    H52     0.991   .     S
N53    O54     1.301   .     A
N53    O55     1.301   .     A
O56    H57     0.983   .     S
N58    O60     1.298   .     A
N58    O59     1.301   .     A
N61    O63     1.302   .     A
N61    O62     1.301   .     A
O64    H65     0.992   .     S
O66    Cu72    1.959   .     S
O66    C68     1.302   .     A
O67    C68     1.303   .     A
O67    Cu73    1.958   .     S
C68    C107    1.450   .     S
O69    Cu72    1.971   .     S
O69    C71     1.316   .     A
O70    Cu73    1.963   .     S
O70    C71     1.311   .     A
C71    C95     1.499   .     S
Cu72   O74     1.958   .     S
Cu72   Cu73    2.716   .     S
Cu72   O76     1.963   .     S
Cu72   N112    2.041   .     S
Cu73   O77     1.971   .     S
Cu73   N115    2.041   .     S
Cu73   O75     1.959   .     S
O74    C78     1.301   .     A
O75    C78     1.302   .     A
O76    C79     1.309   .     A
O77    C79     1.306   .     A
C78    C103    1.445   .     S
C79    C83     1.470   .     S
C80    C94     1.388   .     A
C80    H667    1.076   1_554 S
C80    C675    1.390   1_554 S
H81    C91     1.072   .     S
H82    C665    1.076   .     S
C83    C93     1.403   .     A
C83    C94     1.414   .     A
C84    C85     1.390   .     A
C84    C95     1.411   .     A
C84    N126    1.424   .     S
C85    C671    1.384   .     S
C85    H682    1.074   .     S
C86    O129    1.376   .     S
C86    C670    1.384   1_554 S
C86    C672    1.423   1_554 S
C87    C88     1.427   .     A
C87    C671    1.423   .     S
C87    C674    1.426   .     S
C88    C92     1.406   .     A
C88    C95     1.422   .     A
C89    C93     1.401   .     A
C89    C672    1.426   1_554 S
C89    C675    1.410   1_554 S
C90    C91     1.385   .     A
C90    C665    1.390   .     S
C90    C674    1.410   .     S
C91    C92     1.373   .     A
C92    H98     1.077   .     S
C93    H96     1.078   .     S
C94    O116    1.372   .     S
H97    C670    1.074   1_554 S
C99    C107    1.402   .     A
C99    H100    1.084   .     S
C99    C296    1.383   .     S
C101   C103    1.396   .     A
C101   H102    1.083   .     S
C101   C489    1.383   1_545 S
C103   C104    1.398   .     A
C104   H105    1.082   .     S
C104   C496    1.391   1_545 S
C106   C107    1.414   .     A
C106   N118    1.438   .     S
C106   C299    1.391   .     S
C108   H109    1.081   .     S
C108   N115    1.371   .     A
C108   C175    1.426   .     S
C110   N112    1.370   .     A
C110   H111    1.081   .     S
N112   C113    1.377   .     A
C113   O121    1.374   .     S
C114   N115    1.378   .     A
C114   N123    1.430   .     S
C114   C178    1.419   .     S
O116   H117    0.991   .     S
N118   O119    1.301   .     A
N118   O120    1.301   .     A
O121   H122    0.983   .     S
N123   O125    1.298   .     A
N123   O124    1.301   .     A
N126   O128    1.302   .     A
N126   O127    1.301   .     A
O129   H130    0.992   .     S
O131   Cu137   1.959   .     S
O131   C133    1.302   .     A
O132   C133    1.303   .     A
O132   Cu138   1.958   .     S
C133   C172    1.450   .     S
O134   Cu137   1.971   .     S
O134   C136    1.316   .     A
O135   Cu138   1.963   .     S
O135   C136    1.311   .     A
C136   C160    1.499   .     S
Cu137  O139    1.958   .     S
Cu137  Cu138   2.716   .     S
Cu137  O141    1.963   .     S
Cu137  N177    2.041   .     S
Cu138  O142    1.971   .     S
Cu138  N180    2.041   .     S
Cu138  O140    1.959   .     S
O139   C143    1.301   .     A
O140   C143    1.302   .     A
O141   C144    1.309   .     A
O142   C144    1.306   .     A
C143   C168    1.445   .     S
C144   C148    1.470   .     S
C145   C159    1.388   .     A
C145   H732    1.076   1_554 S
C145   C740    1.390   1_554 S
H146   C156    1.072   .     S
H147   C730    1.076   .     S
C148   C158    1.403   .     A
C148   C159    1.414   .     A
C149   C150    1.390   .     A
C149   C160    1.411   .     A
C149   N191    1.424   .     S
C150   C736    1.384   .     S
C150   H747    1.074   .     S
C151   O194    1.376   .     S
C151   C735    1.384   1_554 S
C151   C737    1.423   1_554 S
C152   C153    1.427   .     A
C152   C736    1.423   .     S
C152   C739    1.426   .     S
C153   C157    1.406   .     A
C153   C160    1.422   .     A
C154   C158    1.401   .     A
C154   C737    1.426   1_554 S
C154   C740    1.410   1_554 S
C155   C156    1.385   .     A
C155   C730    1.390   .     S
C155   C739    1.410   .     S
C156   C157    1.373   .     A
C157   H163    1.077   .     S
C158   H161    1.078   .     S
C159   O181    1.372   .     S
H162   C735    1.074   1_554 S
C164   C172    1.402   .     A
C164   H165    1.084   .     S
C164   C361    1.383   .     S
C166   C168    1.396   .     A
C166   H167    1.083   .     S
C166   C554    1.383   1_545 S
C168   C169    1.398   .     A
C169   H170    1.082   .     S
C169   C561    1.391   1_545 S
C171   C172    1.414   .     A
C171   N183    1.438   .     S
C171   C364    1.391   .     S
C173   H174    1.081   .     S
C173   N180    1.371   .     A
C173   C45     1.426   1_655 S
C175   N177    1.370   .     A
C175   H176    1.081   .     S
N177   C178    1.377   .     A
C178   O186    1.374   .     S
C179   N180    1.378   .     A
C179   N188    1.430   .     S
C179   C48     1.419   1_655 S
O181   H182    0.991   .     S
N183   O184    1.301   .     A
N183   O185    1.301   .     A
O186   H187    0.983   .     S
N188   O190    1.298   .     A
N188   O189    1.301   .     A
N191   O193    1.302   .     A
N191   O192    1.301   .     A
O194   H195    0.992   .     S
O196   Cu202   1.959   .     S
O196   C198    1.302   .     A
O197   C198    1.303   .     A
O197   Cu203   1.958   .     S
C198   C237    1.450   .     S
O199   Cu202   1.971   .     S
O199   C201    1.316   .     A
O200   Cu203   1.963   .     S
O200   C201    1.311   .     A
C201   C225    1.499   .     S
Cu202  O204    1.958   .     S
Cu202  Cu203   2.716   .     S
Cu202  O206    1.963   .     S
Cu202  N242    2.041   .     S
Cu203  O207    1.971   .     S
Cu203  N245    2.041   .     S
Cu203  O205    1.959   .     S
O204   C208    1.301   .     A
O205   C208    1.302   .     A
O206   C209    1.309   .     A
O207   C209    1.306   .     A
C208   C233    1.445   .     S
C209   C213    1.470   .     S
C210   C224    1.388   .     A
C210   H797    1.076   1_554 S
C210   C805    1.390   1_554 S
H211   C221    1.072   .     S
H212   C795    1.076   .     S
C213   C223    1.403   .     A
C213   C224    1.414   .     A
C214   C215    1.390   .     A
C214   C225    1.411   .     A
C214   N256    1.424   .     S
C215   C801    1.384   .     S
C215   H812    1.074   .     S
C216   O259    1.376   .     S
C216   C800    1.384   1_554 S
C216   C802    1.423   1_554 S
C217   C218    1.427   .     A
C217   C801    1.423   .     S
C217   C804    1.426   .     S
C218   C222    1.406   .     A
C218   C225    1.422   .     A
C219   C223    1.401   .     A
C219   C802    1.426   1_554 S
C219   C805    1.410   1_554 S
C220   C221    1.385   .     A
C220   C795    1.390   .     S
C220   C804    1.410   .     S
C221   C222    1.373   .     A
C222   H228    1.077   .     S
C223   H226    1.078   .     S
C224   O246    1.372   .     S
H227   C800    1.074   1_554 S
C229   C237    1.402   .     A
C229   H230    1.084   .     S
C229   C426    1.383   .     S
C231   C233    1.396   .     A
C231   H232    1.083   .     S
C233   C234    1.398   .     A
C234   H235    1.082   .     S
C236   C237    1.414   .     A
C236   N248    1.438   .     S
C236   C429    1.391   .     S
C238   H239    1.081   .     S
C238   N245    1.371   .     A
C238   C305    1.426   .     S
C240   N242    1.370   .     A
C240   H241    1.081   .     S
C240   C368    1.426   1_455 S
N242   C243    1.377   .     A
C243   O251    1.374   .     S
C243   C374    1.419   1_455 S
C244   N245    1.378   .     A
C244   N253    1.430   .     S
C244   C308    1.419   .     S
O246   H247    0.991   .     S
N248   O249    1.301   .     A
N248   O250    1.301   .     A
O251   H252    0.983   .     S
N253   O255    1.298   .     A
N253   O254    1.301   .     A
N256   O258    1.302   .     A
N256   O257    1.301   .     A
O259   H260    0.992   .     S
O261   Cu267   1.959   .     S
O261   C263    1.302   .     A
O262   C263    1.303   .     A
O262   Cu268   1.958   .     S
C263   C302    1.450   .     S
O264   Cu267   1.971   .     S
O264   C266    1.316   .     A
O265   Cu268   1.963   .     S
O265   C266    1.311   .     A
C266   C290    1.499   .     S
Cu267  O269    1.958   .     S
Cu267  Cu268   2.716   .     S
Cu267  O271    1.963   .     S
Cu267  N307    2.041   .     S
Cu268  O272    1.971   .     S
Cu268  N310    2.041   .     S
Cu268  O270    1.959   .     S
O269   C273    1.301   .     A
O270   C273    1.302   .     A
O271   C274    1.309   .     A
O272   C274    1.306   .     A
C273   C298    1.445   .     S
C274   C278    1.470   .     S
C275   C289    1.388   .     A
C275   H862    1.076   1_554 S
C275   C870    1.390   1_554 S
H276   C286    1.072   .     S
H277   C860    1.076   .     S
C278   C288    1.403   .     A
C278   C289    1.414   .     A
C279   C280    1.390   .     A
C279   C290    1.411   .     A
C279   N321    1.424   .     S
C280   C866    1.384   .     S
C280   H877    1.074   .     S
C281   O324    1.376   .     S
C281   C865    1.384   1_554 S
C281   C867    1.423   1_554 S
C282   C283    1.427   .     A
C282   C866    1.423   .     S
C282   C869    1.426   .     S
C283   C287    1.406   .     A
C283   C290    1.422   .     A
C284   C288    1.401   .     A
C284   C867    1.426   1_554 S
C284   C870    1.410   1_554 S
C285   C286    1.385   .     A
C285   C860    1.390   .     S
C285   C869    1.410   .     S
C286   C287    1.373   .     A
C287   H293    1.077   .     S
C288   H291    1.078   .     S
C289   O311    1.372   .     S
H292   C865    1.074   1_554 S
C294   C302    1.402   .     A
C294   H295    1.084   .     S
C294   C491    1.383   .     S
C296   C298    1.396   .     A
C296   H297    1.083   .     S
C298   C299    1.398   .     A
C299   H300    1.082   .     S
C301   C302    1.414   .     A
C301   N313    1.438   .     S
C301   C494    1.391   .     S
C303   H304    1.081   .     S
C303   N310    1.371   .     A
C303   C370    1.426   .     S
C305   N307    1.370   .     A
C305   H306    1.081   .     S
N307   C308    1.377   .     A
C308   O316    1.374   .     S
C309   N310    1.378   .     A
C309   N318    1.430   .     S
C309   C373    1.419   .     S
O311   H312    0.991   .     S
N313   O314    1.301   .     A
N313   O315    1.301   .     A
O316   H317    0.983   .     S
N318   O320    1.298   .     A
N318   O319    1.301   .     A
N321   O323    1.302   .     A
N321   O322    1.301   .     A
O324   H325    0.992   .     S
O326   Cu332   1.959   .     S
O326   C328    1.302   .     A
O327   C328    1.303   .     A
O327   Cu333   1.958   .     S
C328   C367    1.450   .     S
O329   Cu332   1.971   .     S
O329   C331    1.316   .     A
O330   Cu333   1.963   .     S
O330   C331    1.311   .     A
C331   C355    1.499   .     S
Cu332  O334    1.958   .     S
Cu332  Cu333   2.716   .     S
Cu332  O336    1.963   .     S
Cu332  N372    2.041   .     S
Cu333  O337    1.971   .     S
Cu333  N375    2.041   .     S
Cu333  O335    1.959   .     S
O334   C338    1.301   .     A
O335   C338    1.302   .     A
O336   C339    1.309   .     A
O337   C339    1.306   .     A
C338   C363    1.445   .     S
C339   C343    1.470   .     S
C340   C354    1.388   .     A
C340   H927    1.076   1_554 S
C340   C935    1.390   1_554 S
H341   C351    1.072   .     S
H342   C925    1.076   .     S
C343   C353    1.403   .     A
C343   C354    1.414   .     A
C344   C345    1.390   .     A
C344   C355    1.411   .     A
C344   N386    1.424   .     S
C345   C931    1.384   .     S
C345   H942    1.074   .     S
C346   O389    1.376   .     S
C346   C930    1.384   1_554 S
C346   C932    1.423   1_554 S
C347   C348    1.427   .     A
C347   C931    1.423   .     S
C347   C934    1.426   .     S
C348   C352    1.406   .     A
C348   C355    1.422   .     A
C349   C353    1.401   .     A
C349   C932    1.426   1_554 S
C349   C935    1.410   1_554 S
C350   C351    1.385   .     A
C350   C925    1.390   .     S
C350   C934    1.410   .     S
C351   C352    1.373   .     A
C352   H358    1.077   .     S
C353   H356    1.078   .     S
C354   O376    1.372   .     S
H357   C930    1.074   1_554 S
C359   C367    1.402   .     A
C359   H360    1.084   .     S
C359   C556    1.383   .     S
C361   C363    1.396   .     A
C361   H362    1.083   .     S
C363   C364    1.398   .     A
C364   H365    1.082   .     S
C366   C367    1.414   .     A
C366   N378    1.438   .     S
C366   C559    1.391   .     S
C368   H369    1.081   .     S
C368   N375    1.371   .     A
C368   C240    1.426   1_655 S
C370   N372    1.370   .     A
C370   H371    1.081   .     S
N372   C373    1.377   .     A
C373   O381    1.374   .     S
C374   N375    1.378   .     A
C374   N383    1.430   .     S
C374   C243    1.419   1_655 S
O376   H377    0.991   .     S
N378   O379    1.301   .     A
N378   O380    1.301   .     A
O381   H382    0.983   .     S
N383   O385    1.298   .     A
N383   O384    1.301   .     A
N386   O388    1.302   .     A
N386   O387    1.301   .     A
O389   H390    0.992   .     S
O391   Cu397   1.959   .     S
O391   C393    1.302   .     A
O392   C393    1.303   .     A
O392   Cu398   1.958   .     S
C393   C432    1.450   .     S
O394   Cu397   1.971   .     S
O394   C396    1.316   .     A
O395   Cu398   1.963   .     S
O395   C396    1.311   .     A
C396   C420    1.499   .     S
Cu397  O399    1.958   .     S
Cu397  Cu398   2.716   .     S
Cu397  O401    1.963   .     S
Cu397  N437    2.041   .     S
Cu398  O402    1.971   .     S
Cu398  N440    2.041   .     S
Cu398  O400    1.959   .     S
O399   C403    1.301   .     A
O400   C403    1.302   .     A
O401   C404    1.309   .     A
O402   C404    1.306   .     A
C403   C428    1.445   .     S
C404   C408    1.470   .     S
C405   C419    1.388   .     A
C405   H992    1.076   1_554 S
C405   C1000   1.390   1_554 S
H406   C416    1.072   .     S
H407   C990    1.076   .     S
C408   C418    1.403   .     A
C408   C419    1.414   .     A
C409   C410    1.390   .     A
C409   C420    1.411   .     A
C409   N451    1.424   .     S
C410   C996    1.384   .     S
C410   H1007   1.074   .     S
C411   O454    1.376   .     S
C411   C995    1.384   1_554 S
C411   C997    1.423   1_554 S
C412   C413    1.427   .     A
C412   C996    1.423   .     S
C412   C999    1.426   .     S
C413   C417    1.406   .     A
C413   C420    1.422   .     A
C414   C418    1.401   .     A
C414   C997    1.426   1_554 S
C414   C1000   1.410   1_554 S
C415   C416    1.385   .     A
C415   C990    1.390   .     S
C415   C999    1.410   .     S
C416   C417    1.373   .     A
C417   H423    1.077   .     S
C418   H421    1.078   .     S
C419   O441    1.372   .     S
H422   C995    1.074   1_554 S
C424   C432    1.402   .     A
C424   H425    1.084   .     S
C424   C36     1.383   1_565 S
C426   C428    1.396   .     A
C426   H427    1.083   .     S
C428   C429    1.398   .     A
C429   H430    1.082   .     S
C431   C432    1.414   .     A
C431   N443    1.438   .     S
C431   C39     1.391   1_565 S
C433   H434    1.081   .     S
C433   N440    1.371   .     A
C433   C500    1.426   .     S
C435   N437    1.370   .     A
C435   H436    1.081   .     S
C435   C563    1.426   1_455 S
N437   C438    1.377   .     A
C438   O446    1.374   .     S
C438   C569    1.419   1_455 S
C439   N440    1.378   .     A
C439   N448    1.430   .     S
C439   C503    1.419   .     S
O441   H442    0.991   .     S
N443   O444    1.301   .     A
N443   O445    1.301   .     A
O446   H447    0.983   .     S
N448   O450    1.298   .     A
N448   O449    1.301   .     A
N451   O453    1.302   .     A
N451   O452    1.301   .     A
O454   H455    0.992   .     S
O456   Cu462   1.959   .     S
O456   C458    1.302   .     A
O457   C458    1.303   .     A
O457   Cu463   1.958   .     S
C458   C497    1.450   .     S
O459   Cu462   1.971   .     S
O459   C461    1.316   .     A
O460   Cu463   1.963   .     S
O460   C461    1.311   .     A
C461   C485    1.499   .     S
Cu462  O464    1.958   .     S
Cu462  Cu463   2.716   .     S
Cu462  O466    1.963   .     S
Cu462  N502    2.041   .     S
Cu463  O467    1.971   .     S
Cu463  N505    2.041   .     S
Cu463  O465    1.959   .     S
O464   C468    1.301   .     A
O465   C468    1.302   .     A
O466   C469    1.309   .     A
O467   C469    1.306   .     A
C468   C493    1.445   .     S
C469   C473    1.470   .     S
C470   C484    1.388   .     A
C470   H1057   1.076   1_554 S
C470   C1065   1.390   1_554 S
H471   C481    1.072   .     S
H472   C1055   1.076   .     S
C473   C483    1.403   .     A
C473   C484    1.414   .     A
C474   C475    1.390   .     A
C474   C485    1.411   .     A
C474   N516    1.424   .     S
C475   C1061   1.384   .     S
C475   H1072   1.074   .     S
C476   O519    1.376   .     S
C476   C1060   1.384   1_554 S
C476   C1062   1.423   1_554 S
C477   C478    1.427   .     A
C477   C1061   1.423   .     S
C477   C1064   1.426   .     S
C478   C482    1.406   .     A
C478   C485    1.422   .     A
C479   C483    1.401   .     A
C479   C1062   1.426   1_554 S
C479   C1065   1.410   1_554 S
C480   C481    1.385   .     A
C480   C1055   1.390   .     S
C480   C1064   1.410   .     S
C481   C482    1.373   .     A
C482   H488    1.077   .     S
C483   H486    1.078   .     S
C484   O506    1.372   .     S
H487   C1060   1.074   1_554 S
C489   C497    1.402   .     A
C489   H490    1.084   .     S
C489   C101    1.383   1_565 S
C491   C493    1.396   .     A
C491   H492    1.083   .     S
C493   C494    1.398   .     A
C494   H495    1.082   .     S
C496   C497    1.414   .     A
C496   N508    1.438   .     S
C496   C104    1.391   1_565 S
C498   H499    1.081   .     S
C498   N505    1.371   .     A
C498   C565    1.426   .     S
C500   N502    1.370   .     A
C500   H501    1.081   .     S
N502   C503    1.377   .     A
C503   O511    1.374   .     S
C504   N505    1.378   .     A
C504   N513    1.430   .     S
C504   C568    1.419   .     S
O506   H507    0.991   .     S
N508   O509    1.301   .     A
N508   O510    1.301   .     A
O511   H512    0.983   .     S
N513   O515    1.298   .     A
N513   O514    1.301   .     A
N516   O518    1.302   .     A
N516   O517    1.301   .     A
O519   H520    0.992   .     S
O521   Cu527   1.959   .     S
O521   C523    1.302   .     A
O522   C523    1.303   .     A
O522   Cu528   1.958   .     S
C523   C562    1.450   .     S
O524   Cu527   1.971   .     S
O524   C526    1.316   .     A
O525   Cu528   1.963   .     S
O525   C526    1.311   .     A
C526   C550    1.499   .     S
Cu527  O529    1.958   .     S
Cu527  Cu528   2.716   .     S
Cu527  O531    1.963   .     S
Cu527  N567    2.041   .     S
Cu528  O532    1.971   .     S
Cu528  N570    2.041   .     S
Cu528  O530    1.959   .     S
O529   C533    1.301   .     A
O530   C533    1.302   .     A
O531   C534    1.309   .     A
O532   C534    1.306   .     A
C533   C558    1.445   .     S
C534   C538    1.470   .     S
C535   C549    1.388   .     A
C535   H1122   1.076   1_554 S
C535   C1130   1.390   1_554 S
H536   C546    1.072   .     S
H537   C1120   1.076   .     S
C538   C548    1.403   .     A
C538   C549    1.414   .     A
C539   C540    1.390   .     A
C539   C550    1.411   .     A
C539   N581    1.424   .     S
C540   C1126   1.384   .     S
C540   H1137   1.074   .     S
C541   O584    1.376   .     S
C541   C1125   1.384   1_554 S
C541   C1127   1.423   1_554 S
C542   C543    1.427   .     A
C542   C1126   1.423   .     S
C542   C1129   1.426   .     S
C543   C547    1.406   .     A
C543   C550    1.422   .     A
C544   C548    1.401   .     A
C544   C1127   1.426   1_554 S
C544   C1130   1.410   1_554 S
C545   C546    1.385   .     A
C545   C1120   1.390   .     S
C545   C1129   1.410   .     S
C546   C547    1.373   .     A
C547   H553    1.077   .     S
C548   H551    1.078   .     S
C549   O571    1.372   .     S
H552   C1125   1.074   1_554 S
C554   C562    1.402   .     A
C554   H555    1.084   .     S
C554   C166    1.383   1_565 S
C556   C558    1.396   .     A
C556   H557    1.083   .     S
C558   C559    1.398   .     A
C559   H560    1.082   .     S
C561   C562    1.414   .     A
C561   N573    1.438   .     S
C561   C169    1.391   1_565 S
C563   H564    1.081   .     S
C563   N570    1.371   .     A
C563   C435    1.426   1_655 S
C565   N567    1.370   .     A
C565   H566    1.081   .     S
N567   C568    1.377   .     A
C568   O576    1.374   .     S
C569   N570    1.378   .     A
C569   N578    1.430   .     S
C569   C438    1.419   1_655 S
O571   H572    0.991   .     S
N573   O574    1.301   .     A
N573   O575    1.301   .     A
O576   H577    0.983   .     S
N578   O580    1.298   .     A
N578   O579    1.301   .     A
N581   O583    1.302   .     A
N581   O582    1.301   .     A
O584   H585    0.992   .     S
O586   Cu592   1.959   .     S
O586   C588    1.302   .     A
O587   C588    1.303   .     A
O587   Cu593   1.958   .     S
C588   C627    1.450   .     S
O589   Cu592   1.971   .     S
O589   C591    1.316   .     A
O590   Cu593   1.963   .     S
O590   C591    1.311   .     A
C591   C615    1.499   .     S
Cu592  O594    1.958   .     S
Cu592  Cu593   2.716   .     S
Cu592  O596    1.963   .     S
Cu592  N632    2.041   .     S
Cu593  O597    1.971   .     S
Cu593  N635    2.041   .     S
Cu593  O595    1.959   .     S
O594   C598    1.301   .     A
O595   C598    1.302   .     A
O596   C599    1.309   .     A
O597   C599    1.306   .     A
C598   C623    1.445   .     S
C599   C603    1.470   .     S
C600   C614    1.388   .     A
H601   C611    1.072   .     S
H602   C15     1.076   1_556 S
C603   C613    1.403   .     A
C603   C614    1.414   .     A
C604   C605    1.390   .     A
C604   C615    1.411   .     A
C604   N646    1.424   .     S
C605   C21     1.384   1_556 S
C605   H32     1.074   1_556 S
C606   O649    1.376   .     S
C607   C608    1.427   .     A
C607   C21     1.423   1_556 S
C607   C24     1.426   1_556 S
C608   C612    1.406   .     A
C608   C615    1.422   .     A
C609   C613    1.401   .     A
C610   C611    1.385   .     A
C610   C15     1.390   1_556 S
C610   C24     1.410   1_556 S
C611   C612    1.373   .     A
C612   H618    1.077   .     S
C613   H616    1.078   .     S
C614   O636    1.372   .     S
C619   C627    1.402   .     A
C619   H620    1.084   .     S
C619   C816    1.383   .     S
C621   C623    1.396   .     A
C621   H622    1.083   .     S
C621   C1009   1.383   1_545 S
C623   C624    1.398   .     A
C624   H625    1.082   .     S
C624   C1016   1.391   1_545 S
C626   C627    1.414   .     A
C626   N638    1.438   .     S
C626   C819    1.391   .     S
C628   H629    1.081   .     S
C628   N635    1.371   .     A
C628   C695    1.426   .     S
C630   N632    1.370   .     A
C630   H631    1.081   .     S
C630   C758    1.426   1_455 S
N632   C633    1.377   .     A
C633   O641    1.374   .     S
C633   C764    1.419   1_455 S
C634   N635    1.378   .     A
C634   N643    1.430   .     S
C634   C698    1.419   .     S
O636   H637    0.991   .     S
N638   O639    1.301   .     A
N638   O640    1.301   .     A
O641   H642    0.983   .     S
N643   O645    1.298   .     A
N643   O644    1.301   .     A
N646   O648    1.302   .     A
N646   O647    1.301   .     A
O649   H650    0.992   .     S
O651   Cu657   1.959   .     S
O651   C653    1.302   .     A
O652   C653    1.303   .     A
O652   Cu658   1.958   .     S
C653   C692    1.450   .     S
O654   Cu657   1.971   .     S
O654   C656    1.316   .     A
O655   Cu658   1.963   .     S
O655   C656    1.311   .     A
C656   C680    1.499   .     S
Cu657  O659    1.958   .     S
Cu657  Cu658   2.716   .     S
Cu657  O661    1.963   .     S
Cu657  N697    2.041   .     S
Cu658  O662    1.971   .     S
Cu658  N700    2.041   .     S
Cu658  O660    1.959   .     S
O659   C663    1.301   .     A
O660   C663    1.302   .     A
O661   C664    1.309   .     A
O662   C664    1.306   .     A
C663   C688    1.445   .     S
C664   C668    1.470   .     S
C665   C679    1.388   .     A
H666   C676    1.072   .     S
H667   C80     1.076   1_556 S
C668   C678    1.403   .     A
C668   C679    1.414   .     A
C669   C670    1.390   .     A
C669   C680    1.411   .     A
C669   N711    1.424   .     S
C670   C86     1.384   1_556 S
C670   H97     1.074   1_556 S
C671   O714    1.376   .     S
C672   C673    1.427   .     A
C672   C86     1.423   1_556 S
C672   C89     1.426   1_556 S
C673   C677    1.406   .     A
C673   C680    1.422   .     A
C674   C678    1.401   .     A
C675   C676    1.385   .     A
C675   C80     1.390   1_556 S
C675   C89     1.410   1_556 S
C676   C677    1.373   .     A
C677   H683    1.077   .     S
C678   H681    1.078   .     S
C679   O701    1.372   .     S
C684   C692    1.402   .     A
C684   H685    1.084   .     S
C684   C881    1.383   .     S
C686   C688    1.396   .     A
C686   H687    1.083   .     S
C686   C1074   1.383   1_545 S
C688   C689    1.398   .     A
C689   H690    1.082   .     S
C689   C1081   1.391   1_545 S
C691   C692    1.414   .     A
C691   N703    1.438   .     S
C691   C884    1.391   .     S
C693   H694    1.081   .     S
C693   N700    1.371   .     A
C693   C760    1.426   .     S
C695   N697    1.370   .     A
C695   H696    1.081   .     S
N697   C698    1.377   .     A
C698   O706    1.374   .     S
C699   N700    1.378   .     A
C699   N708    1.430   .     S
C699   C763    1.419   .     S
O701   H702    0.991   .     S
N703   O704    1.301   .     A
N703   O705    1.301   .     A
O706   H707    0.983   .     S
N708   O710    1.298   .     A
N708   O709    1.301   .     A
N711   O713    1.302   .     A
N711   O712    1.301   .     A
O714   H715    0.992   .     S
O716   Cu722   1.959   .     S
O716   C718    1.302   .     A
O717   C718    1.303   .     A
O717   Cu723   1.958   .     S
C718   C757    1.450   .     S
O719   Cu722   1.971   .     S
O719   C721    1.316   .     A
O720   Cu723   1.963   .     S
O720   C721    1.311   .     A
C721   C745    1.499   .     S
Cu722  O724    1.958   .     S
Cu722  Cu723   2.716   .     S
Cu722  O726    1.963   .     S
Cu722  N762    2.041   .     S
Cu723  O727    1.971   .     S
Cu723  N765    2.041   .     S
Cu723  O725    1.959   .     S
O724   C728    1.301   .     A
O725   C728    1.302   .     A
O726   C729    1.309   .     A
O727   C729    1.306   .     A
C728   C753    1.445   .     S
C729   C733    1.470   .     S
C730   C744    1.388   .     A
H731   C741    1.072   .     S
H732   C145    1.076   1_556 S
C733   C743    1.403   .     A
C733   C744    1.414   .     A
C734   C735    1.390   .     A
C734   C745    1.411   .     A
C734   N776    1.424   .     S
C735   C151    1.384   1_556 S
C735   H162    1.074   1_556 S
C736   O779    1.376   .     S
C737   C738    1.427   .     A
C737   C151    1.423   1_556 S
C737   C154    1.426   1_556 S
C738   C742    1.406   .     A
C738   C745    1.422   .     A
C739   C743    1.401   .     A
C740   C741    1.385   .     A
C740   C145    1.390   1_556 S
C740   C154    1.410   1_556 S
C741   C742    1.373   .     A
C742   H748    1.077   .     S
C743   H746    1.078   .     S
C744   O766    1.372   .     S
C749   C757    1.402   .     A
C749   H750    1.084   .     S
C749   C946    1.383   .     S
C751   C753    1.396   .     A
C751   H752    1.083   .     S
C751   C1139   1.383   1_545 S
C753   C754    1.398   .     A
C754   H755    1.082   .     S
C754   C1146   1.391   1_545 S
C756   C757    1.414   .     A
C756   N768    1.438   .     S
C756   C949    1.391   .     S
C758   H759    1.081   .     S
C758   N765    1.371   .     A
C758   C630    1.426   1_655 S
C760   N762    1.370   .     A
C760   H761    1.081   .     S
N762   C763    1.377   .     A
C763   O771    1.374   .     S
C764   N765    1.378   .     A
C764   N773    1.430   .     S
C764   C633    1.419   1_655 S
O766   H767    0.991   .     S
N768   O769    1.301   .     A
N768   O770    1.301   .     A
O771   H772    0.983   .     S
N773   O775    1.298   .     A
N773   O774    1.301   .     A
N776   O778    1.302   .     A
N776   O777    1.301   .     A
O779   H780    0.992   .     S
O781   Cu787   1.959   .     S
O781   C783    1.302   .     A
O782   C783    1.303   .     A
O782   Cu788   1.958   .     S
C783   C822    1.450   .     S
O784   Cu787   1.971   .     S
O784   C786    1.316   .     A
O785   Cu788   1.963   .     S
O785   C786    1.311   .     A
C786   C810    1.499   .     S
Cu787  O789    1.958   .     S
Cu787  Cu788   2.716   .     S
Cu787  O791    1.963   .     S
Cu787  N827    2.041   .     S
Cu788  O792    1.971   .     S
Cu788  N830    2.041   .     S
Cu788  O790    1.959   .     S
O789   C793    1.301   .     A
O790   C793    1.302   .     A
O791   C794    1.309   .     A
O792   C794    1.306   .     A
C793   C818    1.445   .     S
C794   C798    1.470   .     S
C795   C809    1.388   .     A
H796   C806    1.072   .     S
H797   C210    1.076   1_556 S
C798   C808    1.403   .     A
C798   C809    1.414   .     A
C799   C800    1.390   .     A
C799   C810    1.411   .     A
C799   N841    1.424   .     S
C800   C216    1.384   1_556 S
C800   H227    1.074   1_556 S
C801   O844    1.376   .     S
C802   C803    1.427   .     A
C802   C216    1.423   1_556 S
C802   C219    1.426   1_556 S
C803   C807    1.406   .     A
C803   C810    1.422   .     A
C804   C808    1.401   .     A
C805   C806    1.385   .     A
C805   C210    1.390   1_556 S
C805   C219    1.410   1_556 S
C806   C807    1.373   .     A
C807   H813    1.077   .     S
C808   H811    1.078   .     S
C809   O831    1.372   .     S
C814   C822    1.402   .     A
C814   H815    1.084   .     S
C814   C1011   1.383   .     S
C816   C818    1.396   .     A
C816   H817    1.083   .     S
C818   C819    1.398   .     A
C819   H820    1.082   .     S
C821   C822    1.414   .     A
C821   N833    1.438   .     S
C821   C1014   1.391   .     S
C823   H824    1.081   .     S
C823   N830    1.371   .     A
C823   C890    1.426   .     S
C825   N827    1.370   .     A
C825   H826    1.081   .     S
C825   C953    1.426   1_455 S
N827   C828    1.377   .     A
C828   O836    1.374   .     S
C828   C959    1.419   1_455 S
C829   N830    1.378   .     A
C829   N838    1.430   .     S
C829   C893    1.419   .     S
O831   H832    0.991   .     S
N833   O834    1.301   .     A
N833   O835    1.301   .     A
O836   H837    0.983   .     S
N838   O840    1.298   .     A
N838   O839    1.301   .     A
N841   O843    1.302   .     A
N841   O842    1.301   .     A
O844   H845    0.992   .     S
O846   Cu852   1.959   .     S
O846   C848    1.302   .     A
O847   C848    1.303   .     A
O847   Cu853   1.958   .     S
C848   C887    1.450   .     S
O849   Cu852   1.971   .     S
O849   C851    1.316   .     A
O850   Cu853   1.963   .     S
O850   C851    1.311   .     A
C851   C875    1.499   .     S
Cu852  O854    1.958   .     S
Cu852  Cu853   2.716   .     S
Cu852  O856    1.963   .     S
Cu852  N892    2.041   .     S
Cu853  O857    1.971   .     S
Cu853  N895    2.041   .     S
Cu853  O855    1.959   .     S
O854   C858    1.301   .     A
O855   C858    1.302   .     A
O856   C859    1.309   .     A
O857   C859    1.306   .     A
C858   C883    1.445   .     S
C859   C863    1.470   .     S
C860   C874    1.388   .     A
H861   C871    1.072   .     S
H862   C275    1.076   1_556 S
C863   C873    1.403   .     A
C863   C874    1.414   .     A
C864   C865    1.390   .     A
C864   C875    1.411   .     A
C864   N906    1.424   .     S
C865   C281    1.384   1_556 S
C865   H292    1.074   1_556 S
C866   O909    1.376   .     S
C867   C868    1.427   .     A
C867   C281    1.423   1_556 S
C867   C284    1.426   1_556 S
C868   C872    1.406   .     A
C868   C875    1.422   .     A
C869   C873    1.401   .     A
C870   C871    1.385   .     A
C870   C275    1.390   1_556 S
C870   C284    1.410   1_556 S
C871   C872    1.373   .     A
C872   H878    1.077   .     S
C873   H876    1.078   .     S
C874   O896    1.372   .     S
C879   C887    1.402   .     A
C879   H880    1.084   .     S
C879   C1076   1.383   .     S
C881   C883    1.396   .     A
C881   H882    1.083   .     S
C883   C884    1.398   .     A
C884   H885    1.082   .     S
C886   C887    1.414   .     A
C886   N898    1.438   .     S
C886   C1079   1.391   .     S
C888   H889    1.081   .     S
C888   N895    1.371   .     A
C888   C955    1.426   .     S
C890   N892    1.370   .     A
C890   H891    1.081   .     S
N892   C893    1.377   .     A
C893   O901    1.374   .     S
C894   N895    1.378   .     A
C894   N903    1.430   .     S
C894   C958    1.419   .     S
O896   H897    0.991   .     S
N898   O899    1.301   .     A
N898   O900    1.301   .     A
O901   H902    0.983   .     S
N903   O905    1.298   .     A
N903   O904    1.301   .     A
N906   O908    1.302   .     A
N906   O907    1.301   .     A
O909   H910    0.992   .     S
O911   Cu917   1.959   .     S
O911   C913    1.302   .     A
O912   C913    1.303   .     A
O912   Cu918   1.958   .     S
C913   C952    1.450   .     S
O914   Cu917   1.971   .     S
O914   C916    1.316   .     A
O915   Cu918   1.963   .     S
O915   C916    1.311   .     A
C916   C940    1.499   .     S
Cu917  O919    1.958   .     S
Cu917  Cu918   2.716   .     S
Cu917  O921    1.963   .     S
Cu917  N957    2.041   .     S
Cu918  O922    1.971   .     S
Cu918  N960    2.041   .     S
Cu918  O920    1.959   .     S
O919   C923    1.301   .     A
O920   C923    1.302   .     A
O921   C924    1.309   .     A
O922   C924    1.306   .     A
C923   C948    1.445   .     S
C924   C928    1.470   .     S
C925   C939    1.388   .     A
H926   C936    1.072   .     S
H927   C340    1.076   1_556 S
C928   C938    1.403   .     A
C928   C939    1.414   .     A
C929   C930    1.390   .     A
C929   C940    1.411   .     A
C929   N971    1.424   .     S
C930   C346    1.384   1_556 S
C930   H357    1.074   1_556 S
C931   O974    1.376   .     S
C932   C933    1.427   .     A
C932   C346    1.423   1_556 S
C932   C349    1.426   1_556 S
C933   C937    1.406   .     A
C933   C940    1.422   .     A
C934   C938    1.401   .     A
C935   C936    1.385   .     A
C935   C340    1.390   1_556 S
C935   C349    1.410   1_556 S
C936   C937    1.373   .     A
C937   H943    1.077   .     S
C938   H941    1.078   .     S
C939   O961    1.372   .     S
C944   C952    1.402   .     A
C944   H945    1.084   .     S
C944   C1141   1.383   .     S
C946   C948    1.396   .     A
C946   H947    1.083   .     S
C948   C949    1.398   .     A
C949   H950    1.082   .     S
C951   C952    1.414   .     A
C951   N963    1.438   .     S
C951   C1144   1.391   .     S
C953   H954    1.081   .     S
C953   N960    1.371   .     A
C953   C825    1.426   1_655 S
C955   N957    1.370   .     A
C955   H956    1.081   .     S
N957   C958    1.377   .     A
C958   O966    1.374   .     S
C959   N960    1.378   .     A
C959   N968    1.430   .     S
C959   C828    1.419   1_655 S
O961   H962    0.991   .     S
N963   O964    1.301   .     A
N963   O965    1.301   .     A
O966   H967    0.983   .     S
N968   O970    1.298   .     A
N968   O969    1.301   .     A
N971   O973    1.302   .     A
N971   O972    1.301   .     A
O974   H975    0.992   .     S
O976   Cu982   1.959   .     S
O976   C978    1.302   .     A
O977   C978    1.303   .     A
O977   Cu983   1.958   .     S
C978   C1017   1.450   .     S
O979   Cu982   1.971   .     S
O979   C981    1.316   .     A
O980   Cu983   1.963   .     S
O980   C981    1.311   .     A
C981   C1005   1.499   .     S
Cu982  O984    1.958   .     S
Cu982  Cu983   2.716   .     S
Cu982  O986    1.963   .     S
Cu982  N1022   2.041   .     S
Cu983  O987    1.971   .     S
Cu983  N1025   2.041   .     S
Cu983  O985    1.959   .     S
O984   C988    1.301   .     A
O985   C988    1.302   .     A
O986   C989    1.309   .     A
O987   C989    1.306   .     A
C988   C1013   1.445   .     S
C989   C993    1.470   .     S
C990   C1004   1.388   .     A
H991   C1001   1.072   .     S
H992   C405    1.076   1_556 S
C993   C1003   1.403   .     A
C993   C1004   1.414   .     A
C994   C995    1.390   .     A
C994   C1005   1.411   .     A
C994   N1036   1.424   .     S
C995   C411    1.384   1_556 S
C995   H422    1.074   1_556 S
C996   O1039   1.376   .     S
C997   C998    1.427   .     A
C997   C411    1.423   1_556 S
C997   C414    1.426   1_556 S
C998   C1002   1.406   .     A
C998   C1005   1.422   .     A
C999   C1003   1.401   .     A
C1000  C1001   1.385   .     A
C1000  C405    1.390   1_556 S
C1000  C414    1.410   1_556 S
C1001  C1002   1.373   .     A
C1002  H1008   1.077   .     S
C1003  H1006   1.078   .     S
C1004  O1026   1.372   .     S
C1009  C1017   1.402   .     A
C1009  H1010   1.084   .     S
C1009  C621    1.383   1_565 S
C1011  C1013   1.396   .     A
C1011  H1012   1.083   .     S
C1013  C1014   1.398   .     A
C1014  H1015   1.082   .     S
C1016  C1017   1.414   .     A
C1016  N1028   1.438   .     S
C1016  C624    1.391   1_565 S
C1018  H1019   1.081   .     S
C1018  N1025   1.371   .     A
C1018  C1085   1.426   .     S
C1020  N1022   1.370   .     A
C1020  H1021   1.081   .     S
C1020  C1148   1.426   1_455 S
N1022  C1023   1.377   .     A
C1023  O1031   1.374   .     S
C1023  C1154   1.419   1_455 S
C1024  N1025   1.378   .     A
C1024  N1033   1.430   .     S
C1024  C1088   1.419   .     S
O1026  H1027   0.991   .     S
N1028  O1029   1.301   .     A
N1028  O1030   1.301   .     A
O1031  H1032   0.983   .     S
N1033  O1035   1.298   .     A
N1033  O1034   1.301   .     A
N1036  O1038   1.302   .     A
N1036  O1037   1.301   .     A
O1039  H1040   0.992   .     S
O1041  Cu1047  1.959   .     S
O1041  C1043   1.302   .     A
O1042  C1043   1.303   .     A
O1042  Cu1048  1.958   .     S
C1043  C1082   1.450   .     S
O1044  Cu1047  1.971   .     S
O1044  C1046   1.316   .     A
O1045  Cu1048  1.963   .     S
O1045  C1046   1.311   .     A
C1046  C1070   1.499   .     S
Cu1047 O1049   1.958   .     S
Cu1047 Cu1048  2.716   .     S
Cu1047 O1051   1.963   .     S
Cu1047 N1087   2.041   .     S
Cu1048 O1052   1.971   .     S
Cu1048 N1090   2.041   .     S
Cu1048 O1050   1.959   .     S
O1049  C1053   1.301   .     A
O1050  C1053   1.302   .     A
O1051  C1054   1.309   .     A
O1052  C1054   1.306   .     A
C1053  C1078   1.445   .     S
C1054  C1058   1.470   .     S
C1055  C1069   1.388   .     A
H1056  C1066   1.072   .     S
H1057  C470    1.076   1_556 S
C1058  C1068   1.403   .     A
C1058  C1069   1.414   .     A
C1059  C1060   1.390   .     A
C1059  C1070   1.411   .     A
C1059  N1101   1.424   .     S
C1060  C476    1.384   1_556 S
C1060  H487    1.074   1_556 S
C1061  O1104   1.376   .     S
C1062  C1063   1.427   .     A
C1062  C476    1.423   1_556 S
C1062  C479    1.426   1_556 S
C1063  C1067   1.406   .     A
C1063  C1070   1.422   .     A
C1064  C1068   1.401   .     A
C1065  C1066   1.385   .     A
C1065  C470    1.390   1_556 S
C1065  C479    1.410   1_556 S
C1066  C1067   1.373   .     A
C1067  H1073   1.077   .     S
C1068  H1071   1.078   .     S
C1069  O1091   1.372   .     S
C1074  C1082   1.402   .     A
C1074  H1075   1.084   .     S
C1074  C686    1.383   1_565 S
C1076  C1078   1.396   .     A
C1076  H1077   1.083   .     S
C1078  C1079   1.398   .     A
C1079  H1080   1.082   .     S
C1081  C1082   1.414   .     A
C1081  N1093   1.438   .     S
C1081  C689    1.391   1_565 S
C1083  H1084   1.081   .     S
C1083  N1090   1.371   .     A
C1083  C1150   1.426   .     S
C1085  N1087   1.370   .     A
C1085  H1086   1.081   .     S
N1087  C1088   1.377   .     A
C1088  O1096   1.374   .     S
C1089  N1090   1.378   .     A
C1089  N1098   1.430   .     S
C1089  C1153   1.419   .     S
O1091  H1092   0.991   .     S
N1093  O1094   1.301   .     A
N1093  O1095   1.301   .     A
O1096  H1097   0.983   .     S
N1098  O1100   1.298   .     A
N1098  O1099   1.301   .     A
N1101  O1103   1.302   .     A
N1101  O1102   1.301   .     A
O1104  H1105   0.992   .     S
O1106  Cu1112  1.959   .     S
O1106  C1108   1.302   .     A
O1107  C1108   1.303   .     A
O1107  Cu1113  1.958   .     S
C1108  C1147   1.450   .     S
O1109  Cu1112  1.971   .     S
O1109  C1111   1.316   .     A
O1110  Cu1113  1.963   .     S
O1110  C1111   1.311   .     A
C1111  C1135   1.499   .     S
Cu1112 O1114   1.958   .     S
Cu1112 Cu1113  2.716   .     S
Cu1112 O1116   1.963   .     S
Cu1112 N1152   2.041   .     S
Cu1113 O1117   1.971   .     S
Cu1113 N1155   2.041   .     S
Cu1113 O1115   1.959   .     S
O1114  C1118   1.301   .     A
O1115  C1118   1.302   .     A
O1116  C1119   1.309   .     A
O1117  C1119   1.306   .     A
C1118  C1143   1.445   .     S
C1119  C1123   1.470   .     S
C1120  C1134   1.388   .     A
H1121  C1131   1.072   .     S
H1122  C535    1.076   1_556 S
C1123  C1133   1.403   .     A
C1123  C1134   1.414   .     A
C1124  C1125   1.390   .     A
C1124  C1135   1.411   .     A
C1124  N1166   1.424   .     S
C1125  C541    1.384   1_556 S
C1125  H552    1.074   1_556 S
C1126  O1169   1.376   .     S
C1127  C1128   1.427   .     A
C1127  C541    1.423   1_556 S
C1127  C544    1.426   1_556 S
C1128  C1132   1.406   .     A
C1128  C1135   1.422   .     A
C1129  C1133   1.401   .     A
C1130  C1131   1.385   .     A
C1130  C535    1.390   1_556 S
C1130  C544    1.410   1_556 S
C1131  C1132   1.373   .     A
C1132  H1138   1.077   .     S
C1133  H1136   1.078   .     S
C1134  O1156   1.372   .     S
C1139  C1147   1.402   .     A
C1139  H1140   1.084   .     S
C1139  C751    1.383   1_565 S
C1141  C1143   1.396   .     A
C1141  H1142   1.083   .     S
C1143  C1144   1.398   .     A
C1144  H1145   1.082   .     S
C1146  C1147   1.414   .     A
C1146  N1158   1.438   .     S
C1146  C754    1.391   1_565 S
C1148  H1149   1.081   .     S
C1148  N1155   1.371   .     A
C1148  C1020   1.426   1_655 S
C1150  N1152   1.370   .     A
C1150  H1151   1.081   .     S
N1152  C1153   1.377   .     A
C1153  O1161   1.374   .     S
C1154  N1155   1.378   .     A
C1154  N1163   1.430   .     S
C1154  C1023   1.419   1_655 S
O1156  H1157   0.991   .     S
N1158  O1159   1.301   .     A
N1158  O1160   1.301   .     A
O1161  H1162   0.983   .     S
N1163  O1165   1.298   .     A
N1163  O1164   1.301   .     A
N1166  O1168   1.302   .     A
N1166  O1167   1.301   .     A
O1169  H1170   0.992   .     S
