data_str_m3_o1_o1_pcu_sym.47
_audit_creation_date              2020-01-03
_audit_creation_method            'Materials Studio'
_symmetry_space_group_name_H-M    'P1'
_symmetry_Int_Tables_number       1
_symmetry_cell_setting            triclinic
loop_
_symmetry_equiv_pos_as_xyz
  x,y,z
_cell_length_a                    31.0687
_cell_length_b                    29.5717
_cell_length_c                    29.8861
_cell_angle_alpha                 90.0000
_cell_angle_beta                  90.0000
_cell_angle_gamma                 90.0000
loop_
_atom_site_label
_atom_site_type_symbol
_atom_site_fract_x
_atom_site_fract_y
_atom_site_fract_z
_atom_site_U_iso_or_equiv
_atom_site_adp_type
_atom_site_occupancy
C1     C     0.06006   0.19018   0.16667   0.00000  Uiso   1.00
C2     C    -0.00000   0.21011   0.30944   0.00000  Uiso   1.00
C3     C    -0.00000   0.21011   0.02389   0.00000  Uiso   1.00
C4     C    -0.00000   0.28989   0.30944   0.00000  Uiso   1.00
C5     C     0.25000   0.03989   0.02389   0.00000  Uiso   1.00
C6     C     0.25000   0.46011   0.30944   0.00000  Uiso   1.00
C7     C     0.25000   0.46011   0.02389   0.00000  Uiso   1.00
C8     C     0.25000   0.03989   0.30944   0.00000  Uiso   1.00
C9     C     0.39075   0.14118   0.12588   0.00000  Uiso   1.00
C10    C     0.10925   0.35882   0.20745   0.00000  Uiso   1.00
C11    C     0.10925   0.35882   0.12588   0.00000  Uiso   1.00
C12    C     0.43994   0.30982   0.16667   0.00000  Uiso   1.00
C13    C     0.39075   0.14118   0.20745   0.00000  Uiso   1.00
C14    C     0.10925   0.14118   0.20745   0.00000  Uiso   1.00
C15    C     0.39075   0.35882   0.12588   0.00000  Uiso   1.00
C16    C     0.39075   0.35882   0.20745   0.00000  Uiso   1.00
C17    C     0.10925   0.14118   0.12588   0.00000  Uiso   1.00
C18    C     0.14075   0.39118   0.12588   0.00000  Uiso   1.00
C19    C     0.35925   0.10882   0.20745   0.00000  Uiso   1.00
C20    C     0.35925   0.10882   0.12588   0.00000  Uiso   1.00
C21    C     0.14075   0.39118   0.20745   0.00000  Uiso   1.00
C22    C     0.35925   0.39118   0.20745   0.00000  Uiso   1.00
C23    C     0.43994   0.19018   0.16667   0.00000  Uiso   1.00
C24    C     0.14075   0.10882   0.12588   0.00000  Uiso   1.00
C25    C     0.14075   0.10882   0.20745   0.00000  Uiso   1.00
C26    C     0.35925   0.39118   0.12588   0.00000  Uiso   1.00
C27    C     0.09336   0.34284   0.16667   0.00000  Uiso   1.00
C28    C     0.40664   0.15716   0.16667   0.00000  Uiso   1.00
C29    C     0.40664   0.34284   0.16667   0.00000  Uiso   1.00
C30    C     0.09336   0.15716   0.16667   0.00000  Uiso   1.00
C31    C     0.34336   0.09284   0.16667   0.00000  Uiso   1.00
C32    C     0.15664   0.40716   0.16667   0.00000  Uiso   1.00
C33    C     0.15664   0.09284   0.16667   0.00000  Uiso   1.00
C34    C     0.06006   0.30982   0.16667   0.00000  Uiso   1.00
C35    C     0.34336   0.40716   0.16667   0.00000  Uiso   1.00
C36    C     0.31006   0.44018   0.16667   0.00000  Uiso   1.00
C37    C     0.18994   0.05982   0.16667   0.00000  Uiso   1.00
C38    C     0.18994   0.44018   0.16667   0.00000  Uiso   1.00
C39    C     0.31006   0.05982   0.16667   0.00000  Uiso   1.00
C40    C    -0.00000   0.28989   0.02389   0.00000  Uiso   1.00
H41    H     0.40253   0.15351   0.09404   0.00000  Uiso   1.00
H42    H     0.34747   0.09649   0.23929   0.00000  Uiso   1.00
H43    H     0.34747   0.09649   0.09404   0.00000  Uiso   1.00
H44    H     0.15253   0.40351   0.23929   0.00000  Uiso   1.00
H45    H     0.34747   0.40351   0.23929   0.00000  Uiso   1.00
H46    H     0.15253   0.09649   0.09404   0.00000  Uiso   1.00
H47    H     0.15253   0.09649   0.23929   0.00000  Uiso   1.00
H48    H     0.34747   0.40351   0.09404   0.00000  Uiso   1.00
H49    H     0.09747   0.34649   0.23929   0.00000  Uiso   1.00
H50    H     0.09747   0.34649   0.09404   0.00000  Uiso   1.00
H51    H     0.40253   0.15351   0.23929   0.00000  Uiso   1.00
H52    H     0.09747   0.15351   0.23929   0.00000  Uiso   1.00
H53    H     0.40253   0.34649   0.09404   0.00000  Uiso   1.00
H54    H     0.40253   0.34649   0.23929   0.00000  Uiso   1.00
H55    H     0.09747   0.15351   0.09404   0.00000  Uiso   1.00
H56    H     0.15253   0.40351   0.09404   0.00000  Uiso   1.00
I57    I    -0.00000   0.35324   0.05832   0.00000  Uiso   1.00
I58    I    -0.00000   0.14676   0.27501   0.00000  Uiso   1.00
I59    I     0.00000   0.14676   0.05832   0.00000  Uiso   1.00
I60    I     0.00000   0.35324   0.27501   0.00000  Uiso   1.00
I61    I     0.25000   0.10324   0.05832   0.00000  Uiso   1.00
I62    I     0.25000   0.39676   0.27501   0.00000  Uiso   1.00
I63    I     0.25000   0.39676   0.05832   0.00000  Uiso   1.00
I64    I     0.25000   0.10324   0.27501   0.00000  Uiso   1.00
N65    N     0.00000   0.25000   0.28573   0.00000  Uiso   1.00
N66    N    -0.00000   0.25000   0.04760   0.00000  Uiso   1.00
N67    N     0.25000   0.00000   0.28573   0.00000  Uiso   1.00
N68    N     0.25000   0.00000   0.04760   0.00000  Uiso   1.00
O69    O     0.04580   0.20419   0.20487   0.00000  Uiso   1.00
O70    O     0.20419   0.04581   0.12846   0.00000  Uiso   1.00
O71    O     0.20419   0.04581   0.20487   0.00000  Uiso   1.00
O72    O     0.29580   0.45419   0.12846   0.00000  Uiso   1.00
O73    O     0.20419   0.45419   0.12846   0.00000  Uiso   1.00
O74    O     0.29580   0.04581   0.20487   0.00000  Uiso   1.00
O75    O     0.29580   0.04581   0.12846   0.00000  Uiso   1.00
O76    O     0.20419   0.45419   0.20487   0.00000  Uiso   1.00
O77    O     0.45419   0.29581   0.12846   0.00000  Uiso   1.00
O78    O     0.45419   0.29581   0.20487   0.00000  Uiso   1.00
O79    O     0.04580   0.20419   0.12846   0.00000  Uiso   1.00
O80    O     0.45419   0.20419   0.12846   0.00000  Uiso   1.00
O81    O     0.04580   0.29581   0.20487   0.00000  Uiso   1.00
O82    O     0.04580   0.29581   0.12846   0.00000  Uiso   1.00
O83    O     0.45419   0.20419   0.20487   0.00000  Uiso   1.00
O84    O     0.29580   0.45419   0.20487   0.00000  Uiso   1.00
Zn85   Zn   -0.00000   0.25000   0.21771   0.00000  Uiso   1.00
Zn86   Zn    0.00000   0.25000   0.11563   0.00000  Uiso   1.00
Zn87   Zn    0.25000   0.00000   0.21771   0.00000  Uiso   1.00
Zn88   Zn    0.25000   0.00000   0.11563   0.00000  Uiso   1.00
C89    C     0.56006   0.19018   0.16667   0.00000  Uiso   1.00
C90    C     0.50000   0.21011   0.30944   0.00000  Uiso   1.00
C91    C     0.50000   0.21011   0.02389   0.00000  Uiso   1.00
C92    C     0.50000   0.28989   0.30944   0.00000  Uiso   1.00
C93    C     0.75000   0.03989   0.02389   0.00000  Uiso   1.00
C94    C     0.75000   0.46011   0.30944   0.00000  Uiso   1.00
C95    C     0.75000   0.46011   0.02389   0.00000  Uiso   1.00
C96    C     0.75000   0.03989   0.30944   0.00000  Uiso   1.00
C97    C     0.89075   0.14118   0.12588   0.00000  Uiso   1.00
C98    C     0.60925   0.35882   0.20745   0.00000  Uiso   1.00
C99    C     0.60925   0.35882   0.12588   0.00000  Uiso   1.00
C100   C     0.93994   0.30982   0.16667   0.00000  Uiso   1.00
C101   C     0.89075   0.14118   0.20745   0.00000  Uiso   1.00
C102   C     0.60925   0.14118   0.20745   0.00000  Uiso   1.00
C103   C     0.89075   0.35882   0.12588   0.00000  Uiso   1.00
C104   C     0.89075   0.35882   0.20745   0.00000  Uiso   1.00
C105   C     0.60925   0.14118   0.12588   0.00000  Uiso   1.00
C106   C     0.64075   0.39118   0.12588   0.00000  Uiso   1.00
C107   C     0.85925   0.10882   0.20745   0.00000  Uiso   1.00
C108   C     0.85925   0.10882   0.12588   0.00000  Uiso   1.00
C109   C     0.64075   0.39118   0.20745   0.00000  Uiso   1.00
C110   C     0.85925   0.39118   0.20745   0.00000  Uiso   1.00
C111   C     0.93994   0.19018   0.16667   0.00000  Uiso   1.00
C112   C     0.64075   0.10882   0.12588   0.00000  Uiso   1.00
C113   C     0.64075   0.10882   0.20745   0.00000  Uiso   1.00
C114   C     0.85925   0.39118   0.12588   0.00000  Uiso   1.00
C115   C     0.59336   0.34284   0.16667   0.00000  Uiso   1.00
C116   C     0.90664   0.15716   0.16667   0.00000  Uiso   1.00
C117   C     0.90664   0.34284   0.16667   0.00000  Uiso   1.00
C118   C     0.59336   0.15716   0.16667   0.00000  Uiso   1.00
C119   C     0.84336   0.09284   0.16667   0.00000  Uiso   1.00
C120   C     0.65664   0.40716   0.16667   0.00000  Uiso   1.00
C121   C     0.65664   0.09284   0.16667   0.00000  Uiso   1.00
C122   C     0.56006   0.30982   0.16667   0.00000  Uiso   1.00
C123   C     0.84336   0.40716   0.16667   0.00000  Uiso   1.00
C124   C     0.81006   0.44018   0.16667   0.00000  Uiso   1.00
C125   C     0.68994   0.05982   0.16667   0.00000  Uiso   1.00
C126   C     0.68994   0.44018   0.16667   0.00000  Uiso   1.00
C127   C     0.81006   0.05982   0.16667   0.00000  Uiso   1.00
C128   C     0.50000   0.28989   0.02389   0.00000  Uiso   1.00
H129   H     0.90253   0.15351   0.09404   0.00000  Uiso   1.00
H130   H     0.84747   0.09649   0.23929   0.00000  Uiso   1.00
H131   H     0.84747   0.09649   0.09404   0.00000  Uiso   1.00
H132   H     0.65253   0.40351   0.23929   0.00000  Uiso   1.00
H133   H     0.84747   0.40351   0.23929   0.00000  Uiso   1.00
H134   H     0.65253   0.09649   0.09404   0.00000  Uiso   1.00
H135   H     0.65253   0.09649   0.23929   0.00000  Uiso   1.00
H136   H     0.84747   0.40351   0.09404   0.00000  Uiso   1.00
H137   H     0.59747   0.34649   0.23929   0.00000  Uiso   1.00
H138   H     0.59747   0.34649   0.09404   0.00000  Uiso   1.00
H139   H     0.90253   0.15351   0.23929   0.00000  Uiso   1.00
H140   H     0.59747   0.15351   0.23929   0.00000  Uiso   1.00
H141   H     0.90253   0.34649   0.09404   0.00000  Uiso   1.00
H142   H     0.90253   0.34649   0.23929   0.00000  Uiso   1.00
H143   H     0.59747   0.15351   0.09404   0.00000  Uiso   1.00
H144   H     0.65253   0.40351   0.09404   0.00000  Uiso   1.00
I145   I     0.50000   0.35324   0.05832   0.00000  Uiso   1.00
I146   I     0.50000   0.14676   0.27501   0.00000  Uiso   1.00
I147   I     0.50000   0.14676   0.05832   0.00000  Uiso   1.00
I148   I     0.50000   0.35324   0.27501   0.00000  Uiso   1.00
I149   I     0.75000   0.10324   0.05832   0.00000  Uiso   1.00
I150   I     0.75000   0.39676   0.27501   0.00000  Uiso   1.00
I151   I     0.75000   0.39676   0.05832   0.00000  Uiso   1.00
I152   I     0.75000   0.10324   0.27501   0.00000  Uiso   1.00
N153   N     0.50000   0.25000   0.28573   0.00000  Uiso   1.00
N154   N     0.50000   0.25000   0.04760   0.00000  Uiso   1.00
N155   N     0.75000   0.00000   0.28573   0.00000  Uiso   1.00
N156   N     0.75000   0.00000   0.04760   0.00000  Uiso   1.00
O157   O     0.54580   0.20419   0.20487   0.00000  Uiso   1.00
O158   O     0.70419   0.04581   0.12846   0.00000  Uiso   1.00
O159   O     0.70419   0.04581   0.20487   0.00000  Uiso   1.00
O160   O     0.79580   0.45419   0.12846   0.00000  Uiso   1.00
O161   O     0.70419   0.45419   0.12846   0.00000  Uiso   1.00
O162   O     0.79580   0.04581   0.20487   0.00000  Uiso   1.00
O163   O     0.79580   0.04581   0.12846   0.00000  Uiso   1.00
O164   O     0.70419   0.45419   0.20487   0.00000  Uiso   1.00
O165   O     0.95419   0.29581   0.12846   0.00000  Uiso   1.00
O166   O     0.95419   0.29581   0.20487   0.00000  Uiso   1.00
O167   O     0.54580   0.20419   0.12846   0.00000  Uiso   1.00
O168   O     0.95419   0.20419   0.12846   0.00000  Uiso   1.00
O169   O     0.54580   0.29581   0.20487   0.00000  Uiso   1.00
O170   O     0.54580   0.29581   0.12846   0.00000  Uiso   1.00
O171   O     0.95419   0.20419   0.20487   0.00000  Uiso   1.00
O172   O     0.79580   0.45419   0.20487   0.00000  Uiso   1.00
Zn173  Zn    0.50000   0.25000   0.21771   0.00000  Uiso   1.00
Zn174  Zn    0.50000   0.25000   0.11563   0.00000  Uiso   1.00
Zn175  Zn    0.75000   0.00000   0.21771   0.00000  Uiso   1.00
Zn176  Zn    0.75000   0.00000   0.11563   0.00000  Uiso   1.00
C177   C     0.06006   0.69018   0.16667   0.00000  Uiso   1.00
C178   C    -0.00000   0.71011   0.30944   0.00000  Uiso   1.00
C179   C    -0.00000   0.71011   0.02389   0.00000  Uiso   1.00
C180   C    -0.00000   0.78989   0.30944   0.00000  Uiso   1.00
C181   C     0.25000   0.53989   0.02389   0.00000  Uiso   1.00
C182   C     0.25000   0.96011   0.30944   0.00000  Uiso   1.00
C183   C     0.25000   0.96011   0.02389   0.00000  Uiso   1.00
C184   C     0.25000   0.53989   0.30944   0.00000  Uiso   1.00
C185   C     0.39075   0.64118   0.12588   0.00000  Uiso   1.00
C186   C     0.10925   0.85882   0.20745   0.00000  Uiso   1.00
C187   C     0.10925   0.85882   0.12588   0.00000  Uiso   1.00
C188   C     0.43994   0.80982   0.16667   0.00000  Uiso   1.00
C189   C     0.39075   0.64118   0.20745   0.00000  Uiso   1.00
C190   C     0.10925   0.64118   0.20745   0.00000  Uiso   1.00
C191   C     0.39075   0.85882   0.12588   0.00000  Uiso   1.00
C192   C     0.39075   0.85882   0.20745   0.00000  Uiso   1.00
C193   C     0.10925   0.64118   0.12588   0.00000  Uiso   1.00
C194   C     0.14075   0.89118   0.12588   0.00000  Uiso   1.00
C195   C     0.35925   0.60882   0.20745   0.00000  Uiso   1.00
C196   C     0.35925   0.60882   0.12588   0.00000  Uiso   1.00
C197   C     0.14075   0.89118   0.20745   0.00000  Uiso   1.00
C198   C     0.35925   0.89118   0.20745   0.00000  Uiso   1.00
C199   C     0.43994   0.69018   0.16667   0.00000  Uiso   1.00
C200   C     0.14075   0.60882   0.12588   0.00000  Uiso   1.00
C201   C     0.14075   0.60882   0.20745   0.00000  Uiso   1.00
C202   C     0.35925   0.89118   0.12588   0.00000  Uiso   1.00
C203   C     0.09336   0.84284   0.16667   0.00000  Uiso   1.00
C204   C     0.40664   0.65716   0.16667   0.00000  Uiso   1.00
C205   C     0.40664   0.84284   0.16667   0.00000  Uiso   1.00
C206   C     0.09336   0.65716   0.16667   0.00000  Uiso   1.00
C207   C     0.34336   0.59284   0.16667   0.00000  Uiso   1.00
C208   C     0.15664   0.90716   0.16667   0.00000  Uiso   1.00
C209   C     0.15664   0.59284   0.16667   0.00000  Uiso   1.00
C210   C     0.06006   0.80982   0.16667   0.00000  Uiso   1.00
C211   C     0.34336   0.90716   0.16667   0.00000  Uiso   1.00
C212   C     0.31006   0.94018   0.16667   0.00000  Uiso   1.00
C213   C     0.18994   0.55982   0.16667   0.00000  Uiso   1.00
C214   C     0.18994   0.94018   0.16667   0.00000  Uiso   1.00
C215   C     0.31006   0.55982   0.16667   0.00000  Uiso   1.00
C216   C    -0.00000   0.78989   0.02389   0.00000  Uiso   1.00
H217   H     0.40253   0.65351   0.09404   0.00000  Uiso   1.00
H218   H     0.34747   0.59649   0.23929   0.00000  Uiso   1.00
H219   H     0.34747   0.59649   0.09404   0.00000  Uiso   1.00
H220   H     0.15253   0.90351   0.23929   0.00000  Uiso   1.00
H221   H     0.34747   0.90351   0.23929   0.00000  Uiso   1.00
H222   H     0.15253   0.59649   0.09404   0.00000  Uiso   1.00
H223   H     0.15253   0.59649   0.23929   0.00000  Uiso   1.00
H224   H     0.34747   0.90351   0.09404   0.00000  Uiso   1.00
H225   H     0.09747   0.84649   0.23929   0.00000  Uiso   1.00
H226   H     0.09747   0.84649   0.09404   0.00000  Uiso   1.00
H227   H     0.40253   0.65351   0.23929   0.00000  Uiso   1.00
H228   H     0.09747   0.65351   0.23929   0.00000  Uiso   1.00
H229   H     0.40253   0.84649   0.09404   0.00000  Uiso   1.00
H230   H     0.40253   0.84649   0.23929   0.00000  Uiso   1.00
H231   H     0.09747   0.65351   0.09404   0.00000  Uiso   1.00
H232   H     0.15253   0.90351   0.09404   0.00000  Uiso   1.00
I233   I    -0.00000   0.85324   0.05832   0.00000  Uiso   1.00
I234   I    -0.00000   0.64676   0.27501   0.00000  Uiso   1.00
I235   I     0.00000   0.64676   0.05832   0.00000  Uiso   1.00
I236   I     0.00000   0.85324   0.27501   0.00000  Uiso   1.00
I237   I     0.25000   0.60324   0.05832   0.00000  Uiso   1.00
I238   I     0.25000   0.89676   0.27501   0.00000  Uiso   1.00
I239   I     0.25000   0.89676   0.05832   0.00000  Uiso   1.00
I240   I     0.25000   0.60324   0.27501   0.00000  Uiso   1.00
N241   N     0.00000   0.75000   0.28573   0.00000  Uiso   1.00
N242   N    -0.00000   0.75000   0.04760   0.00000  Uiso   1.00
N243   N     0.25000   0.50000   0.28573   0.00000  Uiso   1.00
N244   N     0.25000   0.50000   0.04760   0.00000  Uiso   1.00
O245   O     0.04580   0.70419   0.20487   0.00000  Uiso   1.00
O246   O     0.20419   0.54581   0.12846   0.00000  Uiso   1.00
O247   O     0.20419   0.54581   0.20487   0.00000  Uiso   1.00
O248   O     0.29580   0.95419   0.12846   0.00000  Uiso   1.00
O249   O     0.20419   0.95419   0.12846   0.00000  Uiso   1.00
O250   O     0.29580   0.54581   0.20487   0.00000  Uiso   1.00
O251   O     0.29580   0.54581   0.12846   0.00000  Uiso   1.00
O252   O     0.20419   0.95419   0.20487   0.00000  Uiso   1.00
O253   O     0.45419   0.79581   0.12846   0.00000  Uiso   1.00
O254   O     0.45419   0.79581   0.20487   0.00000  Uiso   1.00
O255   O     0.04580   0.70419   0.12846   0.00000  Uiso   1.00
O256   O     0.45419   0.70419   0.12846   0.00000  Uiso   1.00
O257   O     0.04580   0.79581   0.20487   0.00000  Uiso   1.00
O258   O     0.04580   0.79581   0.12846   0.00000  Uiso   1.00
O259   O     0.45419   0.70419   0.20487   0.00000  Uiso   1.00
O260   O     0.29580   0.95419   0.20487   0.00000  Uiso   1.00
Zn261  Zn   -0.00000   0.75000   0.21771   0.00000  Uiso   1.00
Zn262  Zn    0.00000   0.75000   0.11563   0.00000  Uiso   1.00
Zn263  Zn    0.25000   0.50000   0.21771   0.00000  Uiso   1.00
Zn264  Zn    0.25000   0.50000   0.11563   0.00000  Uiso   1.00
C265   C     0.56006   0.69018   0.16667   0.00000  Uiso   1.00
C266   C     0.50000   0.71011   0.30944   0.00000  Uiso   1.00
C267   C     0.50000   0.71011   0.02389   0.00000  Uiso   1.00
C268   C     0.50000   0.78989   0.30944   0.00000  Uiso   1.00
C269   C     0.75000   0.53989   0.02389   0.00000  Uiso   1.00
C270   C     0.75000   0.96011   0.30944   0.00000  Uiso   1.00
C271   C     0.75000   0.96011   0.02389   0.00000  Uiso   1.00
C272   C     0.75000   0.53989   0.30944   0.00000  Uiso   1.00
C273   C     0.89075   0.64118   0.12588   0.00000  Uiso   1.00
C274   C     0.60925   0.85882   0.20745   0.00000  Uiso   1.00
C275   C     0.60925   0.85882   0.12588   0.00000  Uiso   1.00
C276   C     0.93994   0.80982   0.16667   0.00000  Uiso   1.00
C277   C     0.89075   0.64118   0.20745   0.00000  Uiso   1.00
C278   C     0.60925   0.64118   0.20745   0.00000  Uiso   1.00
C279   C     0.89075   0.85882   0.12588   0.00000  Uiso   1.00
C280   C     0.89075   0.85882   0.20745   0.00000  Uiso   1.00
C281   C     0.60925   0.64118   0.12588   0.00000  Uiso   1.00
C282   C     0.64075   0.89118   0.12588   0.00000  Uiso   1.00
C283   C     0.85925   0.60882   0.20745   0.00000  Uiso   1.00
C284   C     0.85925   0.60882   0.12588   0.00000  Uiso   1.00
C285   C     0.64075   0.89118   0.20745   0.00000  Uiso   1.00
C286   C     0.85925   0.89118   0.20745   0.00000  Uiso   1.00
C287   C     0.93994   0.69018   0.16667   0.00000  Uiso   1.00
C288   C     0.64075   0.60882   0.12588   0.00000  Uiso   1.00
C289   C     0.64075   0.60882   0.20745   0.00000  Uiso   1.00
C290   C     0.85925   0.89118   0.12588   0.00000  Uiso   1.00
C291   C     0.59336   0.84284   0.16667   0.00000  Uiso   1.00
C292   C     0.90664   0.65716   0.16667   0.00000  Uiso   1.00
C293   C     0.90664   0.84284   0.16667   0.00000  Uiso   1.00
C294   C     0.59336   0.65716   0.16667   0.00000  Uiso   1.00
C295   C     0.84336   0.59284   0.16667   0.00000  Uiso   1.00
C296   C     0.65664   0.90716   0.16667   0.00000  Uiso   1.00
C297   C     0.65664   0.59284   0.16667   0.00000  Uiso   1.00
C298   C     0.56006   0.80982   0.16667   0.00000  Uiso   1.00
C299   C     0.84336   0.90716   0.16667   0.00000  Uiso   1.00
C300   C     0.81006   0.94018   0.16667   0.00000  Uiso   1.00
C301   C     0.68994   0.55982   0.16667   0.00000  Uiso   1.00
C302   C     0.68994   0.94018   0.16667   0.00000  Uiso   1.00
C303   C     0.81006   0.55982   0.16667   0.00000  Uiso   1.00
C304   C     0.50000   0.78989   0.02389   0.00000  Uiso   1.00
H305   H     0.90253   0.65351   0.09404   0.00000  Uiso   1.00
H306   H     0.84747   0.59649   0.23929   0.00000  Uiso   1.00
H307   H     0.84747   0.59649   0.09404   0.00000  Uiso   1.00
H308   H     0.65253   0.90351   0.23929   0.00000  Uiso   1.00
H309   H     0.84747   0.90351   0.23929   0.00000  Uiso   1.00
H310   H     0.65253   0.59649   0.09404   0.00000  Uiso   1.00
H311   H     0.65253   0.59649   0.23929   0.00000  Uiso   1.00
H312   H     0.84747   0.90351   0.09404   0.00000  Uiso   1.00
H313   H     0.59747   0.84649   0.23929   0.00000  Uiso   1.00
H314   H     0.59747   0.84649   0.09404   0.00000  Uiso   1.00
H315   H     0.90253   0.65351   0.23929   0.00000  Uiso   1.00
H316   H     0.59747   0.65351   0.23929   0.00000  Uiso   1.00
H317   H     0.90253   0.84649   0.09404   0.00000  Uiso   1.00
H318   H     0.90253   0.84649   0.23929   0.00000  Uiso   1.00
H319   H     0.59747   0.65351   0.09404   0.00000  Uiso   1.00
H320   H     0.65253   0.90351   0.09404   0.00000  Uiso   1.00
I321   I     0.50000   0.85324   0.05832   0.00000  Uiso   1.00
I322   I     0.50000   0.64676   0.27501   0.00000  Uiso   1.00
I323   I     0.50000   0.64676   0.05832   0.00000  Uiso   1.00
I324   I     0.50000   0.85324   0.27501   0.00000  Uiso   1.00
I325   I     0.75000   0.60324   0.05832   0.00000  Uiso   1.00
I326   I     0.75000   0.89676   0.27501   0.00000  Uiso   1.00
I327   I     0.75000   0.89676   0.05832   0.00000  Uiso   1.00
I328   I     0.75000   0.60324   0.27501   0.00000  Uiso   1.00
N329   N     0.50000   0.75000   0.28573   0.00000  Uiso   1.00
N330   N     0.50000   0.75000   0.04760   0.00000  Uiso   1.00
N331   N     0.75000   0.50000   0.28573   0.00000  Uiso   1.00
N332   N     0.75000   0.50000   0.04760   0.00000  Uiso   1.00
O333   O     0.54580   0.70419   0.20487   0.00000  Uiso   1.00
O334   O     0.70419   0.54581   0.12846   0.00000  Uiso   1.00
O335   O     0.70419   0.54581   0.20487   0.00000  Uiso   1.00
O336   O     0.79580   0.95419   0.12846   0.00000  Uiso   1.00
O337   O     0.70419   0.95419   0.12846   0.00000  Uiso   1.00
O338   O     0.79580   0.54581   0.20487   0.00000  Uiso   1.00
O339   O     0.79580   0.54581   0.12846   0.00000  Uiso   1.00
O340   O     0.70419   0.95419   0.20487   0.00000  Uiso   1.00
O341   O     0.95419   0.79581   0.12846   0.00000  Uiso   1.00
O342   O     0.95419   0.79581   0.20487   0.00000  Uiso   1.00
O343   O     0.54580   0.70419   0.12846   0.00000  Uiso   1.00
O344   O     0.95419   0.70419   0.12846   0.00000  Uiso   1.00
O345   O     0.54580   0.79581   0.20487   0.00000  Uiso   1.00
O346   O     0.54580   0.79581   0.12846   0.00000  Uiso   1.00
O347   O     0.95419   0.70419   0.20487   0.00000  Uiso   1.00
O348   O     0.79580   0.95419   0.20487   0.00000  Uiso   1.00
Zn349  Zn    0.50000   0.75000   0.21771   0.00000  Uiso   1.00
Zn350  Zn    0.50000   0.75000   0.11563   0.00000  Uiso   1.00
Zn351  Zn    0.75000   0.50000   0.21771   0.00000  Uiso   1.00
Zn352  Zn    0.75000   0.50000   0.11563   0.00000  Uiso   1.00
C353   C     0.06006   0.19018   0.50000   0.00000  Uiso   1.00
C354   C    -0.00000   0.21011   0.64277   0.00000  Uiso   1.00
C355   C    -0.00000   0.21011   0.35723   0.00000  Uiso   1.00
C356   C    -0.00000   0.28989   0.64277   0.00000  Uiso   1.00
C357   C     0.25000   0.03989   0.35723   0.00000  Uiso   1.00
C358   C     0.25000   0.46011   0.64277   0.00000  Uiso   1.00
C359   C     0.25000   0.46011   0.35723   0.00000  Uiso   1.00
C360   C     0.25000   0.03989   0.64277   0.00000  Uiso   1.00
C361   C     0.39075   0.14118   0.45922   0.00000  Uiso   1.00
C362   C     0.10925   0.35882   0.54078   0.00000  Uiso   1.00
C363   C     0.10925   0.35882   0.45922   0.00000  Uiso   1.00
C364   C     0.43994   0.30982   0.50000   0.00000  Uiso   1.00
C365   C     0.39075   0.14118   0.54078   0.00000  Uiso   1.00
C366   C     0.10925   0.14118   0.54078   0.00000  Uiso   1.00
C367   C     0.39075   0.35882   0.45922   0.00000  Uiso   1.00
C368   C     0.39075   0.35882   0.54078   0.00000  Uiso   1.00
C369   C     0.10925   0.14118   0.45922   0.00000  Uiso   1.00
C370   C     0.14075   0.39118   0.45922   0.00000  Uiso   1.00
C371   C     0.35925   0.10882   0.54078   0.00000  Uiso   1.00
C372   C     0.35925   0.10882   0.45922   0.00000  Uiso   1.00
C373   C     0.14075   0.39118   0.54078   0.00000  Uiso   1.00
C374   C     0.35925   0.39118   0.54078   0.00000  Uiso   1.00
C375   C     0.43994   0.19018   0.50000   0.00000  Uiso   1.00
C376   C     0.14075   0.10882   0.45922   0.00000  Uiso   1.00
C377   C     0.14075   0.10882   0.54078   0.00000  Uiso   1.00
C378   C     0.35925   0.39118   0.45922   0.00000  Uiso   1.00
C379   C     0.09336   0.34284   0.50000   0.00000  Uiso   1.00
C380   C     0.40664   0.15716   0.50000   0.00000  Uiso   1.00
C381   C     0.40664   0.34284   0.50000   0.00000  Uiso   1.00
C382   C     0.09336   0.15716   0.50000   0.00000  Uiso   1.00
C383   C     0.34336   0.09284   0.50000   0.00000  Uiso   1.00
C384   C     0.15664   0.40716   0.50000   0.00000  Uiso   1.00
C385   C     0.15664   0.09284   0.50000   0.00000  Uiso   1.00
C386   C     0.06006   0.30982   0.50000   0.00000  Uiso   1.00
C387   C     0.34336   0.40716   0.50000   0.00000  Uiso   1.00
C388   C     0.31006   0.44018   0.50000   0.00000  Uiso   1.00
C389   C     0.18994   0.05982   0.50000   0.00000  Uiso   1.00
C390   C     0.18994   0.44018   0.50000   0.00000  Uiso   1.00
C391   C     0.31006   0.05982   0.50000   0.00000  Uiso   1.00
C392   C    -0.00000   0.28989   0.35723   0.00000  Uiso   1.00
H393   H     0.40253   0.15351   0.42737   0.00000  Uiso   1.00
H394   H     0.34747   0.09649   0.57263   0.00000  Uiso   1.00
H395   H     0.34747   0.09649   0.42737   0.00000  Uiso   1.00
H396   H     0.15253   0.40351   0.57263   0.00000  Uiso   1.00
H397   H     0.34747   0.40351   0.57263   0.00000  Uiso   1.00
H398   H     0.15253   0.09649   0.42737   0.00000  Uiso   1.00
H399   H     0.15253   0.09649   0.57263   0.00000  Uiso   1.00
H400   H     0.34747   0.40351   0.42737   0.00000  Uiso   1.00
H401   H     0.09747   0.34649   0.57263   0.00000  Uiso   1.00
H402   H     0.09747   0.34649   0.42737   0.00000  Uiso   1.00
H403   H     0.40253   0.15351   0.57263   0.00000  Uiso   1.00
H404   H     0.09747   0.15351   0.57263   0.00000  Uiso   1.00
H405   H     0.40253   0.34649   0.42737   0.00000  Uiso   1.00
H406   H     0.40253   0.34649   0.57263   0.00000  Uiso   1.00
H407   H     0.09747   0.15351   0.42737   0.00000  Uiso   1.00
H408   H     0.15253   0.40351   0.42737   0.00000  Uiso   1.00
I409   I    -0.00000   0.35324   0.39166   0.00000  Uiso   1.00
I410   I    -0.00000   0.14676   0.60834   0.00000  Uiso   1.00
I411   I     0.00000   0.14676   0.39166   0.00000  Uiso   1.00
I412   I     0.00000   0.35324   0.60834   0.00000  Uiso   1.00
I413   I     0.25000   0.10324   0.39166   0.00000  Uiso   1.00
I414   I     0.25000   0.39676   0.60834   0.00000  Uiso   1.00
I415   I     0.25000   0.39676   0.39166   0.00000  Uiso   1.00
I416   I     0.25000   0.10324   0.60834   0.00000  Uiso   1.00
N417   N     0.00000   0.25000   0.61907   0.00000  Uiso   1.00
N418   N    -0.00000   0.25000   0.38093   0.00000  Uiso   1.00
N419   N     0.25000   0.00000   0.61907   0.00000  Uiso   1.00
N420   N     0.25000   0.00000   0.38093   0.00000  Uiso   1.00
O421   O     0.04580   0.20419   0.53821   0.00000  Uiso   1.00
O422   O     0.20419   0.04581   0.46179   0.00000  Uiso   1.00
O423   O     0.20419   0.04581   0.53821   0.00000  Uiso   1.00
O424   O     0.29580   0.45419   0.46179   0.00000  Uiso   1.00
O425   O     0.20419   0.45419   0.46179   0.00000  Uiso   1.00
O426   O     0.29580   0.04581   0.53821   0.00000  Uiso   1.00
O427   O     0.29580   0.04581   0.46179   0.00000  Uiso   1.00
O428   O     0.20419   0.45419   0.53821   0.00000  Uiso   1.00
O429   O     0.45419   0.29581   0.46179   0.00000  Uiso   1.00
O430   O     0.45419   0.29581   0.53821   0.00000  Uiso   1.00
O431   O     0.04580   0.20419   0.46179   0.00000  Uiso   1.00
O432   O     0.45419   0.20419   0.46179   0.00000  Uiso   1.00
O433   O     0.04580   0.29581   0.53821   0.00000  Uiso   1.00
O434   O     0.04580   0.29581   0.46179   0.00000  Uiso   1.00
O435   O     0.45419   0.20419   0.53821   0.00000  Uiso   1.00
O436   O     0.29580   0.45419   0.53821   0.00000  Uiso   1.00
Zn437  Zn   -0.00000   0.25000   0.55104   0.00000  Uiso   1.00
Zn438  Zn    0.00000   0.25000   0.44896   0.00000  Uiso   1.00
Zn439  Zn    0.25000   0.00000   0.55104   0.00000  Uiso   1.00
Zn440  Zn    0.25000   0.00000   0.44896   0.00000  Uiso   1.00
C441   C     0.56006   0.19018   0.50000   0.00000  Uiso   1.00
C442   C     0.50000   0.21011   0.64277   0.00000  Uiso   1.00
C443   C     0.50000   0.21011   0.35723   0.00000  Uiso   1.00
C444   C     0.50000   0.28989   0.64277   0.00000  Uiso   1.00
C445   C     0.75000   0.03989   0.35723   0.00000  Uiso   1.00
C446   C     0.75000   0.46011   0.64277   0.00000  Uiso   1.00
C447   C     0.75000   0.46011   0.35723   0.00000  Uiso   1.00
C448   C     0.75000   0.03989   0.64277   0.00000  Uiso   1.00
C449   C     0.89075   0.14118   0.45922   0.00000  Uiso   1.00
C450   C     0.60925   0.35882   0.54078   0.00000  Uiso   1.00
C451   C     0.60925   0.35882   0.45922   0.00000  Uiso   1.00
C452   C     0.93994   0.30982   0.50000   0.00000  Uiso   1.00
C453   C     0.89075   0.14118   0.54078   0.00000  Uiso   1.00
C454   C     0.60925   0.14118   0.54078   0.00000  Uiso   1.00
C455   C     0.89075   0.35882   0.45922   0.00000  Uiso   1.00
C456   C     0.89075   0.35882   0.54078   0.00000  Uiso   1.00
C457   C     0.60925   0.14118   0.45922   0.00000  Uiso   1.00
C458   C     0.64075   0.39118   0.45922   0.00000  Uiso   1.00
C459   C     0.85925   0.10882   0.54078   0.00000  Uiso   1.00
C460   C     0.85925   0.10882   0.45922   0.00000  Uiso   1.00
C461   C     0.64075   0.39118   0.54078   0.00000  Uiso   1.00
C462   C     0.85925   0.39118   0.54078   0.00000  Uiso   1.00
C463   C     0.93994   0.19018   0.50000   0.00000  Uiso   1.00
C464   C     0.64075   0.10882   0.45922   0.00000  Uiso   1.00
C465   C     0.64075   0.10882   0.54078   0.00000  Uiso   1.00
C466   C     0.85925   0.39118   0.45922   0.00000  Uiso   1.00
C467   C     0.59336   0.34284   0.50000   0.00000  Uiso   1.00
C468   C     0.90664   0.15716   0.50000   0.00000  Uiso   1.00
C469   C     0.90664   0.34284   0.50000   0.00000  Uiso   1.00
C470   C     0.59336   0.15716   0.50000   0.00000  Uiso   1.00
C471   C     0.84336   0.09284   0.50000   0.00000  Uiso   1.00
C472   C     0.65664   0.40716   0.50000   0.00000  Uiso   1.00
C473   C     0.65664   0.09284   0.50000   0.00000  Uiso   1.00
C474   C     0.56006   0.30982   0.50000   0.00000  Uiso   1.00
C475   C     0.84336   0.40716   0.50000   0.00000  Uiso   1.00
C476   C     0.81006   0.44018   0.50000   0.00000  Uiso   1.00
C477   C     0.68994   0.05982   0.50000   0.00000  Uiso   1.00
C478   C     0.68994   0.44018   0.50000   0.00000  Uiso   1.00
C479   C     0.81006   0.05982   0.50000   0.00000  Uiso   1.00
C480   C     0.50000   0.28989   0.35723   0.00000  Uiso   1.00
H481   H     0.90253   0.15351   0.42737   0.00000  Uiso   1.00
H482   H     0.84747   0.09649   0.57263   0.00000  Uiso   1.00
H483   H     0.84747   0.09649   0.42737   0.00000  Uiso   1.00
H484   H     0.65253   0.40351   0.57263   0.00000  Uiso   1.00
H485   H     0.84747   0.40351   0.57263   0.00000  Uiso   1.00
H486   H     0.65253   0.09649   0.42737   0.00000  Uiso   1.00
H487   H     0.65253   0.09649   0.57263   0.00000  Uiso   1.00
H488   H     0.84747   0.40351   0.42737   0.00000  Uiso   1.00
H489   H     0.59747   0.34649   0.57263   0.00000  Uiso   1.00
H490   H     0.59747   0.34649   0.42737   0.00000  Uiso   1.00
H491   H     0.90253   0.15351   0.57263   0.00000  Uiso   1.00
H492   H     0.59747   0.15351   0.57263   0.00000  Uiso   1.00
H493   H     0.90253   0.34649   0.42737   0.00000  Uiso   1.00
H494   H     0.90253   0.34649   0.57263   0.00000  Uiso   1.00
H495   H     0.59747   0.15351   0.42737   0.00000  Uiso   1.00
H496   H     0.65253   0.40351   0.42737   0.00000  Uiso   1.00
I497   I     0.50000   0.35324   0.39166   0.00000  Uiso   1.00
I498   I     0.50000   0.14676   0.60834   0.00000  Uiso   1.00
I499   I     0.50000   0.14676   0.39166   0.00000  Uiso   1.00
I500   I     0.50000   0.35324   0.60834   0.00000  Uiso   1.00
I501   I     0.75000   0.10324   0.39166   0.00000  Uiso   1.00
I502   I     0.75000   0.39676   0.60834   0.00000  Uiso   1.00
I503   I     0.75000   0.39676   0.39166   0.00000  Uiso   1.00
I504   I     0.75000   0.10324   0.60834   0.00000  Uiso   1.00
N505   N     0.50000   0.25000   0.61907   0.00000  Uiso   1.00
N506   N     0.50000   0.25000   0.38093   0.00000  Uiso   1.00
N507   N     0.75000   0.00000   0.61907   0.00000  Uiso   1.00
N508   N     0.75000   0.00000   0.38093   0.00000  Uiso   1.00
O509   O     0.54580   0.20419   0.53821   0.00000  Uiso   1.00
O510   O     0.70419   0.04581   0.46179   0.00000  Uiso   1.00
O511   O     0.70419   0.04581   0.53821   0.00000  Uiso   1.00
O512   O     0.79580   0.45419   0.46179   0.00000  Uiso   1.00
O513   O     0.70419   0.45419   0.46179   0.00000  Uiso   1.00
O514   O     0.79580   0.04581   0.53821   0.00000  Uiso   1.00
O515   O     0.79580   0.04581   0.46179   0.00000  Uiso   1.00
O516   O     0.70419   0.45419   0.53821   0.00000  Uiso   1.00
O517   O     0.95419   0.29581   0.46179   0.00000  Uiso   1.00
O518   O     0.95419   0.29581   0.53821   0.00000  Uiso   1.00
O519   O     0.54580   0.20419   0.46179   0.00000  Uiso   1.00
O520   O     0.95419   0.20419   0.46179   0.00000  Uiso   1.00
O521   O     0.54580   0.29581   0.53821   0.00000  Uiso   1.00
O522   O     0.54580   0.29581   0.46179   0.00000  Uiso   1.00
O523   O     0.95419   0.20419   0.53821   0.00000  Uiso   1.00
O524   O     0.79580   0.45419   0.53821   0.00000  Uiso   1.00
Zn525  Zn    0.50000   0.25000   0.55104   0.00000  Uiso   1.00
Zn526  Zn    0.50000   0.25000   0.44896   0.00000  Uiso   1.00
Zn527  Zn    0.75000   0.00000   0.55104   0.00000  Uiso   1.00
Zn528  Zn    0.75000   0.00000   0.44896   0.00000  Uiso   1.00
C529   C     0.06006   0.69018   0.50000   0.00000  Uiso   1.00
C530   C    -0.00000   0.71011   0.64277   0.00000  Uiso   1.00
C531   C    -0.00000   0.71011   0.35723   0.00000  Uiso   1.00
C532   C    -0.00000   0.78989   0.64277   0.00000  Uiso   1.00
C533   C     0.25000   0.53989   0.35723   0.00000  Uiso   1.00
C534   C     0.25000   0.96011   0.64277   0.00000  Uiso   1.00
C535   C     0.25000   0.96011   0.35723   0.00000  Uiso   1.00
C536   C     0.25000   0.53989   0.64277   0.00000  Uiso   1.00
C537   C     0.39075   0.64118   0.45922   0.00000  Uiso   1.00
C538   C     0.10925   0.85882   0.54078   0.00000  Uiso   1.00
C539   C     0.10925   0.85882   0.45922   0.00000  Uiso   1.00
C540   C     0.43994   0.80982   0.50000   0.00000  Uiso   1.00
C541   C     0.39075   0.64118   0.54078   0.00000  Uiso   1.00
C542   C     0.10925   0.64118   0.54078   0.00000  Uiso   1.00
C543   C     0.39075   0.85882   0.45922   0.00000  Uiso   1.00
C544   C     0.39075   0.85882   0.54078   0.00000  Uiso   1.00
C545   C     0.10925   0.64118   0.45922   0.00000  Uiso   1.00
C546   C     0.14075   0.89118   0.45922   0.00000  Uiso   1.00
C547   C     0.35925   0.60882   0.54078   0.00000  Uiso   1.00
C548   C     0.35925   0.60882   0.45922   0.00000  Uiso   1.00
C549   C     0.14075   0.89118   0.54078   0.00000  Uiso   1.00
C550   C     0.35925   0.89118   0.54078   0.00000  Uiso   1.00
C551   C     0.43994   0.69018   0.50000   0.00000  Uiso   1.00
C552   C     0.14075   0.60882   0.45922   0.00000  Uiso   1.00
C553   C     0.14075   0.60882   0.54078   0.00000  Uiso   1.00
C554   C     0.35925   0.89118   0.45922   0.00000  Uiso   1.00
C555   C     0.09336   0.84284   0.50000   0.00000  Uiso   1.00
C556   C     0.40664   0.65716   0.50000   0.00000  Uiso   1.00
C557   C     0.40664   0.84284   0.50000   0.00000  Uiso   1.00
C558   C     0.09336   0.65716   0.50000   0.00000  Uiso   1.00
C559   C     0.34336   0.59284   0.50000   0.00000  Uiso   1.00
C560   C     0.15664   0.90716   0.50000   0.00000  Uiso   1.00
C561   C     0.15664   0.59284   0.50000   0.00000  Uiso   1.00
C562   C     0.06006   0.80982   0.50000   0.00000  Uiso   1.00
C563   C     0.34336   0.90716   0.50000   0.00000  Uiso   1.00
C564   C     0.31006   0.94018   0.50000   0.00000  Uiso   1.00
C565   C     0.18994   0.55982   0.50000   0.00000  Uiso   1.00
C566   C     0.18994   0.94018   0.50000   0.00000  Uiso   1.00
C567   C     0.31006   0.55982   0.50000   0.00000  Uiso   1.00
C568   C    -0.00000   0.78989   0.35723   0.00000  Uiso   1.00
H569   H     0.40253   0.65351   0.42737   0.00000  Uiso   1.00
H570   H     0.34747   0.59649   0.57263   0.00000  Uiso   1.00
H571   H     0.34747   0.59649   0.42737   0.00000  Uiso   1.00
H572   H     0.15253   0.90351   0.57263   0.00000  Uiso   1.00
H573   H     0.34747   0.90351   0.57263   0.00000  Uiso   1.00
H574   H     0.15253   0.59649   0.42737   0.00000  Uiso   1.00
H575   H     0.15253   0.59649   0.57263   0.00000  Uiso   1.00
H576   H     0.34747   0.90351   0.42737   0.00000  Uiso   1.00
H577   H     0.09747   0.84649   0.57263   0.00000  Uiso   1.00
H578   H     0.09747   0.84649   0.42737   0.00000  Uiso   1.00
H579   H     0.40253   0.65351   0.57263   0.00000  Uiso   1.00
H580   H     0.09747   0.65351   0.57263   0.00000  Uiso   1.00
H581   H     0.40253   0.84649   0.42737   0.00000  Uiso   1.00
H582   H     0.40253   0.84649   0.57263   0.00000  Uiso   1.00
H583   H     0.09747   0.65351   0.42737   0.00000  Uiso   1.00
H584   H     0.15253   0.90351   0.42737   0.00000  Uiso   1.00
I585   I    -0.00000   0.85324   0.39166   0.00000  Uiso   1.00
I586   I    -0.00000   0.64676   0.60834   0.00000  Uiso   1.00
I587   I     0.00000   0.64676   0.39166   0.00000  Uiso   1.00
I588   I     0.00000   0.85324   0.60834   0.00000  Uiso   1.00
I589   I     0.25000   0.60324   0.39166   0.00000  Uiso   1.00
I590   I     0.25000   0.89676   0.60834   0.00000  Uiso   1.00
I591   I     0.25000   0.89676   0.39166   0.00000  Uiso   1.00
I592   I     0.25000   0.60324   0.60834   0.00000  Uiso   1.00
N593   N     0.00000   0.75000   0.61907   0.00000  Uiso   1.00
N594   N    -0.00000   0.75000   0.38093   0.00000  Uiso   1.00
N595   N     0.25000   0.50000   0.61907   0.00000  Uiso   1.00
N596   N     0.25000   0.50000   0.38093   0.00000  Uiso   1.00
O597   O     0.04580   0.70419   0.53821   0.00000  Uiso   1.00
O598   O     0.20419   0.54581   0.46179   0.00000  Uiso   1.00
O599   O     0.20419   0.54581   0.53821   0.00000  Uiso   1.00
O600   O     0.29580   0.95419   0.46179   0.00000  Uiso   1.00
O601   O     0.20419   0.95419   0.46179   0.00000  Uiso   1.00
O602   O     0.29580   0.54581   0.53821   0.00000  Uiso   1.00
O603   O     0.29580   0.54581   0.46179   0.00000  Uiso   1.00
O604   O     0.20419   0.95419   0.53821   0.00000  Uiso   1.00
O605   O     0.45419   0.79581   0.46179   0.00000  Uiso   1.00
O606   O     0.45419   0.79581   0.53821   0.00000  Uiso   1.00
O607   O     0.04580   0.70419   0.46179   0.00000  Uiso   1.00
O608   O     0.45419   0.70419   0.46179   0.00000  Uiso   1.00
O609   O     0.04580   0.79581   0.53821   0.00000  Uiso   1.00
O610   O     0.04580   0.79581   0.46179   0.00000  Uiso   1.00
O611   O     0.45419   0.70419   0.53821   0.00000  Uiso   1.00
O612   O     0.29580   0.95419   0.53821   0.00000  Uiso   1.00
Zn613  Zn   -0.00000   0.75000   0.55104   0.00000  Uiso   1.00
Zn614  Zn    0.00000   0.75000   0.44896   0.00000  Uiso   1.00
Zn615  Zn    0.25000   0.50000   0.55104   0.00000  Uiso   1.00
Zn616  Zn    0.25000   0.50000   0.44896   0.00000  Uiso   1.00
C617   C     0.56006   0.69018   0.50000   0.00000  Uiso   1.00
C618   C     0.50000   0.71011   0.64277   0.00000  Uiso   1.00
C619   C     0.50000   0.71011   0.35723   0.00000  Uiso   1.00
C620   C     0.50000   0.78989   0.64277   0.00000  Uiso   1.00
C621   C     0.75000   0.53989   0.35723   0.00000  Uiso   1.00
C622   C     0.75000   0.96011   0.64277   0.00000  Uiso   1.00
C623   C     0.75000   0.96011   0.35723   0.00000  Uiso   1.00
C624   C     0.75000   0.53989   0.64277   0.00000  Uiso   1.00
C625   C     0.89075   0.64118   0.45922   0.00000  Uiso   1.00
C626   C     0.60925   0.85882   0.54078   0.00000  Uiso   1.00
C627   C     0.60925   0.85882   0.45922   0.00000  Uiso   1.00
C628   C     0.93994   0.80982   0.50000   0.00000  Uiso   1.00
C629   C     0.89075   0.64118   0.54078   0.00000  Uiso   1.00
C630   C     0.60925   0.64118   0.54078   0.00000  Uiso   1.00
C631   C     0.89075   0.85882   0.45922   0.00000  Uiso   1.00
C632   C     0.89075   0.85882   0.54078   0.00000  Uiso   1.00
C633   C     0.60925   0.64118   0.45922   0.00000  Uiso   1.00
C634   C     0.64075   0.89118   0.45922   0.00000  Uiso   1.00
C635   C     0.85925   0.60882   0.54078   0.00000  Uiso   1.00
C636   C     0.85925   0.60882   0.45922   0.00000  Uiso   1.00
C637   C     0.64075   0.89118   0.54078   0.00000  Uiso   1.00
C638   C     0.85925   0.89118   0.54078   0.00000  Uiso   1.00
C639   C     0.93994   0.69018   0.50000   0.00000  Uiso   1.00
C640   C     0.64075   0.60882   0.45922   0.00000  Uiso   1.00
C641   C     0.64075   0.60882   0.54078   0.00000  Uiso   1.00
C642   C     0.85925   0.89118   0.45922   0.00000  Uiso   1.00
C643   C     0.59336   0.84284   0.50000   0.00000  Uiso   1.00
C644   C     0.90664   0.65716   0.50000   0.00000  Uiso   1.00
C645   C     0.90664   0.84284   0.50000   0.00000  Uiso   1.00
C646   C     0.59336   0.65716   0.50000   0.00000  Uiso   1.00
C647   C     0.84336   0.59284   0.50000   0.00000  Uiso   1.00
C648   C     0.65664   0.90716   0.50000   0.00000  Uiso   1.00
C649   C     0.65664   0.59284   0.50000   0.00000  Uiso   1.00
C650   C     0.56006   0.80982   0.50000   0.00000  Uiso   1.00
C651   C     0.84336   0.90716   0.50000   0.00000  Uiso   1.00
C652   C     0.81006   0.94018   0.50000   0.00000  Uiso   1.00
C653   C     0.68994   0.55982   0.50000   0.00000  Uiso   1.00
C654   C     0.68994   0.94018   0.50000   0.00000  Uiso   1.00
C655   C     0.81006   0.55982   0.50000   0.00000  Uiso   1.00
C656   C     0.50000   0.78989   0.35723   0.00000  Uiso   1.00
H657   H     0.90253   0.65351   0.42737   0.00000  Uiso   1.00
H658   H     0.84747   0.59649   0.57263   0.00000  Uiso   1.00
H659   H     0.84747   0.59649   0.42737   0.00000  Uiso   1.00
H660   H     0.65253   0.90351   0.57263   0.00000  Uiso   1.00
H661   H     0.84747   0.90351   0.57263   0.00000  Uiso   1.00
H662   H     0.65253   0.59649   0.42737   0.00000  Uiso   1.00
H663   H     0.65253   0.59649   0.57263   0.00000  Uiso   1.00
H664   H     0.84747   0.90351   0.42737   0.00000  Uiso   1.00
H665   H     0.59747   0.84649   0.57263   0.00000  Uiso   1.00
H666   H     0.59747   0.84649   0.42737   0.00000  Uiso   1.00
H667   H     0.90253   0.65351   0.57263   0.00000  Uiso   1.00
H668   H     0.59747   0.65351   0.57263   0.00000  Uiso   1.00
H669   H     0.90253   0.84649   0.42737   0.00000  Uiso   1.00
H670   H     0.90253   0.84649   0.57263   0.00000  Uiso   1.00
H671   H     0.59747   0.65351   0.42737   0.00000  Uiso   1.00
H672   H     0.65253   0.90351   0.42737   0.00000  Uiso   1.00
I673   I     0.50000   0.85324   0.39166   0.00000  Uiso   1.00
I674   I     0.50000   0.64676   0.60834   0.00000  Uiso   1.00
I675   I     0.50000   0.64676   0.39166   0.00000  Uiso   1.00
I676   I     0.50000   0.85324   0.60834   0.00000  Uiso   1.00
I677   I     0.75000   0.60324   0.39166   0.00000  Uiso   1.00
I678   I     0.75000   0.89676   0.60834   0.00000  Uiso   1.00
I679   I     0.75000   0.89676   0.39166   0.00000  Uiso   1.00
I680   I     0.75000   0.60324   0.60834   0.00000  Uiso   1.00
N681   N     0.50000   0.75000   0.61907   0.00000  Uiso   1.00
N682   N     0.50000   0.75000   0.38093   0.00000  Uiso   1.00
N683   N     0.75000   0.50000   0.61907   0.00000  Uiso   1.00
N684   N     0.75000   0.50000   0.38093   0.00000  Uiso   1.00
O685   O     0.54580   0.70419   0.53821   0.00000  Uiso   1.00
O686   O     0.70419   0.54581   0.46179   0.00000  Uiso   1.00
O687   O     0.70419   0.54581   0.53821   0.00000  Uiso   1.00
O688   O     0.79580   0.95419   0.46179   0.00000  Uiso   1.00
O689   O     0.70419   0.95419   0.46179   0.00000  Uiso   1.00
O690   O     0.79580   0.54581   0.53821   0.00000  Uiso   1.00
O691   O     0.79580   0.54581   0.46179   0.00000  Uiso   1.00
O692   O     0.70419   0.95419   0.53821   0.00000  Uiso   1.00
O693   O     0.95419   0.79581   0.46179   0.00000  Uiso   1.00
O694   O     0.95419   0.79581   0.53821   0.00000  Uiso   1.00
O695   O     0.54580   0.70419   0.46179   0.00000  Uiso   1.00
O696   O     0.95419   0.70419   0.46179   0.00000  Uiso   1.00
O697   O     0.54580   0.79581   0.53821   0.00000  Uiso   1.00
O698   O     0.54580   0.79581   0.46179   0.00000  Uiso   1.00
O699   O     0.95419   0.70419   0.53821   0.00000  Uiso   1.00
O700   O     0.79580   0.95419   0.53821   0.00000  Uiso   1.00
Zn701  Zn    0.50000   0.75000   0.55104   0.00000  Uiso   1.00
Zn702  Zn    0.50000   0.75000   0.44896   0.00000  Uiso   1.00
Zn703  Zn    0.75000   0.50000   0.55104   0.00000  Uiso   1.00
Zn704  Zn    0.75000   0.50000   0.44896   0.00000  Uiso   1.00
C705   C     0.06006   0.19018   0.83333   0.00000  Uiso   1.00
C706   C    -0.00000   0.21011   0.97611   0.00000  Uiso   1.00
C707   C    -0.00000   0.21011   0.69056   0.00000  Uiso   1.00
C708   C    -0.00000   0.28989   0.97611   0.00000  Uiso   1.00
C709   C     0.25000   0.03989   0.69056   0.00000  Uiso   1.00
C710   C     0.25000   0.46011   0.97611   0.00000  Uiso   1.00
C711   C     0.25000   0.46011   0.69056   0.00000  Uiso   1.00
C712   C     0.25000   0.03989   0.97611   0.00000  Uiso   1.00
C713   C     0.39075   0.14118   0.79255   0.00000  Uiso   1.00
C714   C     0.10925   0.35882   0.87412   0.00000  Uiso   1.00
C715   C     0.10925   0.35882   0.79255   0.00000  Uiso   1.00
C716   C     0.43994   0.30982   0.83333   0.00000  Uiso   1.00
C717   C     0.39075   0.14118   0.87412   0.00000  Uiso   1.00
C718   C     0.10925   0.14118   0.87412   0.00000  Uiso   1.00
C719   C     0.39075   0.35882   0.79255   0.00000  Uiso   1.00
C720   C     0.39075   0.35882   0.87412   0.00000  Uiso   1.00
C721   C     0.10925   0.14118   0.79255   0.00000  Uiso   1.00
C722   C     0.14075   0.39118   0.79255   0.00000  Uiso   1.00
C723   C     0.35925   0.10882   0.87412   0.00000  Uiso   1.00
C724   C     0.35925   0.10882   0.79255   0.00000  Uiso   1.00
C725   C     0.14075   0.39118   0.87412   0.00000  Uiso   1.00
C726   C     0.35925   0.39118   0.87412   0.00000  Uiso   1.00
C727   C     0.43994   0.19018   0.83333   0.00000  Uiso   1.00
C728   C     0.14075   0.10882   0.79255   0.00000  Uiso   1.00
C729   C     0.14075   0.10882   0.87412   0.00000  Uiso   1.00
C730   C     0.35925   0.39118   0.79255   0.00000  Uiso   1.00
C731   C     0.09336   0.34284   0.83333   0.00000  Uiso   1.00
C732   C     0.40664   0.15716   0.83333   0.00000  Uiso   1.00
C733   C     0.40664   0.34284   0.83333   0.00000  Uiso   1.00
C734   C     0.09336   0.15716   0.83333   0.00000  Uiso   1.00
C735   C     0.34336   0.09284   0.83333   0.00000  Uiso   1.00
C736   C     0.15664   0.40716   0.83333   0.00000  Uiso   1.00
C737   C     0.15664   0.09284   0.83333   0.00000  Uiso   1.00
C738   C     0.06006   0.30982   0.83333   0.00000  Uiso   1.00
C739   C     0.34336   0.40716   0.83333   0.00000  Uiso   1.00
C740   C     0.31006   0.44018   0.83333   0.00000  Uiso   1.00
C741   C     0.18994   0.05982   0.83333   0.00000  Uiso   1.00
C742   C     0.18994   0.44018   0.83333   0.00000  Uiso   1.00
C743   C     0.31006   0.05982   0.83333   0.00000  Uiso   1.00
C744   C    -0.00000   0.28989   0.69056   0.00000  Uiso   1.00
H745   H     0.40253   0.15351   0.76071   0.00000  Uiso   1.00
H746   H     0.34747   0.09649   0.90596   0.00000  Uiso   1.00
H747   H     0.34747   0.09649   0.76071   0.00000  Uiso   1.00
H748   H     0.15253   0.40351   0.90596   0.00000  Uiso   1.00
H749   H     0.34747   0.40351   0.90596   0.00000  Uiso   1.00
H750   H     0.15253   0.09649   0.76071   0.00000  Uiso   1.00
H751   H     0.15253   0.09649   0.90596   0.00000  Uiso   1.00
H752   H     0.34747   0.40351   0.76071   0.00000  Uiso   1.00
H753   H     0.09747   0.34649   0.90596   0.00000  Uiso   1.00
H754   H     0.09747   0.34649   0.76071   0.00000  Uiso   1.00
H755   H     0.40253   0.15351   0.90596   0.00000  Uiso   1.00
H756   H     0.09747   0.15351   0.90596   0.00000  Uiso   1.00
H757   H     0.40253   0.34649   0.76071   0.00000  Uiso   1.00
H758   H     0.40253   0.34649   0.90596   0.00000  Uiso   1.00
H759   H     0.09747   0.15351   0.76071   0.00000  Uiso   1.00
H760   H     0.15253   0.40351   0.76071   0.00000  Uiso   1.00
I761   I    -0.00000   0.35324   0.72499   0.00000  Uiso   1.00
I762   I    -0.00000   0.14676   0.94168   0.00000  Uiso   1.00
I763   I     0.00000   0.14676   0.72499   0.00000  Uiso   1.00
I764   I     0.00000   0.35324   0.94168   0.00000  Uiso   1.00
I765   I     0.25000   0.10324   0.72499   0.00000  Uiso   1.00
I766   I     0.25000   0.39676   0.94168   0.00000  Uiso   1.00
I767   I     0.25000   0.39676   0.72499   0.00000  Uiso   1.00
I768   I     0.25000   0.10324   0.94168   0.00000  Uiso   1.00
N769   N     0.00000   0.25000   0.95240   0.00000  Uiso   1.00
N770   N    -0.00000   0.25000   0.71427   0.00000  Uiso   1.00
N771   N     0.25000   0.00000   0.95240   0.00000  Uiso   1.00
N772   N     0.25000   0.00000   0.71427   0.00000  Uiso   1.00
O773   O     0.04580   0.20419   0.87154   0.00000  Uiso   1.00
O774   O     0.20419   0.04581   0.79513   0.00000  Uiso   1.00
O775   O     0.20419   0.04581   0.87154   0.00000  Uiso   1.00
O776   O     0.29580   0.45419   0.79513   0.00000  Uiso   1.00
O777   O     0.20419   0.45419   0.79513   0.00000  Uiso   1.00
O778   O     0.29580   0.04581   0.87154   0.00000  Uiso   1.00
O779   O     0.29580   0.04581   0.79513   0.00000  Uiso   1.00
O780   O     0.20419   0.45419   0.87154   0.00000  Uiso   1.00
O781   O     0.45419   0.29581   0.79513   0.00000  Uiso   1.00
O782   O     0.45419   0.29581   0.87154   0.00000  Uiso   1.00
O783   O     0.04580   0.20419   0.79513   0.00000  Uiso   1.00
O784   O     0.45419   0.20419   0.79513   0.00000  Uiso   1.00
O785   O     0.04580   0.29581   0.87154   0.00000  Uiso   1.00
O786   O     0.04580   0.29581   0.79513   0.00000  Uiso   1.00
O787   O     0.45419   0.20419   0.87154   0.00000  Uiso   1.00
O788   O     0.29580   0.45419   0.87154   0.00000  Uiso   1.00
Zn789  Zn   -0.00000   0.25000   0.88437   0.00000  Uiso   1.00
Zn790  Zn    0.00000   0.25000   0.78229   0.00000  Uiso   1.00
Zn791  Zn    0.25000   0.00000   0.88437   0.00000  Uiso   1.00
Zn792  Zn    0.25000   0.00000   0.78229   0.00000  Uiso   1.00
C793   C     0.56006   0.19018   0.83333   0.00000  Uiso   1.00
C794   C     0.50000   0.21011   0.97611   0.00000  Uiso   1.00
C795   C     0.50000   0.21011   0.69056   0.00000  Uiso   1.00
C796   C     0.50000   0.28989   0.97611   0.00000  Uiso   1.00
C797   C     0.75000   0.03989   0.69056   0.00000  Uiso   1.00
C798   C     0.75000   0.46011   0.97611   0.00000  Uiso   1.00
C799   C     0.75000   0.46011   0.69056   0.00000  Uiso   1.00
C800   C     0.75000   0.03989   0.97611   0.00000  Uiso   1.00
C801   C     0.89075   0.14118   0.79255   0.00000  Uiso   1.00
C802   C     0.60925   0.35882   0.87412   0.00000  Uiso   1.00
C803   C     0.60925   0.35882   0.79255   0.00000  Uiso   1.00
C804   C     0.93994   0.30982   0.83333   0.00000  Uiso   1.00
C805   C     0.89075   0.14118   0.87412   0.00000  Uiso   1.00
C806   C     0.60925   0.14118   0.87412   0.00000  Uiso   1.00
C807   C     0.89075   0.35882   0.79255   0.00000  Uiso   1.00
C808   C     0.89075   0.35882   0.87412   0.00000  Uiso   1.00
C809   C     0.60925   0.14118   0.79255   0.00000  Uiso   1.00
C810   C     0.64075   0.39118   0.79255   0.00000  Uiso   1.00
C811   C     0.85925   0.10882   0.87412   0.00000  Uiso   1.00
C812   C     0.85925   0.10882   0.79255   0.00000  Uiso   1.00
C813   C     0.64075   0.39118   0.87412   0.00000  Uiso   1.00
C814   C     0.85925   0.39118   0.87412   0.00000  Uiso   1.00
C815   C     0.93994   0.19018   0.83333   0.00000  Uiso   1.00
C816   C     0.64075   0.10882   0.79255   0.00000  Uiso   1.00
C817   C     0.64075   0.10882   0.87412   0.00000  Uiso   1.00
C818   C     0.85925   0.39118   0.79255   0.00000  Uiso   1.00
C819   C     0.59336   0.34284   0.83333   0.00000  Uiso   1.00
C820   C     0.90664   0.15716   0.83333   0.00000  Uiso   1.00
C821   C     0.90664   0.34284   0.83333   0.00000  Uiso   1.00
C822   C     0.59336   0.15716   0.83333   0.00000  Uiso   1.00
C823   C     0.84336   0.09284   0.83333   0.00000  Uiso   1.00
C824   C     0.65664   0.40716   0.83333   0.00000  Uiso   1.00
C825   C     0.65664   0.09284   0.83333   0.00000  Uiso   1.00
C826   C     0.56006   0.30982   0.83333   0.00000  Uiso   1.00
C827   C     0.84336   0.40716   0.83333   0.00000  Uiso   1.00
C828   C     0.81006   0.44018   0.83333   0.00000  Uiso   1.00
C829   C     0.68994   0.05982   0.83333   0.00000  Uiso   1.00
C830   C     0.68994   0.44018   0.83333   0.00000  Uiso   1.00
C831   C     0.81006   0.05982   0.83333   0.00000  Uiso   1.00
C832   C     0.50000   0.28989   0.69056   0.00000  Uiso   1.00
H833   H     0.90253   0.15351   0.76071   0.00000  Uiso   1.00
H834   H     0.84747   0.09649   0.90596   0.00000  Uiso   1.00
H835   H     0.84747   0.09649   0.76071   0.00000  Uiso   1.00
H836   H     0.65253   0.40351   0.90596   0.00000  Uiso   1.00
H837   H     0.84747   0.40351   0.90596   0.00000  Uiso   1.00
H838   H     0.65253   0.09649   0.76071   0.00000  Uiso   1.00
H839   H     0.65253   0.09649   0.90596   0.00000  Uiso   1.00
H840   H     0.84747   0.40351   0.76071   0.00000  Uiso   1.00
H841   H     0.59747   0.34649   0.90596   0.00000  Uiso   1.00
H842   H     0.59747   0.34649   0.76071   0.00000  Uiso   1.00
H843   H     0.90253   0.15351   0.90596   0.00000  Uiso   1.00
H844   H     0.59747   0.15351   0.90596   0.00000  Uiso   1.00
H845   H     0.90253   0.34649   0.76071   0.00000  Uiso   1.00
H846   H     0.90253   0.34649   0.90596   0.00000  Uiso   1.00
H847   H     0.59747   0.15351   0.76071   0.00000  Uiso   1.00
H848   H     0.65253   0.40351   0.76071   0.00000  Uiso   1.00
I849   I     0.50000   0.35324   0.72499   0.00000  Uiso   1.00
I850   I     0.50000   0.14676   0.94168   0.00000  Uiso   1.00
I851   I     0.50000   0.14676   0.72499   0.00000  Uiso   1.00
I852   I     0.50000   0.35324   0.94168   0.00000  Uiso   1.00
I853   I     0.75000   0.10324   0.72499   0.00000  Uiso   1.00
I854   I     0.75000   0.39676   0.94168   0.00000  Uiso   1.00
I855   I     0.75000   0.39676   0.72499   0.00000  Uiso   1.00
I856   I     0.75000   0.10324   0.94168   0.00000  Uiso   1.00
N857   N     0.50000   0.25000   0.95240   0.00000  Uiso   1.00
N858   N     0.50000   0.25000   0.71427   0.00000  Uiso   1.00
N859   N     0.75000   0.00000   0.95240   0.00000  Uiso   1.00
N860   N     0.75000   0.00000   0.71427   0.00000  Uiso   1.00
O861   O     0.54580   0.20419   0.87154   0.00000  Uiso   1.00
O862   O     0.70419   0.04581   0.79513   0.00000  Uiso   1.00
O863   O     0.70419   0.04581   0.87154   0.00000  Uiso   1.00
O864   O     0.79580   0.45419   0.79513   0.00000  Uiso   1.00
O865   O     0.70419   0.45419   0.79513   0.00000  Uiso   1.00
O866   O     0.79580   0.04581   0.87154   0.00000  Uiso   1.00
O867   O     0.79580   0.04581   0.79513   0.00000  Uiso   1.00
O868   O     0.70419   0.45419   0.87154   0.00000  Uiso   1.00
O869   O     0.95419   0.29581   0.79513   0.00000  Uiso   1.00
O870   O     0.95419   0.29581   0.87154   0.00000  Uiso   1.00
O871   O     0.54580   0.20419   0.79513   0.00000  Uiso   1.00
O872   O     0.95419   0.20419   0.79513   0.00000  Uiso   1.00
O873   O     0.54580   0.29581   0.87154   0.00000  Uiso   1.00
O874   O     0.54580   0.29581   0.79513   0.00000  Uiso   1.00
O875   O     0.95419   0.20419   0.87154   0.00000  Uiso   1.00
O876   O     0.79580   0.45419   0.87154   0.00000  Uiso   1.00
Zn877  Zn    0.50000   0.25000   0.88437   0.00000  Uiso   1.00
Zn878  Zn    0.50000   0.25000   0.78229   0.00000  Uiso   1.00
Zn879  Zn    0.75000   0.00000   0.88437   0.00000  Uiso   1.00
Zn880  Zn    0.75000   0.00000   0.78229   0.00000  Uiso   1.00
C881   C     0.06006   0.69018   0.83333   0.00000  Uiso   1.00
C882   C    -0.00000   0.71011   0.97611   0.00000  Uiso   1.00
C883   C    -0.00000   0.71011   0.69056   0.00000  Uiso   1.00
C884   C    -0.00000   0.78989   0.97611   0.00000  Uiso   1.00
C885   C     0.25000   0.53989   0.69056   0.00000  Uiso   1.00
C886   C     0.25000   0.96011   0.97611   0.00000  Uiso   1.00
C887   C     0.25000   0.96011   0.69056   0.00000  Uiso   1.00
C888   C     0.25000   0.53989   0.97611   0.00000  Uiso   1.00
C889   C     0.39075   0.64118   0.79255   0.00000  Uiso   1.00
C890   C     0.10925   0.85882   0.87412   0.00000  Uiso   1.00
C891   C     0.10925   0.85882   0.79255   0.00000  Uiso   1.00
C892   C     0.43994   0.80982   0.83333   0.00000  Uiso   1.00
C893   C     0.39075   0.64118   0.87412   0.00000  Uiso   1.00
C894   C     0.10925   0.64118   0.87412   0.00000  Uiso   1.00
C895   C     0.39075   0.85882   0.79255   0.00000  Uiso   1.00
C896   C     0.39075   0.85882   0.87412   0.00000  Uiso   1.00
C897   C     0.10925   0.64118   0.79255   0.00000  Uiso   1.00
C898   C     0.14075   0.89118   0.79255   0.00000  Uiso   1.00
C899   C     0.35925   0.60882   0.87412   0.00000  Uiso   1.00
C900   C     0.35925   0.60882   0.79255   0.00000  Uiso   1.00
C901   C     0.14075   0.89118   0.87412   0.00000  Uiso   1.00
C902   C     0.35925   0.89118   0.87412   0.00000  Uiso   1.00
C903   C     0.43994   0.69018   0.83333   0.00000  Uiso   1.00
C904   C     0.14075   0.60882   0.79255   0.00000  Uiso   1.00
C905   C     0.14075   0.60882   0.87412   0.00000  Uiso   1.00
C906   C     0.35925   0.89118   0.79255   0.00000  Uiso   1.00
C907   C     0.09336   0.84284   0.83333   0.00000  Uiso   1.00
C908   C     0.40664   0.65716   0.83333   0.00000  Uiso   1.00
C909   C     0.40664   0.84284   0.83333   0.00000  Uiso   1.00
C910   C     0.09336   0.65716   0.83333   0.00000  Uiso   1.00
C911   C     0.34336   0.59284   0.83333   0.00000  Uiso   1.00
C912   C     0.15664   0.90716   0.83333   0.00000  Uiso   1.00
C913   C     0.15664   0.59284   0.83333   0.00000  Uiso   1.00
C914   C     0.06006   0.80982   0.83333   0.00000  Uiso   1.00
C915   C     0.34336   0.90716   0.83333   0.00000  Uiso   1.00
C916   C     0.31006   0.94018   0.83333   0.00000  Uiso   1.00
C917   C     0.18994   0.55982   0.83333   0.00000  Uiso   1.00
C918   C     0.18994   0.94018   0.83333   0.00000  Uiso   1.00
C919   C     0.31006   0.55982   0.83333   0.00000  Uiso   1.00
C920   C    -0.00000   0.78989   0.69056   0.00000  Uiso   1.00
H921   H     0.40253   0.65351   0.76071   0.00000  Uiso   1.00
H922   H     0.34747   0.59649   0.90596   0.00000  Uiso   1.00
H923   H     0.34747   0.59649   0.76071   0.00000  Uiso   1.00
H924   H     0.15253   0.90351   0.90596   0.00000  Uiso   1.00
H925   H     0.34747   0.90351   0.90596   0.00000  Uiso   1.00
H926   H     0.15253   0.59649   0.76071   0.00000  Uiso   1.00
H927   H     0.15253   0.59649   0.90596   0.00000  Uiso   1.00
H928   H     0.34747   0.90351   0.76071   0.00000  Uiso   1.00
H929   H     0.09747   0.84649   0.90596   0.00000  Uiso   1.00
H930   H     0.09747   0.84649   0.76071   0.00000  Uiso   1.00
H931   H     0.40253   0.65351   0.90596   0.00000  Uiso   1.00
H932   H     0.09747   0.65351   0.90596   0.00000  Uiso   1.00
H933   H     0.40253   0.84649   0.76071   0.00000  Uiso   1.00
H934   H     0.40253   0.84649   0.90596   0.00000  Uiso   1.00
H935   H     0.09747   0.65351   0.76071   0.00000  Uiso   1.00
H936   H     0.15253   0.90351   0.76071   0.00000  Uiso   1.00
I937   I    -0.00000   0.85324   0.72499   0.00000  Uiso   1.00
I938   I    -0.00000   0.64676   0.94168   0.00000  Uiso   1.00
I939   I     0.00000   0.64676   0.72499   0.00000  Uiso   1.00
I940   I     0.00000   0.85324   0.94168   0.00000  Uiso   1.00
I941   I     0.25000   0.60324   0.72499   0.00000  Uiso   1.00
I942   I     0.25000   0.89676   0.94168   0.00000  Uiso   1.00
I943   I     0.25000   0.89676   0.72499   0.00000  Uiso   1.00
I944   I     0.25000   0.60324   0.94168   0.00000  Uiso   1.00
N945   N     0.00000   0.75000   0.95240   0.00000  Uiso   1.00
N946   N    -0.00000   0.75000   0.71427   0.00000  Uiso   1.00
N947   N     0.25000   0.50000   0.95240   0.00000  Uiso   1.00
N948   N     0.25000   0.50000   0.71427   0.00000  Uiso   1.00
O949   O     0.04580   0.70419   0.87154   0.00000  Uiso   1.00
O950   O     0.20419   0.54581   0.79513   0.00000  Uiso   1.00
O951   O     0.20419   0.54581   0.87154   0.00000  Uiso   1.00
O952   O     0.29580   0.95419   0.79513   0.00000  Uiso   1.00
O953   O     0.20419   0.95419   0.79513   0.00000  Uiso   1.00
O954   O     0.29580   0.54581   0.87154   0.00000  Uiso   1.00
O955   O     0.29580   0.54581   0.79513   0.00000  Uiso   1.00
O956   O     0.20419   0.95419   0.87154   0.00000  Uiso   1.00
O957   O     0.45419   0.79581   0.79513   0.00000  Uiso   1.00
O958   O     0.45419   0.79581   0.87154   0.00000  Uiso   1.00
O959   O     0.04580   0.70419   0.79513   0.00000  Uiso   1.00
O960   O     0.45419   0.70419   0.79513   0.00000  Uiso   1.00
O961   O     0.04580   0.79581   0.87154   0.00000  Uiso   1.00
O962   O     0.04580   0.79581   0.79513   0.00000  Uiso   1.00
O963   O     0.45419   0.70419   0.87154   0.00000  Uiso   1.00
O964   O     0.29580   0.95419   0.87154   0.00000  Uiso   1.00
Zn965  Zn   -0.00000   0.75000   0.88437   0.00000  Uiso   1.00
Zn966  Zn    0.00000   0.75000   0.78229   0.00000  Uiso   1.00
Zn967  Zn    0.25000   0.50000   0.88437   0.00000  Uiso   1.00
Zn968  Zn    0.25000   0.50000   0.78229   0.00000  Uiso   1.00
C969   C     0.56006   0.69018   0.83333   0.00000  Uiso   1.00
C970   C     0.50000   0.71011   0.97611   0.00000  Uiso   1.00
C971   C     0.50000   0.71011   0.69056   0.00000  Uiso   1.00
C972   C     0.50000   0.78989   0.97611   0.00000  Uiso   1.00
C973   C     0.75000   0.53989   0.69056   0.00000  Uiso   1.00
C974   C     0.75000   0.96011   0.97611   0.00000  Uiso   1.00
C975   C     0.75000   0.96011   0.69056   0.00000  Uiso   1.00
C976   C     0.75000   0.53989   0.97611   0.00000  Uiso   1.00
C977   C     0.89075   0.64118   0.79255   0.00000  Uiso   1.00
C978   C     0.60925   0.85882   0.87412   0.00000  Uiso   1.00
C979   C     0.60925   0.85882   0.79255   0.00000  Uiso   1.00
C980   C     0.93994   0.80982   0.83333   0.00000  Uiso   1.00
C981   C     0.89075   0.64118   0.87412   0.00000  Uiso   1.00
C982   C     0.60925   0.64118   0.87412   0.00000  Uiso   1.00
C983   C     0.89075   0.85882   0.79255   0.00000  Uiso   1.00
C984   C     0.89075   0.85882   0.87412   0.00000  Uiso   1.00
C985   C     0.60925   0.64118   0.79255   0.00000  Uiso   1.00
C986   C     0.64075   0.89118   0.79255   0.00000  Uiso   1.00
C987   C     0.85925   0.60882   0.87412   0.00000  Uiso   1.00
C988   C     0.85925   0.60882   0.79255   0.00000  Uiso   1.00
C989   C     0.64075   0.89118   0.87412   0.00000  Uiso   1.00
C990   C     0.85925   0.89118   0.87412   0.00000  Uiso   1.00
C991   C     0.93994   0.69018   0.83333   0.00000  Uiso   1.00
C992   C     0.64075   0.60882   0.79255   0.00000  Uiso   1.00
C993   C     0.64075   0.60882   0.87412   0.00000  Uiso   1.00
C994   C     0.85925   0.89118   0.79255   0.00000  Uiso   1.00
C995   C     0.59336   0.84284   0.83333   0.00000  Uiso   1.00
C996   C     0.90664   0.65716   0.83333   0.00000  Uiso   1.00
C997   C     0.90664   0.84284   0.83333   0.00000  Uiso   1.00
C998   C     0.59336   0.65716   0.83333   0.00000  Uiso   1.00
C999   C     0.84336   0.59284   0.83333   0.00000  Uiso   1.00
C1000  C     0.65664   0.90716   0.83333   0.00000  Uiso   1.00
C1001  C     0.65664   0.59284   0.83333   0.00000  Uiso   1.00
C1002  C     0.56006   0.80982   0.83333   0.00000  Uiso   1.00
C1003  C     0.84336   0.90716   0.83333   0.00000  Uiso   1.00
C1004  C     0.81006   0.94018   0.83333   0.00000  Uiso   1.00
C1005  C     0.68994   0.55982   0.83333   0.00000  Uiso   1.00
C1006  C     0.68994   0.94018   0.83333   0.00000  Uiso   1.00
C1007  C     0.81006   0.55982   0.83333   0.00000  Uiso   1.00
C1008  C     0.50000   0.78989   0.69056   0.00000  Uiso   1.00
H1009  H     0.90253   0.65351   0.76071   0.00000  Uiso   1.00
H1010  H     0.84747   0.59649   0.90596   0.00000  Uiso   1.00
H1011  H     0.84747   0.59649   0.76071   0.00000  Uiso   1.00
H1012  H     0.65253   0.90351   0.90596   0.00000  Uiso   1.00
H1013  H     0.84747   0.90351   0.90596   0.00000  Uiso   1.00
H1014  H     0.65253   0.59649   0.76071   0.00000  Uiso   1.00
H1015  H     0.65253   0.59649   0.90596   0.00000  Uiso   1.00
H1016  H     0.84747   0.90351   0.76071   0.00000  Uiso   1.00
H1017  H     0.59747   0.84649   0.90596   0.00000  Uiso   1.00
H1018  H     0.59747   0.84649   0.76071   0.00000  Uiso   1.00
H1019  H     0.90253   0.65351   0.90596   0.00000  Uiso   1.00
H1020  H     0.59747   0.65351   0.90596   0.00000  Uiso   1.00
H1021  H     0.90253   0.84649   0.76071   0.00000  Uiso   1.00
H1022  H     0.90253   0.84649   0.90596   0.00000  Uiso   1.00
H1023  H     0.59747   0.65351   0.76071   0.00000  Uiso   1.00
H1024  H     0.65253   0.90351   0.76071   0.00000  Uiso   1.00
I1025  I     0.50000   0.85324   0.72499   0.00000  Uiso   1.00
I1026  I     0.50000   0.64676   0.94168   0.00000  Uiso   1.00
I1027  I     0.50000   0.64676   0.72499   0.00000  Uiso   1.00
I1028  I     0.50000   0.85324   0.94168   0.00000  Uiso   1.00
I1029  I     0.75000   0.60324   0.72499   0.00000  Uiso   1.00
I1030  I     0.75000   0.89676   0.94168   0.00000  Uiso   1.00
I1031  I     0.75000   0.89676   0.72499   0.00000  Uiso   1.00
I1032  I     0.75000   0.60324   0.94168   0.00000  Uiso   1.00
N1033  N     0.50000   0.75000   0.95240   0.00000  Uiso   1.00
N1034  N     0.50000   0.75000   0.71427   0.00000  Uiso   1.00
N1035  N     0.75000   0.50000   0.95240   0.00000  Uiso   1.00
N1036  N     0.75000   0.50000   0.71427   0.00000  Uiso   1.00
O1037  O     0.54580   0.70419   0.87154   0.00000  Uiso   1.00
O1038  O     0.70419   0.54581   0.79513   0.00000  Uiso   1.00
O1039  O     0.70419   0.54581   0.87154   0.00000  Uiso   1.00
O1040  O     0.79580   0.95419   0.79513   0.00000  Uiso   1.00
O1041  O     0.70419   0.95419   0.79513   0.00000  Uiso   1.00
O1042  O     0.79580   0.54581   0.87154   0.00000  Uiso   1.00
O1043  O     0.79580   0.54581   0.79513   0.00000  Uiso   1.00
O1044  O     0.70419   0.95419   0.87154   0.00000  Uiso   1.00
O1045  O     0.95419   0.79581   0.79513   0.00000  Uiso   1.00
O1046  O     0.95419   0.79581   0.87154   0.00000  Uiso   1.00
O1047  O     0.54580   0.70419   0.79513   0.00000  Uiso   1.00
O1048  O     0.95419   0.70419   0.79513   0.00000  Uiso   1.00
O1049  O     0.54580   0.79581   0.87154   0.00000  Uiso   1.00
O1050  O     0.54580   0.79581   0.79513   0.00000  Uiso   1.00
O1051  O     0.95419   0.70419   0.87154   0.00000  Uiso   1.00
O1052  O     0.79580   0.95419   0.87154   0.00000  Uiso   1.00
Zn1053 Zn    0.50000   0.75000   0.88437   0.00000  Uiso   1.00
Zn1054 Zn    0.50000   0.75000   0.78229   0.00000  Uiso   1.00
Zn1055 Zn    0.75000   0.50000   0.88437   0.00000  Uiso   1.00
Zn1056 Zn    0.75000   0.50000   0.78229   0.00000  Uiso   1.00
loop_
_geom_bond_atom_site_label_1
_geom_bond_atom_site_label_2
_geom_bond_distance
_geom_bond_site_symmetry_2
_ccdc_geom_bond_type
C1     O69     1.293   .     A
C1     O79     1.293   .     A
C1     C30     1.423   .     S
C2     I58     2.137   .     S
C2     C355    1.428   .     S
C2     N65     1.376   .     S
C3     N66     1.376   .     A
C3     C706    1.428   1_554 S
C3     I59     2.137   .     S
C4     C392    1.428   .     S
C4     I60     2.137   .     S
C4     N65     1.376   .     S
C5     I61     2.137   .     S
C5     C712    1.428   1_554 S
C5     N68     1.376   .     S
C6     N243    1.376   .     A
C6     I62     2.137   .     S
C6     C359    1.428   .     S
C7     N244    1.376   .     A
C7     I63     2.137   .     S
C7     C710    1.428   1_554 S
C8     I64     2.137   .     S
C8     C357    1.428   .     S
C8     N67     1.376   .     S
C9     C20     1.369   .     A
C9     H41     1.083   .     S
C9     C28     1.397   .     A
C10    C27     1.397   .     A
C10    C21     1.369   .     A
C10    H49     1.083   .     S
C11    C18     1.369   .     A
C11    C27     1.397   .     A
C11    H50     1.083   .     S
C12    C29     1.423   .     S
C12    O78     1.293   .     A
C12    O77     1.293   .     A
C13    H51     1.083   .     S
C13    C28     1.397   .     A
C13    C19     1.369   .     A
C14    H52     1.083   .     S
C14    C30     1.397   .     A
C14    C25     1.369   .     A
C15    H53     1.083   .     S
C15    C29     1.397   .     A
C15    C26     1.369   .     A
C16    H54     1.083   .     S
C16    C29     1.397   .     A
C16    C22     1.369   .     A
C17    C30     1.397   .     A
C17    C24     1.369   .     A
C17    H55     1.083   .     S
C18    C32     1.397   .     A
C18    H56     1.083   .     S
C19    C31     1.397   .     A
C19    H42     1.083   .     S
C20    H43     1.083   .     S
C20    C31     1.397   .     A
C21    C32     1.397   .     A
C21    H44     1.083   .     S
C22    C35     1.397   .     A
C22    H45     1.083   .     S
C23    O83     1.293   .     A
C23    C28     1.423   .     S
C23    O80     1.293   .     A
C24    C33     1.397   .     A
C24    H46     1.083   .     S
C25    H47     1.083   .     S
C25    C33     1.397   .     A
C26    H48     1.083   .     S
C26    C35     1.397   .     A
C27    C34     1.423   .     S
C31    C39     1.423   .     S
C32    C38     1.423   .     S
C33    C37     1.423   .     S
C34    O81     1.293   .     A
C34    O82     1.293   .     A
C35    C36     1.423   .     S
C36    O84     1.293   .     A
C36    O72     1.293   .     A
C37    O70     1.293   .     A
C37    O71     1.293   .     A
C38    O76     1.293   .     A
C38    O73     1.293   .     A
C39    O74     1.293   .     A
C39    O75     1.293   .     A
C40    N66     1.376   .     A
C40    I57     2.137   .     S
C40    C708    1.428   1_554 S
N65    Zn85    2.033   .     S
N66    Zn86    2.033   .     S
N67    C182    1.376   1_545 A
N67    Zn87    2.033   .     S
N68    Zn88    2.033   .     S
N68    C183    1.376   1_545 A
O69    Zn85    2.002   .     S
O70    Zn88    2.002   .     S
O71    Zn87    2.002   .     S
O72    Zn264   2.002   .     S
O73    Zn264   2.002   .     S
O74    Zn87    2.002   .     S
O75    Zn88    2.002   .     S
O76    Zn263   2.002   .     S
O77    Zn174   2.002   .     S
O78    Zn173   2.002   .     S
O79    Zn86    2.002   .     S
O80    Zn174   2.002   .     S
O81    Zn85    2.002   .     S
O82    Zn86    2.002   .     S
O83    Zn173   2.002   .     S
O84    Zn263   2.002   .     S
Zn85   O166    2.002   1_455 S
Zn85   O171    2.002   1_455 S
Zn86   O165    2.002   1_455 S
Zn86   O168    2.002   1_455 S
Zn87   O260    2.002   1_545 S
Zn87   O252    2.002   1_545 S
Zn88   O248    2.002   1_545 S
Zn88   O249    2.002   1_545 S
C89    O157    1.293   .     A
C89    O167    1.293   .     A
C89    C118    1.423   .     S
C90    I146    2.137   .     S
C90    C443    1.428   .     S
C90    N153    1.376   .     S
C91    N154    1.376   .     A
C91    C794    1.428   1_554 S
C91    I147    2.137   .     S
C92    C480    1.428   .     S
C92    I148    2.137   .     S
C92    N153    1.376   .     S
C93    I149    2.137   .     S
C93    C800    1.428   1_554 S
C93    N156    1.376   .     S
C94    N331    1.376   .     A
C94    I150    2.137   .     S
C94    C447    1.428   .     S
C95    N332    1.376   .     A
C95    I151    2.137   .     S
C95    C798    1.428   1_554 S
C96    I152    2.137   .     S
C96    C445    1.428   .     S
C96    N155    1.376   .     S
C97    C108    1.369   .     A
C97    H129    1.083   .     S
C97    C116    1.397   .     A
C98    C115    1.397   .     A
C98    C109    1.369   .     A
C98    H137    1.083   .     S
C99    C106    1.369   .     A
C99    C115    1.397   .     A
C99    H138    1.083   .     S
C100   C117    1.423   .     S
C100   O166    1.293   .     A
C100   O165    1.293   .     A
C101   H139    1.083   .     S
C101   C116    1.397   .     A
C101   C107    1.369   .     A
C102   H140    1.083   .     S
C102   C118    1.397   .     A
C102   C113    1.369   .     A
C103   H141    1.083   .     S
C103   C117    1.397   .     A
C103   C114    1.369   .     A
C104   H142    1.083   .     S
C104   C117    1.397   .     A
C104   C110    1.369   .     A
C105   C118    1.397   .     A
C105   C112    1.369   .     A
C105   H143    1.083   .     S
C106   C120    1.397   .     A
C106   H144    1.083   .     S
C107   C119    1.397   .     A
C107   H130    1.083   .     S
C108   H131    1.083   .     S
C108   C119    1.397   .     A
C109   C120    1.397   .     A
C109   H132    1.083   .     S
C110   C123    1.397   .     A
C110   H133    1.083   .     S
C111   O171    1.293   .     A
C111   C116    1.423   .     S
C111   O168    1.293   .     A
C112   C121    1.397   .     A
C112   H134    1.083   .     S
C113   H135    1.083   .     S
C113   C121    1.397   .     A
C114   H136    1.083   .     S
C114   C123    1.397   .     A
C115   C122    1.423   .     S
C119   C127    1.423   .     S
C120   C126    1.423   .     S
C121   C125    1.423   .     S
C122   O169    1.293   .     A
C122   O170    1.293   .     A
C123   C124    1.423   .     S
C124   O172    1.293   .     A
C124   O160    1.293   .     A
C125   O158    1.293   .     A
C125   O159    1.293   .     A
C126   O164    1.293   .     A
C126   O161    1.293   .     A
C127   O162    1.293   .     A
C127   O163    1.293   .     A
C128   N154    1.376   .     A
C128   I145    2.137   .     S
C128   C796    1.428   1_554 S
N153   Zn173   2.033   .     S
N154   Zn174   2.033   .     S
N155   C270    1.376   1_545 A
N155   Zn175   2.033   .     S
N156   Zn176   2.033   .     S
N156   C271    1.376   1_545 A
O157   Zn173   2.002   .     S
O158   Zn176   2.002   .     S
O159   Zn175   2.002   .     S
O160   Zn352   2.002   .     S
O161   Zn352   2.002   .     S
O162   Zn175   2.002   .     S
O163   Zn176   2.002   .     S
O164   Zn351   2.002   .     S
O165   Zn86    2.002   1_655 S
O166   Zn85    2.002   1_655 S
O167   Zn174   2.002   .     S
O168   Zn86    2.002   1_655 S
O169   Zn173   2.002   .     S
O170   Zn174   2.002   .     S
O171   Zn85    2.002   1_655 S
O172   Zn351   2.002   .     S
Zn175  O348    2.002   1_545 S
Zn175  O340    2.002   1_545 S
Zn176  O336    2.002   1_545 S
Zn176  O337    2.002   1_545 S
C177   O245    1.293   .     A
C177   O255    1.293   .     A
C177   C206    1.423   .     S
C178   I234    2.137   .     S
C178   C531    1.428   .     S
C178   N241    1.376   .     S
C179   N242    1.376   .     A
C179   C882    1.428   1_554 S
C179   I235    2.137   .     S
C180   C568    1.428   .     S
C180   I236    2.137   .     S
C180   N241    1.376   .     S
C181   I237    2.137   .     S
C181   C888    1.428   1_554 S
C181   N244    1.376   .     S
C182   N67     1.376   1_565 A
C182   I238    2.137   .     S
C182   C535    1.428   .     S
C183   N68     1.376   1_565 A
C183   I239    2.137   .     S
C183   C886    1.428   1_554 S
C184   I240    2.137   .     S
C184   C533    1.428   .     S
C184   N243    1.376   .     S
C185   C196    1.369   .     A
C185   H217    1.083   .     S
C185   C204    1.397   .     A
C186   C203    1.397   .     A
C186   C197    1.369   .     A
C186   H225    1.083   .     S
C187   C194    1.369   .     A
C187   C203    1.397   .     A
C187   H226    1.083   .     S
C188   C205    1.423   .     S
C188   O254    1.293   .     A
C188   O253    1.293   .     A
C189   H227    1.083   .     S
C189   C204    1.397   .     A
C189   C195    1.369   .     A
C190   H228    1.083   .     S
C190   C206    1.397   .     A
C190   C201    1.369   .     A
C191   H229    1.083   .     S
C191   C205    1.397   .     A
C191   C202    1.369   .     A
C192   H230    1.083   .     S
C192   C205    1.397   .     A
C192   C198    1.369   .     A
C193   C206    1.397   .     A
C193   C200    1.369   .     A
C193   H231    1.083   .     S
C194   C208    1.397   .     A
C194   H232    1.083   .     S
C195   C207    1.397   .     A
C195   H218    1.083   .     S
C196   H219    1.083   .     S
C196   C207    1.397   .     A
C197   C208    1.397   .     A
C197   H220    1.083   .     S
C198   C211    1.397   .     A
C198   H221    1.083   .     S
C199   O259    1.293   .     A
C199   C204    1.423   .     S
C199   O256    1.293   .     A
C200   C209    1.397   .     A
C200   H222    1.083   .     S
C201   H223    1.083   .     S
C201   C209    1.397   .     A
C202   H224    1.083   .     S
C202   C211    1.397   .     A
C203   C210    1.423   .     S
C207   C215    1.423   .     S
C208   C214    1.423   .     S
C209   C213    1.423   .     S
C210   O257    1.293   .     A
C210   O258    1.293   .     A
C211   C212    1.423   .     S
C212   O260    1.293   .     A
C212   O248    1.293   .     A
C213   O246    1.293   .     A
C213   O247    1.293   .     A
C214   O252    1.293   .     A
C214   O249    1.293   .     A
C215   O250    1.293   .     A
C215   O251    1.293   .     A
C216   N242    1.376   .     A
C216   I233    2.137   .     S
C216   C884    1.428   1_554 S
N241   Zn261   2.033   .     S
N242   Zn262   2.033   .     S
N243   Zn263   2.033   .     S
N244   Zn264   2.033   .     S
O245   Zn261   2.002   .     S
O246   Zn264   2.002   .     S
O247   Zn263   2.002   .     S
O248   Zn88    2.002   1_565 S
O249   Zn88    2.002   1_565 S
O250   Zn263   2.002   .     S
O251   Zn264   2.002   .     S
O252   Zn87    2.002   1_565 S
O253   Zn350   2.002   .     S
O254   Zn349   2.002   .     S
O255   Zn262   2.002   .     S
O256   Zn350   2.002   .     S
O257   Zn261   2.002   .     S
O258   Zn262   2.002   .     S
O259   Zn349   2.002   .     S
O260   Zn87    2.002   1_565 S
Zn261  O342    2.002   1_455 S
Zn261  O347    2.002   1_455 S
Zn262  O341    2.002   1_455 S
Zn262  O344    2.002   1_455 S
C265   O333    1.293   .     A
C265   O343    1.293   .     A
C265   C294    1.423   .     S
C266   I322    2.137   .     S
C266   C619    1.428   .     S
C266   N329    1.376   .     S
C267   N330    1.376   .     A
C267   C970    1.428   1_554 S
C267   I323    2.137   .     S
C268   C656    1.428   .     S
C268   I324    2.137   .     S
C268   N329    1.376   .     S
C269   I325    2.137   .     S
C269   C976    1.428   1_554 S
C269   N332    1.376   .     S
C270   N155    1.376   1_565 A
C270   I326    2.137   .     S
C270   C623    1.428   .     S
C271   N156    1.376   1_565 A
C271   I327    2.137   .     S
C271   C974    1.428   1_554 S
C272   I328    2.137   .     S
C272   C621    1.428   .     S
C272   N331    1.376   .     S
C273   C284    1.369   .     A
C273   H305    1.083   .     S
C273   C292    1.397   .     A
C274   C291    1.397   .     A
C274   C285    1.369   .     A
C274   H313    1.083   .     S
C275   C282    1.369   .     A
C275   C291    1.397   .     A
C275   H314    1.083   .     S
C276   C293    1.423   .     S
C276   O342    1.293   .     A
C276   O341    1.293   .     A
C277   H315    1.083   .     S
C277   C292    1.397   .     A
C277   C283    1.369   .     A
C278   H316    1.083   .     S
C278   C294    1.397   .     A
C278   C289    1.369   .     A
C279   H317    1.083   .     S
C279   C293    1.397   .     A
C279   C290    1.369   .     A
C280   H318    1.083   .     S
C280   C293    1.397   .     A
C280   C286    1.369   .     A
C281   C294    1.397   .     A
C281   C288    1.369   .     A
C281   H319    1.083   .     S
C282   C296    1.397   .     A
C282   H320    1.083   .     S
C283   C295    1.397   .     A
C283   H306    1.083   .     S
C284   H307    1.083   .     S
C284   C295    1.397   .     A
C285   C296    1.397   .     A
C285   H308    1.083   .     S
C286   C299    1.397   .     A
C286   H309    1.083   .     S
C287   O347    1.293   .     A
C287   C292    1.423   .     S
C287   O344    1.293   .     A
C288   C297    1.397   .     A
C288   H310    1.083   .     S
C289   H311    1.083   .     S
C289   C297    1.397   .     A
C290   H312    1.083   .     S
C290   C299    1.397   .     A
C291   C298    1.423   .     S
C295   C303    1.423   .     S
C296   C302    1.423   .     S
C297   C301    1.423   .     S
C298   O345    1.293   .     A
C298   O346    1.293   .     A
C299   C300    1.423   .     S
C300   O348    1.293   .     A
C300   O336    1.293   .     A
C301   O334    1.293   .     A
C301   O335    1.293   .     A
C302   O340    1.293   .     A
C302   O337    1.293   .     A
C303   O338    1.293   .     A
C303   O339    1.293   .     A
C304   N330    1.376   .     A
C304   I321    2.137   .     S
C304   C972    1.428   1_554 S
N329   Zn349   2.033   .     S
N330   Zn350   2.033   .     S
N331   Zn351   2.033   .     S
N332   Zn352   2.033   .     S
O333   Zn349   2.002   .     S
O334   Zn352   2.002   .     S
O335   Zn351   2.002   .     S
O336   Zn176   2.002   1_565 S
O337   Zn176   2.002   1_565 S
O338   Zn351   2.002   .     S
O339   Zn352   2.002   .     S
O340   Zn175   2.002   1_565 S
O341   Zn262   2.002   1_655 S
O342   Zn261   2.002   1_655 S
O343   Zn350   2.002   .     S
O344   Zn262   2.002   1_655 S
O345   Zn349   2.002   .     S
O346   Zn350   2.002   .     S
O347   Zn261   2.002   1_655 S
O348   Zn175   2.002   1_565 S
C353   O421    1.293   .     A
C353   O431    1.293   .     A
C353   C382    1.423   .     S
C354   I410    2.137   .     S
C354   C707    1.428   .     S
C354   N417    1.376   .     S
C355   N418    1.376   .     A
C355   I411    2.137   .     S
C356   C744    1.428   .     S
C356   I412    2.137   .     S
C356   N417    1.376   .     S
C357   I413    2.137   .     S
C357   N420    1.376   .     S
C358   N595    1.376   .     A
C358   I414    2.137   .     S
C358   C711    1.428   .     S
C359   N596    1.376   .     A
C359   I415    2.137   .     S
C360   I416    2.137   .     S
C360   C709    1.428   .     S
C360   N419    1.376   .     S
C361   C372    1.369   .     A
C361   H393    1.083   .     S
C361   C380    1.397   .     A
C362   C379    1.397   .     A
C362   C373    1.369   .     A
C362   H401    1.083   .     S
C363   C370    1.369   .     A
C363   C379    1.397   .     A
C363   H402    1.083   .     S
C364   C381    1.423   .     S
C364   O430    1.293   .     A
C364   O429    1.293   .     A
C365   H403    1.083   .     S
C365   C380    1.397   .     A
C365   C371    1.369   .     A
C366   H404    1.083   .     S
C366   C382    1.397   .     A
C366   C377    1.369   .     A
C367   H405    1.083   .     S
C367   C381    1.397   .     A
C367   C378    1.369   .     A
C368   H406    1.083   .     S
C368   C381    1.397   .     A
C368   C374    1.369   .     A
C369   C382    1.397   .     A
C369   C376    1.369   .     A
C369   H407    1.083   .     S
C370   C384    1.397   .     A
C370   H408    1.083   .     S
C371   C383    1.397   .     A
C371   H394    1.083   .     S
C372   H395    1.083   .     S
C372   C383    1.397   .     A
C373   C384    1.397   .     A
C373   H396    1.083   .     S
C374   C387    1.397   .     A
C374   H397    1.083   .     S
C375   O435    1.293   .     A
C375   C380    1.423   .     S
C375   O432    1.293   .     A
C376   C385    1.397   .     A
C376   H398    1.083   .     S
C377   H399    1.083   .     S
C377   C385    1.397   .     A
C378   H400    1.083   .     S
C378   C387    1.397   .     A
C379   C386    1.423   .     S
C383   C391    1.423   .     S
C384   C390    1.423   .     S
C385   C389    1.423   .     S
C386   O433    1.293   .     A
C386   O434    1.293   .     A
C387   C388    1.423   .     S
C388   O436    1.293   .     A
C388   O424    1.293   .     A
C389   O422    1.293   .     A
C389   O423    1.293   .     A
C390   O428    1.293   .     A
C390   O425    1.293   .     A
C391   O426    1.293   .     A
C391   O427    1.293   .     A
C392   N418    1.376   .     A
C392   I409    2.137   .     S
N417   Zn437   2.033   .     S
N418   Zn438   2.033   .     S
N419   C534    1.376   1_545 A
N419   Zn439   2.033   .     S
N420   Zn440   2.033   .     S
N420   C535    1.376   1_545 A
O421   Zn437   2.002   .     S
O422   Zn440   2.002   .     S
O423   Zn439   2.002   .     S
O424   Zn616   2.002   .     S
O425   Zn616   2.002   .     S
O426   Zn439   2.002   .     S
O427   Zn440   2.002   .     S
O428   Zn615   2.002   .     S
O429   Zn526   2.002   .     S
O430   Zn525   2.002   .     S
O431   Zn438   2.002   .     S
O432   Zn526   2.002   .     S
O433   Zn437   2.002   .     S
O434   Zn438   2.002   .     S
O435   Zn525   2.002   .     S
O436   Zn615   2.002   .     S
Zn437  O518    2.002   1_455 S
Zn437  O523    2.002   1_455 S
Zn438  O517    2.002   1_455 S
Zn438  O520    2.002   1_455 S
Zn439  O612    2.002   1_545 S
Zn439  O604    2.002   1_545 S
Zn440  O600    2.002   1_545 S
Zn440  O601    2.002   1_545 S
C441   O509    1.293   .     A
C441   O519    1.293   .     A
C441   C470    1.423   .     S
C442   I498    2.137   .     S
C442   C795    1.428   .     S
C442   N505    1.376   .     S
C443   N506    1.376   .     A
C443   I499    2.137   .     S
C444   C832    1.428   .     S
C444   I500    2.137   .     S
C444   N505    1.376   .     S
C445   I501    2.137   .     S
C445   N508    1.376   .     S
C446   N683    1.376   .     A
C446   I502    2.137   .     S
C446   C799    1.428   .     S
C447   N684    1.376   .     A
C447   I503    2.137   .     S
C448   I504    2.137   .     S
C448   C797    1.428   .     S
C448   N507    1.376   .     S
C449   C460    1.369   .     A
C449   H481    1.083   .     S
C449   C468    1.397   .     A
C450   C467    1.397   .     A
C450   C461    1.369   .     A
C450   H489    1.083   .     S
C451   C458    1.369   .     A
C451   C467    1.397   .     A
C451   H490    1.083   .     S
C452   C469    1.423   .     S
C452   O518    1.293   .     A
C452   O517    1.293   .     A
C453   H491    1.083   .     S
C453   C468    1.397   .     A
C453   C459    1.369   .     A
C454   H492    1.083   .     S
C454   C470    1.397   .     A
C454   C465    1.369   .     A
C455   H493    1.083   .     S
C455   C469    1.397   .     A
C455   C466    1.369   .     A
C456   H494    1.083   .     S
C456   C469    1.397   .     A
C456   C462    1.369   .     A
C457   C470    1.397   .     A
C457   C464    1.369   .     A
C457   H495    1.083   .     S
C458   C472    1.397   .     A
C458   H496    1.083   .     S
C459   C471    1.397   .     A
C459   H482    1.083   .     S
C460   H483    1.083   .     S
C460   C471    1.397   .     A
C461   C472    1.397   .     A
C461   H484    1.083   .     S
C462   C475    1.397   .     A
C462   H485    1.083   .     S
C463   O523    1.293   .     A
C463   C468    1.423   .     S
C463   O520    1.293   .     A
C464   C473    1.397   .     A
C464   H486    1.083   .     S
C465   H487    1.083   .     S
C465   C473    1.397   .     A
C466   H488    1.083   .     S
C466   C475    1.397   .     A
C467   C474    1.423   .     S
C471   C479    1.423   .     S
C472   C478    1.423   .     S
C473   C477    1.423   .     S
C474   O521    1.293   .     A
C474   O522    1.293   .     A
C475   C476    1.423   .     S
C476   O524    1.293   .     A
C476   O512    1.293   .     A
C477   O510    1.293   .     A
C477   O511    1.293   .     A
C478   O516    1.293   .     A
C478   O513    1.293   .     A
C479   O514    1.293   .     A
C479   O515    1.293   .     A
C480   N506    1.376   .     A
C480   I497    2.137   .     S
N505   Zn525   2.033   .     S
N506   Zn526   2.033   .     S
N507   C622    1.376   1_545 A
N507   Zn527   2.033   .     S
N508   Zn528   2.033   .     S
N508   C623    1.376   1_545 A
O509   Zn525   2.002   .     S
O510   Zn528   2.002   .     S
O511   Zn527   2.002   .     S
O512   Zn704   2.002   .     S
O513   Zn704   2.002   .     S
O514   Zn527   2.002   .     S
O515   Zn528   2.002   .     S
O516   Zn703   2.002   .     S
O517   Zn438   2.002   1_655 S
O518   Zn437   2.002   1_655 S
O519   Zn526   2.002   .     S
O520   Zn438   2.002   1_655 S
O521   Zn525   2.002   .     S
O522   Zn526   2.002   .     S
O523   Zn437   2.002   1_655 S
O524   Zn703   2.002   .     S
Zn527  O700    2.002   1_545 S
Zn527  O692    2.002   1_545 S
Zn528  O688    2.002   1_545 S
Zn528  O689    2.002   1_545 S
C529   O597    1.293   .     A
C529   O607    1.293   .     A
C529   C558    1.423   .     S
C530   I586    2.137   .     S
C530   C883    1.428   .     S
C530   N593    1.376   .     S
C531   N594    1.376   .     A
C531   I587    2.137   .     S
C532   C920    1.428   .     S
C532   I588    2.137   .     S
C532   N593    1.376   .     S
C533   I589    2.137   .     S
C533   N596    1.376   .     S
C534   N419    1.376   1_565 A
C534   I590    2.137   .     S
C534   C887    1.428   .     S
C535   N420    1.376   1_565 A
C535   I591    2.137   .     S
C536   I592    2.137   .     S
C536   C885    1.428   .     S
C536   N595    1.376   .     S
C537   C548    1.369   .     A
C537   H569    1.083   .     S
C537   C556    1.397   .     A
C538   C555    1.397   .     A
C538   C549    1.369   .     A
C538   H577    1.083   .     S
C539   C546    1.369   .     A
C539   C555    1.397   .     A
C539   H578    1.083   .     S
C540   C557    1.423   .     S
C540   O606    1.293   .     A
C540   O605    1.293   .     A
C541   H579    1.083   .     S
C541   C556    1.397   .     A
C541   C547    1.369   .     A
C542   H580    1.083   .     S
C542   C558    1.397   .     A
C542   C553    1.369   .     A
C543   H581    1.083   .     S
C543   C557    1.397   .     A
C543   C554    1.369   .     A
C544   H582    1.083   .     S
C544   C557    1.397   .     A
C544   C550    1.369   .     A
C545   C558    1.397   .     A
C545   C552    1.369   .     A
C545   H583    1.083   .     S
C546   C560    1.397   .     A
C546   H584    1.083   .     S
C547   C559    1.397   .     A
C547   H570    1.083   .     S
C548   H571    1.083   .     S
C548   C559    1.397   .     A
C549   C560    1.397   .     A
C549   H572    1.083   .     S
C550   C563    1.397   .     A
C550   H573    1.083   .     S
C551   O611    1.293   .     A
C551   C556    1.423   .     S
C551   O608    1.293   .     A
C552   C561    1.397   .     A
C552   H574    1.083   .     S
C553   H575    1.083   .     S
C553   C561    1.397   .     A
C554   H576    1.083   .     S
C554   C563    1.397   .     A
C555   C562    1.423   .     S
C559   C567    1.423   .     S
C560   C566    1.423   .     S
C561   C565    1.423   .     S
C562   O609    1.293   .     A
C562   O610    1.293   .     A
C563   C564    1.423   .     S
C564   O612    1.293   .     A
C564   O600    1.293   .     A
C565   O598    1.293   .     A
C565   O599    1.293   .     A
C566   O604    1.293   .     A
C566   O601    1.293   .     A
C567   O602    1.293   .     A
C567   O603    1.293   .     A
C568   N594    1.376   .     A
C568   I585    2.137   .     S
N593   Zn613   2.033   .     S
N594   Zn614   2.033   .     S
N595   Zn615   2.033   .     S
N596   Zn616   2.033   .     S
O597   Zn613   2.002   .     S
O598   Zn616   2.002   .     S
O599   Zn615   2.002   .     S
O600   Zn440   2.002   1_565 S
O601   Zn440   2.002   1_565 S
O602   Zn615   2.002   .     S
O603   Zn616   2.002   .     S
O604   Zn439   2.002   1_565 S
O605   Zn702   2.002   .     S
O606   Zn701   2.002   .     S
O607   Zn614   2.002   .     S
O608   Zn702   2.002   .     S
O609   Zn613   2.002   .     S
O610   Zn614   2.002   .     S
O611   Zn701   2.002   .     S
O612   Zn439   2.002   1_565 S
Zn613  O694    2.002   1_455 S
Zn613  O699    2.002   1_455 S
Zn614  O693    2.002   1_455 S
Zn614  O696    2.002   1_455 S
C617   O685    1.293   .     A
C617   O695    1.293   .     A
C617   C646    1.423   .     S
C618   I674    2.137   .     S
C618   C971    1.428   .     S
C618   N681    1.376   .     S
C619   N682    1.376   .     A
C619   I675    2.137   .     S
C620   C1008   1.428   .     S
C620   I676    2.137   .     S
C620   N681    1.376   .     S
C621   I677    2.137   .     S
C621   N684    1.376   .     S
C622   N507    1.376   1_565 A
C622   I678    2.137   .     S
C622   C975    1.428   .     S
C623   N508    1.376   1_565 A
C623   I679    2.137   .     S
C624   I680    2.137   .     S
C624   C973    1.428   .     S
C624   N683    1.376   .     S
C625   C636    1.369   .     A
C625   H657    1.083   .     S
C625   C644    1.397   .     A
C626   C643    1.397   .     A
C626   C637    1.369   .     A
C626   H665    1.083   .     S
C627   C634    1.369   .     A
C627   C643    1.397   .     A
C627   H666    1.083   .     S
C628   C645    1.423   .     S
C628   O694    1.293   .     A
C628   O693    1.293   .     A
C629   H667    1.083   .     S
C629   C644    1.397   .     A
C629   C635    1.369   .     A
C630   H668    1.083   .     S
C630   C646    1.397   .     A
C630   C641    1.369   .     A
C631   H669    1.083   .     S
C631   C645    1.397   .     A
C631   C642    1.369   .     A
C632   H670    1.083   .     S
C632   C645    1.397   .     A
C632   C638    1.369   .     A
C633   C646    1.397   .     A
C633   C640    1.369   .     A
C633   H671    1.083   .     S
C634   C648    1.397   .     A
C634   H672    1.083   .     S
C635   C647    1.397   .     A
C635   H658    1.083   .     S
C636   H659    1.083   .     S
C636   C647    1.397   .     A
C637   C648    1.397   .     A
C637   H660    1.083   .     S
C638   C651    1.397   .     A
C638   H661    1.083   .     S
C639   O699    1.293   .     A
C639   C644    1.423   .     S
C639   O696    1.293   .     A
C640   C649    1.397   .     A
C640   H662    1.083   .     S
C641   H663    1.083   .     S
C641   C649    1.397   .     A
C642   H664    1.083   .     S
C642   C651    1.397   .     A
C643   C650    1.423   .     S
C647   C655    1.423   .     S
C648   C654    1.423   .     S
C649   C653    1.423   .     S
C650   O697    1.293   .     A
C650   O698    1.293   .     A
C651   C652    1.423   .     S
C652   O700    1.293   .     A
C652   O688    1.293   .     A
C653   O686    1.293   .     A
C653   O687    1.293   .     A
C654   O692    1.293   .     A
C654   O689    1.293   .     A
C655   O690    1.293   .     A
C655   O691    1.293   .     A
C656   N682    1.376   .     A
C656   I673    2.137   .     S
N681   Zn701   2.033   .     S
N682   Zn702   2.033   .     S
N683   Zn703   2.033   .     S
N684   Zn704   2.033   .     S
O685   Zn701   2.002   .     S
O686   Zn704   2.002   .     S
O687   Zn703   2.002   .     S
O688   Zn528   2.002   1_565 S
O689   Zn528   2.002   1_565 S
O690   Zn703   2.002   .     S
O691   Zn704   2.002   .     S
O692   Zn527   2.002   1_565 S
O693   Zn614   2.002   1_655 S
O694   Zn613   2.002   1_655 S
O695   Zn702   2.002   .     S
O696   Zn614   2.002   1_655 S
O697   Zn701   2.002   .     S
O698   Zn702   2.002   .     S
O699   Zn613   2.002   1_655 S
O700   Zn527   2.002   1_565 S
C705   O773    1.293   .     A
C705   O783    1.293   .     A
C705   C734    1.423   .     S
C706   I762    2.137   .     S
C706   C3      1.428   1_556 S
C706   N769    1.376   .     S
C707   N770    1.376   .     A
C707   I763    2.137   .     S
C708   C40     1.428   1_556 S
C708   I764    2.137   .     S
C708   N769    1.376   .     S
C709   I765    2.137   .     S
C709   N772    1.376   .     S
C710   N947    1.376   .     A
C710   I766    2.137   .     S
C710   C7      1.428   1_556 S
C711   N948    1.376   .     A
C711   I767    2.137   .     S
C712   I768    2.137   .     S
C712   C5      1.428   1_556 S
C712   N771    1.376   .     S
C713   C724    1.369   .     A
C713   H745    1.083   .     S
C713   C732    1.397   .     A
C714   C731    1.397   .     A
C714   C725    1.369   .     A
C714   H753    1.083   .     S
C715   C722    1.369   .     A
C715   C731    1.397   .     A
C715   H754    1.083   .     S
C716   C733    1.423   .     S
C716   O782    1.293   .     A
C716   O781    1.293   .     A
C717   H755    1.083   .     S
C717   C732    1.397   .     A
C717   C723    1.369   .     A
C718   H756    1.083   .     S
C718   C734    1.397   .     A
C718   C729    1.369   .     A
C719   H757    1.083   .     S
C719   C733    1.397   .     A
C719   C730    1.369   .     A
C720   H758    1.083   .     S
C720   C733    1.397   .     A
C720   C726    1.369   .     A
C721   C734    1.397   .     A
C721   C728    1.369   .     A
C721   H759    1.083   .     S
C722   C736    1.397   .     A
C722   H760    1.083   .     S
C723   C735    1.397   .     A
C723   H746    1.083   .     S
C724   H747    1.083   .     S
C724   C735    1.397   .     A
C725   C736    1.397   .     A
C725   H748    1.083   .     S
C726   C739    1.397   .     A
C726   H749    1.083   .     S
C727   O787    1.293   .     A
C727   C732    1.423   .     S
C727   O784    1.293   .     A
C728   C737    1.397   .     A
C728   H750    1.083   .     S
C729   H751    1.083   .     S
C729   C737    1.397   .     A
C730   H752    1.083   .     S
C730   C739    1.397   .     A
C731   C738    1.423   .     S
C735   C743    1.423   .     S
C736   C742    1.423   .     S
C737   C741    1.423   .     S
C738   O785    1.293   .     A
C738   O786    1.293   .     A
C739   C740    1.423   .     S
C740   O788    1.293   .     A
C740   O776    1.293   .     A
C741   O774    1.293   .     A
C741   O775    1.293   .     A
C742   O780    1.293   .     A
C742   O777    1.293   .     A
C743   O778    1.293   .     A
C743   O779    1.293   .     A
C744   N770    1.376   .     A
C744   I761    2.137   .     S
N769   Zn789   2.033   .     S
N770   Zn790   2.033   .     S
N771   C886    1.376   1_545 A
N771   Zn791   2.033   .     S
N772   Zn792   2.033   .     S
N772   C887    1.376   1_545 A
O773   Zn789   2.002   .     S
O774   Zn792   2.002   .     S
O775   Zn791   2.002   .     S
O776   Zn968   2.002   .     S
O777   Zn968   2.002   .     S
O778   Zn791   2.002   .     S
O779   Zn792   2.002   .     S
O780   Zn967   2.002   .     S
O781   Zn878   2.002   .     S
O782   Zn877   2.002   .     S
O783   Zn790   2.002   .     S
O784   Zn878   2.002   .     S
O785   Zn789   2.002   .     S
O786   Zn790   2.002   .     S
O787   Zn877   2.002   .     S
O788   Zn967   2.002   .     S
Zn789  O870    2.002   1_455 S
Zn789  O875    2.002   1_455 S
Zn790  O869    2.002   1_455 S
Zn790  O872    2.002   1_455 S
Zn791  O964    2.002   1_545 S
Zn791  O956    2.002   1_545 S
Zn792  O952    2.002   1_545 S
Zn792  O953    2.002   1_545 S
C793   O861    1.293   .     A
C793   O871    1.293   .     A
C793   C822    1.423   .     S
C794   I850    2.137   .     S
C794   C91     1.428   1_556 S
C794   N857    1.376   .     S
C795   N858    1.376   .     A
C795   I851    2.137   .     S
C796   C128    1.428   1_556 S
C796   I852    2.137   .     S
C796   N857    1.376   .     S
C797   I853    2.137   .     S
C797   N860    1.376   .     S
C798   N1035   1.376   .     A
C798   I854    2.137   .     S
C798   C95     1.428   1_556 S
C799   N1036   1.376   .     A
C799   I855    2.137   .     S
C800   I856    2.137   .     S
C800   C93     1.428   1_556 S
C800   N859    1.376   .     S
C801   C812    1.369   .     A
C801   H833    1.083   .     S
C801   C820    1.397   .     A
C802   C819    1.397   .     A
C802   C813    1.369   .     A
C802   H841    1.083   .     S
C803   C810    1.369   .     A
C803   C819    1.397   .     A
C803   H842    1.083   .     S
C804   C821    1.423   .     S
C804   O870    1.293   .     A
C804   O869    1.293   .     A
C805   H843    1.083   .     S
C805   C820    1.397   .     A
C805   C811    1.369   .     A
C806   H844    1.083   .     S
C806   C822    1.397   .     A
C806   C817    1.369   .     A
C807   H845    1.083   .     S
C807   C821    1.397   .     A
C807   C818    1.369   .     A
C808   H846    1.083   .     S
C808   C821    1.397   .     A
C808   C814    1.369   .     A
C809   C822    1.397   .     A
C809   C816    1.369   .     A
C809   H847    1.083   .     S
C810   C824    1.397   .     A
C810   H848    1.083   .     S
C811   C823    1.397   .     A
C811   H834    1.083   .     S
C812   H835    1.083   .     S
C812   C823    1.397   .     A
C813   C824    1.397   .     A
C813   H836    1.083   .     S
C814   C827    1.397   .     A
C814   H837    1.083   .     S
C815   O875    1.293   .     A
C815   C820    1.423   .     S
C815   O872    1.293   .     A
C816   C825    1.397   .     A
C816   H838    1.083   .     S
C817   H839    1.083   .     S
C817   C825    1.397   .     A
C818   H840    1.083   .     S
C818   C827    1.397   .     A
C819   C826    1.423   .     S
C823   C831    1.423   .     S
C824   C830    1.423   .     S
C825   C829    1.423   .     S
C826   O873    1.293   .     A
C826   O874    1.293   .     A
C827   C828    1.423   .     S
C828   O876    1.293   .     A
C828   O864    1.293   .     A
C829   O862    1.293   .     A
C829   O863    1.293   .     A
C830   O868    1.293   .     A
C830   O865    1.293   .     A
C831   O866    1.293   .     A
C831   O867    1.293   .     A
C832   N858    1.376   .     A
C832   I849    2.137   .     S
N857   Zn877   2.033   .     S
N858   Zn878   2.033   .     S
N859   C974    1.376   1_545 A
N859   Zn879   2.033   .     S
N860   Zn880   2.033   .     S
N860   C975    1.376   1_545 A
O861   Zn877   2.002   .     S
O862   Zn880   2.002   .     S
O863   Zn879   2.002   .     S
O864   Zn1056  2.002   .     S
O865   Zn1056  2.002   .     S
O866   Zn879   2.002   .     S
O867   Zn880   2.002   .     S
O868   Zn1055  2.002   .     S
O869   Zn790   2.002   1_655 S
O870   Zn789   2.002   1_655 S
O871   Zn878   2.002   .     S
O872   Zn790   2.002   1_655 S
O873   Zn877   2.002   .     S
O874   Zn878   2.002   .     S
O875   Zn789   2.002   1_655 S
O876   Zn1055  2.002   .     S
Zn879  O1052   2.002   1_545 S
Zn879  O1044   2.002   1_545 S
Zn880  O1040   2.002   1_545 S
Zn880  O1041   2.002   1_545 S
C881   O949    1.293   .     A
C881   O959    1.293   .     A
C881   C910    1.423   .     S
C882   I938    2.137   .     S
C882   C179    1.428   1_556 S
C882   N945    1.376   .     S
C883   N946    1.376   .     A
C883   I939    2.137   .     S
C884   C216    1.428   1_556 S
C884   I940    2.137   .     S
C884   N945    1.376   .     S
C885   I941    2.137   .     S
C885   N948    1.376   .     S
C886   N771    1.376   1_565 A
C886   I942    2.137   .     S
C886   C183    1.428   1_556 S
C887   N772    1.376   1_565 A
C887   I943    2.137   .     S
C888   I944    2.137   .     S
C888   C181    1.428   1_556 S
C888   N947    1.376   .     S
C889   C900    1.369   .     A
C889   H921    1.083   .     S
C889   C908    1.397   .     A
C890   C907    1.397   .     A
C890   C901    1.369   .     A
C890   H929    1.083   .     S
C891   C898    1.369   .     A
C891   C907    1.397   .     A
C891   H930    1.083   .     S
C892   C909    1.423   .     S
C892   O958    1.293   .     A
C892   O957    1.293   .     A
C893   H931    1.083   .     S
C893   C908    1.397   .     A
C893   C899    1.369   .     A
C894   H932    1.083   .     S
C894   C910    1.397   .     A
C894   C905    1.369   .     A
C895   H933    1.083   .     S
C895   C909    1.397   .     A
C895   C906    1.369   .     A
C896   H934    1.083   .     S
C896   C909    1.397   .     A
C896   C902    1.369   .     A
C897   C910    1.397   .     A
C897   C904    1.369   .     A
C897   H935    1.083   .     S
C898   C912    1.397   .     A
C898   H936    1.083   .     S
C899   C911    1.397   .     A
C899   H922    1.083   .     S
C900   H923    1.083   .     S
C900   C911    1.397   .     A
C901   C912    1.397   .     A
C901   H924    1.083   .     S
C902   C915    1.397   .     A
C902   H925    1.083   .     S
C903   O963    1.293   .     A
C903   C908    1.423   .     S
C903   O960    1.293   .     A
C904   C913    1.397   .     A
C904   H926    1.083   .     S
C905   H927    1.083   .     S
C905   C913    1.397   .     A
C906   H928    1.083   .     S
C906   C915    1.397   .     A
C907   C914    1.423   .     S
C911   C919    1.423   .     S
C912   C918    1.423   .     S
C913   C917    1.423   .     S
C914   O961    1.293   .     A
C914   O962    1.293   .     A
C915   C916    1.423   .     S
C916   O964    1.293   .     A
C916   O952    1.293   .     A
C917   O950    1.293   .     A
C917   O951    1.293   .     A
C918   O956    1.293   .     A
C918   O953    1.293   .     A
C919   O954    1.293   .     A
C919   O955    1.293   .     A
C920   N946    1.376   .     A
C920   I937    2.137   .     S
N945   Zn965   2.033   .     S
N946   Zn966   2.033   .     S
N947   Zn967   2.033   .     S
N948   Zn968   2.033   .     S
O949   Zn965   2.002   .     S
O950   Zn968   2.002   .     S
O951   Zn967   2.002   .     S
O952   Zn792   2.002   1_565 S
O953   Zn792   2.002   1_565 S
O954   Zn967   2.002   .     S
O955   Zn968   2.002   .     S
O956   Zn791   2.002   1_565 S
O957   Zn1054  2.002   .     S
O958   Zn1053  2.002   .     S
O959   Zn966   2.002   .     S
O960   Zn1054  2.002   .     S
O961   Zn965   2.002   .     S
O962   Zn966   2.002   .     S
O963   Zn1053  2.002   .     S
O964   Zn791   2.002   1_565 S
Zn965  O1046   2.002   1_455 S
Zn965  O1051   2.002   1_455 S
Zn966  O1045   2.002   1_455 S
Zn966  O1048   2.002   1_455 S
C969   O1037   1.293   .     A
C969   O1047   1.293   .     A
C969   C998    1.423   .     S
C970   I1026   2.137   .     S
C970   C267    1.428   1_556 S
C970   N1033   1.376   .     S
C971   N1034   1.376   .     A
C971   I1027   2.137   .     S
C972   C304    1.428   1_556 S
C972   I1028   2.137   .     S
C972   N1033   1.376   .     S
C973   I1029   2.137   .     S
C973   N1036   1.376   .     S
C974   N859    1.376   1_565 A
C974   I1030   2.137   .     S
C974   C271    1.428   1_556 S
C975   N860    1.376   1_565 A
C975   I1031   2.137   .     S
C976   I1032   2.137   .     S
C976   C269    1.428   1_556 S
C976   N1035   1.376   .     S
C977   C988    1.369   .     A
C977   H1009   1.083   .     S
C977   C996    1.397   .     A
C978   C995    1.397   .     A
C978   C989    1.369   .     A
C978   H1017   1.083   .     S
C979   C986    1.369   .     A
C979   C995    1.397   .     A
C979   H1018   1.083   .     S
C980   C997    1.423   .     S
C980   O1046   1.293   .     A
C980   O1045   1.293   .     A
C981   H1019   1.083   .     S
C981   C996    1.397   .     A
C981   C987    1.369   .     A
C982   H1020   1.083   .     S
C982   C998    1.397   .     A
C982   C993    1.369   .     A
C983   H1021   1.083   .     S
C983   C997    1.397   .     A
C983   C994    1.369   .     A
C984   H1022   1.083   .     S
C984   C997    1.397   .     A
C984   C990    1.369   .     A
C985   C998    1.397   .     A
C985   C992    1.369   .     A
C985   H1023   1.083   .     S
C986   C1000   1.397   .     A
C986   H1024   1.083   .     S
C987   C999    1.397   .     A
C987   H1010   1.083   .     S
C988   H1011   1.083   .     S
C988   C999    1.397   .     A
C989   C1000   1.397   .     A
C989   H1012   1.083   .     S
C990   C1003   1.397   .     A
C990   H1013   1.083   .     S
C991   O1051   1.293   .     A
C991   C996    1.423   .     S
C991   O1048   1.293   .     A
C992   C1001   1.397   .     A
C992   H1014   1.083   .     S
C993   H1015   1.083   .     S
C993   C1001   1.397   .     A
C994   H1016   1.083   .     S
C994   C1003   1.397   .     A
C995   C1002   1.423   .     S
C999   C1007   1.423   .     S
C1000  C1006   1.423   .     S
C1001  C1005   1.423   .     S
C1002  O1049   1.293   .     A
C1002  O1050   1.293   .     A
C1003  C1004   1.423   .     S
C1004  O1052   1.293   .     A
C1004  O1040   1.293   .     A
C1005  O1038   1.293   .     A
C1005  O1039   1.293   .     A
C1006  O1044   1.293   .     A
C1006  O1041   1.293   .     A
C1007  O1042   1.293   .     A
C1007  O1043   1.293   .     A
C1008  N1034   1.376   .     A
C1008  I1025   2.137   .     S
N1033  Zn1053  2.033   .     S
N1034  Zn1054  2.033   .     S
N1035  Zn1055  2.033   .     S
N1036  Zn1056  2.033   .     S
O1037  Zn1053  2.002   .     S
O1038  Zn1056  2.002   .     S
O1039  Zn1055  2.002   .     S
O1040  Zn880   2.002   1_565 S
O1041  Zn880   2.002   1_565 S
O1042  Zn1055  2.002   .     S
O1043  Zn1056  2.002   .     S
O1044  Zn879   2.002   1_565 S
O1045  Zn966   2.002   1_655 S
O1046  Zn965   2.002   1_655 S
O1047  Zn1054  2.002   .     S
O1048  Zn966   2.002   1_655 S
O1049  Zn1053  2.002   .     S
O1050  Zn1054  2.002   .     S
O1051  Zn965   2.002   1_655 S
O1052  Zn879   2.002   1_565 S
