data_str_m2_o1_o18_pcu_sym.37
_audit_creation_date              2020-01-03
_audit_creation_method            'Materials Studio'
_symmetry_space_group_name_H-M    'P1'
_symmetry_Int_Tables_number       1
_symmetry_cell_setting            triclinic
loop_
_symmetry_equiv_pos_as_xyz
  x,y,z
_cell_length_a                    28.9094
_cell_length_b                    32.3062
_cell_length_c                    30.9364
_cell_angle_alpha                 87.8890
_cell_angle_beta                  73.7786
_cell_angle_gamma                 89.4173
loop_
_atom_site_label
_atom_site_type_symbol
_atom_site_fract_x
_atom_site_fract_y
_atom_site_fract_z
_atom_site_U_iso_or_equiv
_atom_site_adp_type
_atom_site_occupancy
O1     O     0.03958   0.10655   0.25000   0.00000  Uiso   1.00
O2     O     0.29375   0.22678   0.25000   0.00000  Uiso   1.00
O3     O     0.29372   0.10654   0.25001   0.00000  Uiso   1.00
O4     O     0.03961   0.22679   0.25000   0.00000  Uiso   1.00
C5     C     0.00024   0.08757   0.24960   0.00000  Uiso   1.00
C6     C     0.33312   0.24576   0.25032   0.00000  Uiso   1.00
O7     O     0.01852   0.16668   0.31492   0.00000  Uiso   1.00
O8     O     0.31481   0.16666   0.18509   0.00000  Uiso   1.00
O9     O     0.27267   0.16667   0.31492   0.00000  Uiso   1.00
O10    O     0.06067   0.16667   0.18508   0.00000  Uiso   1.00
C11    C     0.30573   0.16752   0.33621   0.00000  Uiso   1.00
C12    C     0.02750   0.16787   0.16400   0.00000  Uiso   1.00
Cu13   Cu    0.04689   0.16667   0.25000   0.00000  Uiso   1.00
Cu14   Cu    0.28645   0.16666   0.25000   0.00000  Uiso   1.00
C15    C     0.29020   0.16963   0.38601   0.00000  Uiso   1.00
C16    C     0.04369   0.17809   0.11553   0.00000  Uiso   1.00
C17    C     0.30854   0.15652   0.45702   0.00000  Uiso   1.00
C18    C     0.03938   0.22583   0.05485   0.00000  Uiso   1.00
C19    C     0.32314   0.15927   0.41028   0.00000  Uiso   1.00
C20    C     0.01873   0.20803   0.09730   0.00000  Uiso   1.00
C21    C     0.24252   0.18103   0.40941   0.00000  Uiso   1.00
C22    C     0.08928   0.16470   0.09031   0.00000  Uiso   1.00
C23    C     0.22866   0.18221   0.45738   0.00000  Uiso   1.00
C24    C     0.11378   0.18714   0.05004   0.00000  Uiso   1.00
C25    C     0.26095   0.16603   0.48100   0.00000  Uiso   1.00
C26    C     0.08709   0.21643   0.03108   0.00000  Uiso   1.00
C27    C     0.18236   0.19589   0.48279   0.00000  Uiso   1.00
C28    C     0.16366   0.18159   0.02795   0.00000  Uiso   1.00
C29    C     0.19644   0.16618   0.05072   0.00000  Uiso   1.00
C30    C     0.15601   0.22606   0.46581   0.00000  Uiso   1.00
C31    C     0.24461   0.15922   0.02817   0.00000  Uiso   1.00
C32    C     0.10920   0.23653   0.48925   0.00000  Uiso   1.00
H33    H     0.31693   0.21858   0.11629   0.00000  Uiso   1.00
H34    H     0.02656   0.15097   0.39305   0.00000  Uiso   1.00
H35    H     0.00141   0.14598   0.47401   0.00000  Uiso   1.00
H36    H     0.01827   0.24838   0.04190   0.00000  Uiso   1.00
H37    H     0.18596   0.16177   0.08682   0.00000  Uiso   1.00
H38    H     0.17246   0.24379   0.43530   0.00000  Uiso   1.00
C39    C     0.31263   0.02235   0.22016   0.00000  Uiso   1.00
C40    C     0.02084   0.31096   0.27963   0.00000  Uiso   1.00
C41    C     0.31233   0.31263   0.22126   0.00000  Uiso   1.00
C42    C     0.02107   0.02068   0.27859   0.00000  Uiso   1.00
H43    H     0.29713   0.29663   0.19826   0.00000  Uiso   1.00
H44    H     0.03623   0.03665   0.30163   0.00000  Uiso   1.00
C45    C     0.33293   0.29039   0.25078   0.00000  Uiso   1.00
C46    C     0.00046   0.04293   0.24908   0.00000  Uiso   1.00
C47    C     0.18482   0.13686   0.27377   0.00000  Uiso   1.00
C48    C     0.14864   0.19605   0.22566   0.00000  Uiso   1.00
C49    C     0.13568   0.13684   0.27393   0.00000  Uiso   1.00
C50    C     0.19750   0.19664   0.22634   0.00000  Uiso   1.00
N51    N     0.11736   0.16668   0.24999   0.00000  Uiso   1.00
N52    N     0.21597   0.16666   0.25001   0.00000  Uiso   1.00
N53    N     0.27544   0.14328   0.05395   0.00000  Uiso   1.00
H54    H     0.30471   0.16328   0.04899   0.00000  Uiso   1.00
H55    H     0.28814   0.11422   0.04214   0.00000  Uiso   1.00
N56    N     0.08497   0.26755   0.46933   0.00000  Uiso   1.00
H57    H     0.07489   0.29181   0.49150   0.00000  Uiso   1.00
H58    H     0.05407   0.25445   0.46421   0.00000  Uiso   1.00
N59    N     0.10563   0.12494   0.10276   0.00000  Uiso   1.00
H60    H     0.12703   0.11019   0.07461   0.00000  Uiso   1.00
H61    H     0.12426   0.12819   0.12688   0.00000  Uiso   1.00
N62    N     0.20741   0.18524   0.38449   0.00000  Uiso   1.00
H63    H     0.17383   0.17322   0.40243   0.00000  Uiso   1.00
H64    H     0.20579   0.21584   0.37290   0.00000  Uiso   1.00
N65    N     0.29278   0.04509   0.18888   0.00000  Uiso   1.00
H66    H     0.31110   0.03627   0.15638   0.00000  Uiso   1.00
H67    H     0.25671   0.03640   0.19510   0.00000  Uiso   1.00
N68    N     0.04091   0.28822   0.31076   0.00000  Uiso   1.00
H69    H     0.02283   0.29708   0.34331   0.00000  Uiso   1.00
H70    H     0.07703   0.29684   0.30428   0.00000  Uiso   1.00
N71    N     0.20160   0.10416   0.29794   0.00000  Uiso   1.00
O72    O     0.19952   0.10870   0.34001   0.00000  Uiso   1.00
O73    O     0.20476   0.06690   0.28278   0.00000  Uiso   1.00
N74    N     0.13249   0.22700   0.19898   0.00000  Uiso   1.00
O75    O     0.13695   0.22023   0.15684   0.00000  Uiso   1.00
O76    O     0.12805   0.26502   0.21207   0.00000  Uiso   1.00
N77    N     0.10676   0.10345   0.29850   0.00000  Uiso   1.00
H78    H     0.07332   0.11382   0.31728   0.00000  Uiso   1.00
H79    H     0.10388   0.08112   0.27589   0.00000  Uiso   1.00
N80    N     0.22608   0.23051   0.20259   0.00000  Uiso   1.00
H81    H     0.25999   0.22045   0.18482   0.00000  Uiso   1.00
H82    H     0.22803   0.25260   0.22578   0.00000  Uiso   1.00
O83    O     0.37291   0.10655   0.25000   0.00000  Uiso   1.00
O84    O     0.62709   0.22678   0.25000   0.00000  Uiso   1.00
O85    O     0.62706   0.10654   0.25001   0.00000  Uiso   1.00
O86    O     0.37294   0.22679   0.25000   0.00000  Uiso   1.00
C87    C     0.33357   0.08757   0.24960   0.00000  Uiso   1.00
C88    C     0.66645   0.24576   0.25032   0.00000  Uiso   1.00
O89    O     0.35186   0.16668   0.31492   0.00000  Uiso   1.00
O90    O     0.64814   0.16666   0.18509   0.00000  Uiso   1.00
O91    O     0.60600   0.16667   0.31492   0.00000  Uiso   1.00
O92    O     0.39400   0.16667   0.18508   0.00000  Uiso   1.00
C93    C     0.63906   0.16752   0.33621   0.00000  Uiso   1.00
C94    C     0.36083   0.16787   0.16400   0.00000  Uiso   1.00
Cu95   Cu    0.38022   0.16667   0.25000   0.00000  Uiso   1.00
Cu96   Cu    0.61978   0.16666   0.25000   0.00000  Uiso   1.00
C97    C     0.62353   0.16963   0.38601   0.00000  Uiso   1.00
C98    C     0.37702   0.17809   0.11553   0.00000  Uiso   1.00
C99    C     0.64187   0.15652   0.45702   0.00000  Uiso   1.00
C100   C     0.37271   0.22583   0.05485   0.00000  Uiso   1.00
C101   C     0.65647   0.15927   0.41028   0.00000  Uiso   1.00
C102   C     0.35207   0.20803   0.09730   0.00000  Uiso   1.00
C103   C     0.57585   0.18103   0.40941   0.00000  Uiso   1.00
C104   C     0.42261   0.16470   0.09031   0.00000  Uiso   1.00
C105   C     0.56199   0.18221   0.45738   0.00000  Uiso   1.00
C106   C     0.44712   0.18714   0.05004   0.00000  Uiso   1.00
C107   C     0.59429   0.16603   0.48100   0.00000  Uiso   1.00
C108   C     0.42043   0.21643   0.03108   0.00000  Uiso   1.00
C109   C     0.51570   0.19589   0.48279   0.00000  Uiso   1.00
C110   C     0.49699   0.18159   0.02795   0.00000  Uiso   1.00
C111   C     0.52977   0.16618   0.05072   0.00000  Uiso   1.00
C112   C     0.48934   0.22606   0.46581   0.00000  Uiso   1.00
C113   C     0.57794   0.15922   0.02817   0.00000  Uiso   1.00
C114   C     0.44254   0.23653   0.48925   0.00000  Uiso   1.00
H115   H     0.65027   0.21858   0.11629   0.00000  Uiso   1.00
H116   H     0.35989   0.15097   0.39305   0.00000  Uiso   1.00
H117   H     0.33474   0.14598   0.47401   0.00000  Uiso   1.00
H118   H     0.35160   0.24838   0.04190   0.00000  Uiso   1.00
H119   H     0.51929   0.16177   0.08682   0.00000  Uiso   1.00
H120   H     0.50579   0.24379   0.43530   0.00000  Uiso   1.00
C121   C     0.64596   0.02235   0.22016   0.00000  Uiso   1.00
C122   C     0.35417   0.31096   0.27963   0.00000  Uiso   1.00
C123   C     0.64566   0.31263   0.22126   0.00000  Uiso   1.00
C124   C     0.35441   0.02068   0.27859   0.00000  Uiso   1.00
H125   H     0.63046   0.29663   0.19826   0.00000  Uiso   1.00
H126   H     0.36956   0.03665   0.30163   0.00000  Uiso   1.00
C127   C     0.66627   0.29039   0.25078   0.00000  Uiso   1.00
C128   C     0.33379   0.04293   0.24908   0.00000  Uiso   1.00
C129   C     0.51815   0.13686   0.27377   0.00000  Uiso   1.00
C130   C     0.48197   0.19605   0.22566   0.00000  Uiso   1.00
C131   C     0.46902   0.13684   0.27393   0.00000  Uiso   1.00
C132   C     0.53083   0.19664   0.22634   0.00000  Uiso   1.00
N133   N     0.45069   0.16668   0.24999   0.00000  Uiso   1.00
N134   N     0.54931   0.16666   0.25001   0.00000  Uiso   1.00
N135   N     0.60878   0.14328   0.05395   0.00000  Uiso   1.00
H136   H     0.63805   0.16328   0.04899   0.00000  Uiso   1.00
H137   H     0.62147   0.11422   0.04214   0.00000  Uiso   1.00
N138   N     0.41830   0.26755   0.46933   0.00000  Uiso   1.00
H139   H     0.40822   0.29181   0.49150   0.00000  Uiso   1.00
H140   H     0.38741   0.25445   0.46421   0.00000  Uiso   1.00
N141   N     0.43896   0.12494   0.10276   0.00000  Uiso   1.00
H142   H     0.46037   0.11019   0.07461   0.00000  Uiso   1.00
H143   H     0.45759   0.12819   0.12688   0.00000  Uiso   1.00
N144   N     0.54074   0.18524   0.38449   0.00000  Uiso   1.00
H145   H     0.50717   0.17322   0.40243   0.00000  Uiso   1.00
H146   H     0.53912   0.21584   0.37290   0.00000  Uiso   1.00
N147   N     0.62612   0.04509   0.18888   0.00000  Uiso   1.00
H148   H     0.64443   0.03627   0.15638   0.00000  Uiso   1.00
H149   H     0.59004   0.03640   0.19510   0.00000  Uiso   1.00
N150   N     0.37424   0.28822   0.31076   0.00000  Uiso   1.00
H151   H     0.35616   0.29708   0.34331   0.00000  Uiso   1.00
H152   H     0.41037   0.29684   0.30428   0.00000  Uiso   1.00
N153   N     0.53493   0.10416   0.29794   0.00000  Uiso   1.00
O154   O     0.53285   0.10870   0.34001   0.00000  Uiso   1.00
O155   O     0.53809   0.06690   0.28278   0.00000  Uiso   1.00
N156   N     0.46582   0.22700   0.19898   0.00000  Uiso   1.00
O157   O     0.47028   0.22023   0.15684   0.00000  Uiso   1.00
O158   O     0.46138   0.26502   0.21207   0.00000  Uiso   1.00
N159   N     0.44010   0.10345   0.29850   0.00000  Uiso   1.00
H160   H     0.40665   0.11382   0.31728   0.00000  Uiso   1.00
H161   H     0.43722   0.08112   0.27589   0.00000  Uiso   1.00
N162   N     0.55941   0.23051   0.20259   0.00000  Uiso   1.00
H163   H     0.59332   0.22045   0.18482   0.00000  Uiso   1.00
H164   H     0.56136   0.25260   0.22578   0.00000  Uiso   1.00
O165   O     0.70625   0.10655   0.25000   0.00000  Uiso   1.00
O166   O     0.96042   0.22678   0.25000   0.00000  Uiso   1.00
O167   O     0.96039   0.10654   0.25001   0.00000  Uiso   1.00
O168   O     0.70628   0.22679   0.25000   0.00000  Uiso   1.00
C169   C     0.66691   0.08757   0.24960   0.00000  Uiso   1.00
C170   C     0.99978   0.24576   0.25032   0.00000  Uiso   1.00
O171   O     0.68519   0.16668   0.31492   0.00000  Uiso   1.00
O172   O     0.98148   0.16666   0.18509   0.00000  Uiso   1.00
O173   O     0.93933   0.16667   0.31492   0.00000  Uiso   1.00
O174   O     0.72733   0.16667   0.18508   0.00000  Uiso   1.00
C175   C     0.97240   0.16752   0.33621   0.00000  Uiso   1.00
C176   C     0.69416   0.16787   0.16400   0.00000  Uiso   1.00
Cu177  Cu    0.71355   0.16667   0.25000   0.00000  Uiso   1.00
Cu178  Cu    0.95311   0.16666   0.25000   0.00000  Uiso   1.00
C179   C     0.95687   0.16963   0.38601   0.00000  Uiso   1.00
C180   C     0.71035   0.17809   0.11553   0.00000  Uiso   1.00
C181   C     0.97520   0.15652   0.45702   0.00000  Uiso   1.00
C182   C     0.70605   0.22583   0.05485   0.00000  Uiso   1.00
C183   C     0.98981   0.15927   0.41028   0.00000  Uiso   1.00
C184   C     0.68540   0.20803   0.09730   0.00000  Uiso   1.00
C185   C     0.90918   0.18103   0.40941   0.00000  Uiso   1.00
C186   C     0.75594   0.16470   0.09031   0.00000  Uiso   1.00
C187   C     0.89532   0.18221   0.45738   0.00000  Uiso   1.00
C188   C     0.78045   0.18714   0.05004   0.00000  Uiso   1.00
C189   C     0.92762   0.16603   0.48100   0.00000  Uiso   1.00
C190   C     0.75376   0.21643   0.03108   0.00000  Uiso   1.00
C191   C     0.84903   0.19589   0.48279   0.00000  Uiso   1.00
C192   C     0.83032   0.18159   0.02795   0.00000  Uiso   1.00
C193   C     0.86310   0.16618   0.05072   0.00000  Uiso   1.00
C194   C     0.82268   0.22606   0.46581   0.00000  Uiso   1.00
C195   C     0.91127   0.15922   0.02817   0.00000  Uiso   1.00
C196   C     0.77587   0.23653   0.48925   0.00000  Uiso   1.00
H197   H     0.98360   0.21858   0.11629   0.00000  Uiso   1.00
H198   H     0.69323   0.15097   0.39305   0.00000  Uiso   1.00
H199   H     0.66808   0.14598   0.47401   0.00000  Uiso   1.00
H200   H     0.68493   0.24838   0.04190   0.00000  Uiso   1.00
H201   H     0.85262   0.16177   0.08682   0.00000  Uiso   1.00
H202   H     0.83913   0.24379   0.43530   0.00000  Uiso   1.00
C203   C     0.97930   0.02235   0.22016   0.00000  Uiso   1.00
C204   C     0.68751   0.31096   0.27963   0.00000  Uiso   1.00
C205   C     0.97899   0.31263   0.22126   0.00000  Uiso   1.00
C206   C     0.68774   0.02068   0.27859   0.00000  Uiso   1.00
H207   H     0.96380   0.29663   0.19826   0.00000  Uiso   1.00
H208   H     0.70290   0.03665   0.30163   0.00000  Uiso   1.00
C209   C     0.99960   0.29039   0.25078   0.00000  Uiso   1.00
C210   C     0.66712   0.04293   0.24908   0.00000  Uiso   1.00
C211   C     0.85148   0.13686   0.27377   0.00000  Uiso   1.00
C212   C     0.81530   0.19605   0.22566   0.00000  Uiso   1.00
C213   C     0.80235   0.13684   0.27393   0.00000  Uiso   1.00
C214   C     0.86416   0.19664   0.22634   0.00000  Uiso   1.00
N215   N     0.78403   0.16668   0.24999   0.00000  Uiso   1.00
N216   N     0.88264   0.16666   0.25001   0.00000  Uiso   1.00
N217   N     0.94211   0.14328   0.05395   0.00000  Uiso   1.00
H218   H     0.97138   0.16328   0.04899   0.00000  Uiso   1.00
H219   H     0.95480   0.11422   0.04214   0.00000  Uiso   1.00
N220   N     0.75163   0.26755   0.46933   0.00000  Uiso   1.00
H221   H     0.74156   0.29181   0.49150   0.00000  Uiso   1.00
H222   H     0.72074   0.25445   0.46421   0.00000  Uiso   1.00
N223   N     0.77229   0.12494   0.10276   0.00000  Uiso   1.00
H224   H     0.79370   0.11019   0.07461   0.00000  Uiso   1.00
H225   H     0.79092   0.12819   0.12688   0.00000  Uiso   1.00
N226   N     0.87408   0.18524   0.38449   0.00000  Uiso   1.00
H227   H     0.84050   0.17322   0.40243   0.00000  Uiso   1.00
H228   H     0.87245   0.21584   0.37290   0.00000  Uiso   1.00
N229   N     0.95945   0.04509   0.18888   0.00000  Uiso   1.00
H230   H     0.97776   0.03627   0.15638   0.00000  Uiso   1.00
H231   H     0.92338   0.03640   0.19510   0.00000  Uiso   1.00
N232   N     0.70757   0.28822   0.31076   0.00000  Uiso   1.00
H233   H     0.68950   0.29708   0.34331   0.00000  Uiso   1.00
H234   H     0.74370   0.29684   0.30428   0.00000  Uiso   1.00
N235   N     0.86827   0.10416   0.29794   0.00000  Uiso   1.00
O236   O     0.86619   0.10870   0.34001   0.00000  Uiso   1.00
O237   O     0.87143   0.06690   0.28278   0.00000  Uiso   1.00
N238   N     0.79916   0.22700   0.19898   0.00000  Uiso   1.00
O239   O     0.80361   0.22023   0.15684   0.00000  Uiso   1.00
O240   O     0.79472   0.26502   0.21207   0.00000  Uiso   1.00
N241   N     0.77343   0.10345   0.29850   0.00000  Uiso   1.00
H242   H     0.73998   0.11382   0.31728   0.00000  Uiso   1.00
H243   H     0.77055   0.08112   0.27589   0.00000  Uiso   1.00
N244   N     0.89274   0.23051   0.20259   0.00000  Uiso   1.00
H245   H     0.92666   0.22045   0.18482   0.00000  Uiso   1.00
H246   H     0.89470   0.25260   0.22578   0.00000  Uiso   1.00
O247   O     0.03958   0.43989   0.25000   0.00000  Uiso   1.00
O248   O     0.29375   0.56011   0.25000   0.00000  Uiso   1.00
O249   O     0.29372   0.43988   0.25001   0.00000  Uiso   1.00
O250   O     0.03961   0.56012   0.25000   0.00000  Uiso   1.00
C251   C     0.00024   0.42090   0.24960   0.00000  Uiso   1.00
C252   C     0.33312   0.57909   0.25032   0.00000  Uiso   1.00
O253   O     0.01852   0.50001   0.31492   0.00000  Uiso   1.00
O254   O     0.31481   0.49999   0.18509   0.00000  Uiso   1.00
O255   O     0.27267   0.50000   0.31492   0.00000  Uiso   1.00
O256   O     0.06067   0.50000   0.18508   0.00000  Uiso   1.00
C257   C     0.30573   0.50085   0.33621   0.00000  Uiso   1.00
C258   C     0.02750   0.50121   0.16400   0.00000  Uiso   1.00
Cu259  Cu    0.04689   0.50001   0.25000   0.00000  Uiso   1.00
Cu260  Cu    0.28645   0.49999   0.25000   0.00000  Uiso   1.00
C261   C     0.29020   0.50296   0.38601   0.00000  Uiso   1.00
C262   C     0.04369   0.51142   0.11553   0.00000  Uiso   1.00
C263   C     0.30854   0.48986   0.45702   0.00000  Uiso   1.00
C264   C     0.03938   0.55916   0.05485   0.00000  Uiso   1.00
C265   C     0.32314   0.49261   0.41028   0.00000  Uiso   1.00
C266   C     0.01873   0.54136   0.09730   0.00000  Uiso   1.00
C267   C     0.24252   0.51436   0.40941   0.00000  Uiso   1.00
C268   C     0.08928   0.49804   0.09031   0.00000  Uiso   1.00
C269   C     0.22866   0.51554   0.45738   0.00000  Uiso   1.00
C270   C     0.11378   0.52048   0.05004   0.00000  Uiso   1.00
C271   C     0.26095   0.49936   0.48100   0.00000  Uiso   1.00
C272   C     0.08709   0.54976   0.03108   0.00000  Uiso   1.00
C273   C     0.18236   0.52922   0.48279   0.00000  Uiso   1.00
C274   C     0.16366   0.51492   0.02795   0.00000  Uiso   1.00
C275   C     0.19644   0.49951   0.05072   0.00000  Uiso   1.00
C276   C     0.15601   0.55939   0.46581   0.00000  Uiso   1.00
C277   C     0.24461   0.49256   0.02817   0.00000  Uiso   1.00
C278   C     0.10920   0.56986   0.48925   0.00000  Uiso   1.00
H279   H     0.31693   0.55192   0.11629   0.00000  Uiso   1.00
H280   H     0.02656   0.48430   0.39305   0.00000  Uiso   1.00
H281   H     0.00141   0.47931   0.47401   0.00000  Uiso   1.00
H282   H     0.01827   0.58171   0.04190   0.00000  Uiso   1.00
H283   H     0.18596   0.49510   0.08682   0.00000  Uiso   1.00
H284   H     0.17246   0.57713   0.43530   0.00000  Uiso   1.00
C285   C     0.31263   0.35568   0.22016   0.00000  Uiso   1.00
C286   C     0.02084   0.64430   0.27963   0.00000  Uiso   1.00
C287   C     0.31233   0.64596   0.22126   0.00000  Uiso   1.00
C288   C     0.02107   0.35401   0.27859   0.00000  Uiso   1.00
H289   H     0.29713   0.62996   0.19826   0.00000  Uiso   1.00
H290   H     0.03623   0.36999   0.30163   0.00000  Uiso   1.00
C291   C     0.33293   0.62372   0.25078   0.00000  Uiso   1.00
C292   C     0.00046   0.37626   0.24908   0.00000  Uiso   1.00
C293   C     0.18482   0.47020   0.27377   0.00000  Uiso   1.00
C294   C     0.14864   0.52939   0.22566   0.00000  Uiso   1.00
C295   C     0.13568   0.47018   0.27393   0.00000  Uiso   1.00
C296   C     0.19750   0.52998   0.22634   0.00000  Uiso   1.00
N297   N     0.11736   0.50001   0.24999   0.00000  Uiso   1.00
N298   N     0.21597   0.49999   0.25001   0.00000  Uiso   1.00
N299   N     0.27544   0.47661   0.05395   0.00000  Uiso   1.00
H300   H     0.30471   0.49661   0.04899   0.00000  Uiso   1.00
H301   H     0.28814   0.44755   0.04214   0.00000  Uiso   1.00
N302   N     0.08497   0.60088   0.46933   0.00000  Uiso   1.00
H303   H     0.07489   0.62514   0.49150   0.00000  Uiso   1.00
H304   H     0.05407   0.58778   0.46421   0.00000  Uiso   1.00
N305   N     0.10563   0.45827   0.10276   0.00000  Uiso   1.00
H306   H     0.12703   0.44352   0.07461   0.00000  Uiso   1.00
H307   H     0.12426   0.46153   0.12688   0.00000  Uiso   1.00
N308   N     0.20741   0.51858   0.38449   0.00000  Uiso   1.00
H309   H     0.17383   0.50655   0.40243   0.00000  Uiso   1.00
H310   H     0.20579   0.54917   0.37290   0.00000  Uiso   1.00
N311   N     0.29278   0.37843   0.18888   0.00000  Uiso   1.00
H312   H     0.31110   0.36960   0.15638   0.00000  Uiso   1.00
H313   H     0.25671   0.36973   0.19510   0.00000  Uiso   1.00
N314   N     0.04091   0.62155   0.31076   0.00000  Uiso   1.00
H315   H     0.02283   0.63041   0.34331   0.00000  Uiso   1.00
H316   H     0.07703   0.63017   0.30428   0.00000  Uiso   1.00
N317   N     0.20160   0.43750   0.29794   0.00000  Uiso   1.00
O318   O     0.19952   0.44203   0.34001   0.00000  Uiso   1.00
O319   O     0.20476   0.40024   0.28278   0.00000  Uiso   1.00
N320   N     0.13249   0.56034   0.19898   0.00000  Uiso   1.00
O321   O     0.13695   0.55356   0.15684   0.00000  Uiso   1.00
O322   O     0.12805   0.59835   0.21207   0.00000  Uiso   1.00
N323   N     0.10676   0.43679   0.29850   0.00000  Uiso   1.00
H324   H     0.07332   0.44715   0.31728   0.00000  Uiso   1.00
H325   H     0.10388   0.41445   0.27589   0.00000  Uiso   1.00
N326   N     0.22608   0.56384   0.20259   0.00000  Uiso   1.00
H327   H     0.25999   0.55378   0.18482   0.00000  Uiso   1.00
H328   H     0.22803   0.58593   0.22578   0.00000  Uiso   1.00
O329   O     0.37291   0.43989   0.25000   0.00000  Uiso   1.00
O330   O     0.62709   0.56011   0.25000   0.00000  Uiso   1.00
O331   O     0.62706   0.43988   0.25001   0.00000  Uiso   1.00
O332   O     0.37294   0.56012   0.25000   0.00000  Uiso   1.00
C333   C     0.33357   0.42090   0.24960   0.00000  Uiso   1.00
C334   C     0.66645   0.57909   0.25032   0.00000  Uiso   1.00
O335   O     0.35186   0.50001   0.31492   0.00000  Uiso   1.00
O336   O     0.64814   0.49999   0.18509   0.00000  Uiso   1.00
O337   O     0.60600   0.50000   0.31492   0.00000  Uiso   1.00
O338   O     0.39400   0.50000   0.18508   0.00000  Uiso   1.00
C339   C     0.63906   0.50085   0.33621   0.00000  Uiso   1.00
C340   C     0.36083   0.50121   0.16400   0.00000  Uiso   1.00
Cu341  Cu    0.38022   0.50001   0.25000   0.00000  Uiso   1.00
Cu342  Cu    0.61978   0.49999   0.25000   0.00000  Uiso   1.00
C343   C     0.62353   0.50296   0.38601   0.00000  Uiso   1.00
C344   C     0.37702   0.51142   0.11553   0.00000  Uiso   1.00
C345   C     0.64187   0.48986   0.45702   0.00000  Uiso   1.00
C346   C     0.37271   0.55916   0.05485   0.00000  Uiso   1.00
C347   C     0.65647   0.49261   0.41028   0.00000  Uiso   1.00
C348   C     0.35207   0.54136   0.09730   0.00000  Uiso   1.00
C349   C     0.57585   0.51436   0.40941   0.00000  Uiso   1.00
C350   C     0.42261   0.49804   0.09031   0.00000  Uiso   1.00
C351   C     0.56199   0.51554   0.45738   0.00000  Uiso   1.00
C352   C     0.44712   0.52048   0.05004   0.00000  Uiso   1.00
C353   C     0.59429   0.49936   0.48100   0.00000  Uiso   1.00
C354   C     0.42043   0.54976   0.03108   0.00000  Uiso   1.00
C355   C     0.51570   0.52922   0.48279   0.00000  Uiso   1.00
C356   C     0.49699   0.51492   0.02795   0.00000  Uiso   1.00
C357   C     0.52977   0.49951   0.05072   0.00000  Uiso   1.00
C358   C     0.48934   0.55939   0.46581   0.00000  Uiso   1.00
C359   C     0.57794   0.49256   0.02817   0.00000  Uiso   1.00
C360   C     0.44254   0.56986   0.48925   0.00000  Uiso   1.00
H361   H     0.65027   0.55192   0.11629   0.00000  Uiso   1.00
H362   H     0.35989   0.48430   0.39305   0.00000  Uiso   1.00
H363   H     0.33474   0.47931   0.47401   0.00000  Uiso   1.00
H364   H     0.35160   0.58171   0.04190   0.00000  Uiso   1.00
H365   H     0.51929   0.49510   0.08682   0.00000  Uiso   1.00
H366   H     0.50579   0.57713   0.43530   0.00000  Uiso   1.00
C367   C     0.64596   0.35568   0.22016   0.00000  Uiso   1.00
C368   C     0.35417   0.64430   0.27963   0.00000  Uiso   1.00
C369   C     0.64566   0.64596   0.22126   0.00000  Uiso   1.00
C370   C     0.35441   0.35401   0.27859   0.00000  Uiso   1.00
H371   H     0.63046   0.62996   0.19826   0.00000  Uiso   1.00
H372   H     0.36956   0.36999   0.30163   0.00000  Uiso   1.00
C373   C     0.66627   0.62372   0.25078   0.00000  Uiso   1.00
C374   C     0.33379   0.37626   0.24908   0.00000  Uiso   1.00
C375   C     0.51815   0.47020   0.27377   0.00000  Uiso   1.00
C376   C     0.48197   0.52939   0.22566   0.00000  Uiso   1.00
C377   C     0.46902   0.47018   0.27393   0.00000  Uiso   1.00
C378   C     0.53083   0.52998   0.22634   0.00000  Uiso   1.00
N379   N     0.45069   0.50001   0.24999   0.00000  Uiso   1.00
N380   N     0.54931   0.49999   0.25001   0.00000  Uiso   1.00
N381   N     0.60878   0.47661   0.05395   0.00000  Uiso   1.00
H382   H     0.63805   0.49661   0.04899   0.00000  Uiso   1.00
H383   H     0.62147   0.44755   0.04214   0.00000  Uiso   1.00
N384   N     0.41830   0.60088   0.46933   0.00000  Uiso   1.00
H385   H     0.40822   0.62514   0.49150   0.00000  Uiso   1.00
H386   H     0.38741   0.58778   0.46421   0.00000  Uiso   1.00
N387   N     0.43896   0.45827   0.10276   0.00000  Uiso   1.00
H388   H     0.46037   0.44352   0.07461   0.00000  Uiso   1.00
H389   H     0.45759   0.46153   0.12688   0.00000  Uiso   1.00
N390   N     0.54074   0.51858   0.38449   0.00000  Uiso   1.00
H391   H     0.50717   0.50655   0.40243   0.00000  Uiso   1.00
H392   H     0.53912   0.54917   0.37290   0.00000  Uiso   1.00
N393   N     0.62612   0.37843   0.18888   0.00000  Uiso   1.00
H394   H     0.64443   0.36960   0.15638   0.00000  Uiso   1.00
H395   H     0.59004   0.36973   0.19510   0.00000  Uiso   1.00
N396   N     0.37424   0.62155   0.31076   0.00000  Uiso   1.00
H397   H     0.35616   0.63041   0.34331   0.00000  Uiso   1.00
H398   H     0.41037   0.63017   0.30428   0.00000  Uiso   1.00
N399   N     0.53493   0.43750   0.29794   0.00000  Uiso   1.00
O400   O     0.53285   0.44203   0.34001   0.00000  Uiso   1.00
O401   O     0.53809   0.40024   0.28278   0.00000  Uiso   1.00
N402   N     0.46582   0.56034   0.19898   0.00000  Uiso   1.00
O403   O     0.47028   0.55356   0.15684   0.00000  Uiso   1.00
O404   O     0.46138   0.59835   0.21207   0.00000  Uiso   1.00
N405   N     0.44010   0.43679   0.29850   0.00000  Uiso   1.00
H406   H     0.40665   0.44715   0.31728   0.00000  Uiso   1.00
H407   H     0.43722   0.41445   0.27589   0.00000  Uiso   1.00
N408   N     0.55941   0.56384   0.20259   0.00000  Uiso   1.00
H409   H     0.59332   0.55378   0.18482   0.00000  Uiso   1.00
H410   H     0.56136   0.58593   0.22578   0.00000  Uiso   1.00
O411   O     0.70625   0.43989   0.25000   0.00000  Uiso   1.00
O412   O     0.96042   0.56011   0.25000   0.00000  Uiso   1.00
O413   O     0.96039   0.43988   0.25001   0.00000  Uiso   1.00
O414   O     0.70628   0.56012   0.25000   0.00000  Uiso   1.00
C415   C     0.66691   0.42090   0.24960   0.00000  Uiso   1.00
C416   C     0.99978   0.57909   0.25032   0.00000  Uiso   1.00
O417   O     0.68519   0.50001   0.31492   0.00000  Uiso   1.00
O418   O     0.98148   0.49999   0.18509   0.00000  Uiso   1.00
O419   O     0.93933   0.50000   0.31492   0.00000  Uiso   1.00
O420   O     0.72733   0.50000   0.18508   0.00000  Uiso   1.00
C421   C     0.97240   0.50085   0.33621   0.00000  Uiso   1.00
C422   C     0.69416   0.50121   0.16400   0.00000  Uiso   1.00
Cu423  Cu    0.71355   0.50001   0.25000   0.00000  Uiso   1.00
Cu424  Cu    0.95311   0.49999   0.25000   0.00000  Uiso   1.00
C425   C     0.95687   0.50296   0.38601   0.00000  Uiso   1.00
C426   C     0.71035   0.51142   0.11553   0.00000  Uiso   1.00
C427   C     0.97520   0.48986   0.45702   0.00000  Uiso   1.00
C428   C     0.70605   0.55916   0.05485   0.00000  Uiso   1.00
C429   C     0.98981   0.49261   0.41028   0.00000  Uiso   1.00
C430   C     0.68540   0.54136   0.09730   0.00000  Uiso   1.00
C431   C     0.90918   0.51436   0.40941   0.00000  Uiso   1.00
C432   C     0.75594   0.49804   0.09031   0.00000  Uiso   1.00
C433   C     0.89532   0.51554   0.45738   0.00000  Uiso   1.00
C434   C     0.78045   0.52048   0.05004   0.00000  Uiso   1.00
C435   C     0.92762   0.49936   0.48100   0.00000  Uiso   1.00
C436   C     0.75376   0.54976   0.03108   0.00000  Uiso   1.00
C437   C     0.84903   0.52922   0.48279   0.00000  Uiso   1.00
C438   C     0.83032   0.51492   0.02795   0.00000  Uiso   1.00
C439   C     0.86310   0.49951   0.05072   0.00000  Uiso   1.00
C440   C     0.82268   0.55939   0.46581   0.00000  Uiso   1.00
C441   C     0.91127   0.49256   0.02817   0.00000  Uiso   1.00
C442   C     0.77587   0.56986   0.48925   0.00000  Uiso   1.00
H443   H     0.98360   0.55192   0.11629   0.00000  Uiso   1.00
H444   H     0.69323   0.48430   0.39305   0.00000  Uiso   1.00
H445   H     0.66808   0.47931   0.47401   0.00000  Uiso   1.00
H446   H     0.68493   0.58171   0.04190   0.00000  Uiso   1.00
H447   H     0.85262   0.49510   0.08682   0.00000  Uiso   1.00
H448   H     0.83913   0.57713   0.43530   0.00000  Uiso   1.00
C449   C     0.97930   0.35568   0.22016   0.00000  Uiso   1.00
C450   C     0.68751   0.64430   0.27963   0.00000  Uiso   1.00
C451   C     0.97899   0.64596   0.22126   0.00000  Uiso   1.00
C452   C     0.68774   0.35401   0.27859   0.00000  Uiso   1.00
H453   H     0.96380   0.62996   0.19826   0.00000  Uiso   1.00
H454   H     0.70290   0.36999   0.30163   0.00000  Uiso   1.00
C455   C     0.99960   0.62372   0.25078   0.00000  Uiso   1.00
C456   C     0.66712   0.37626   0.24908   0.00000  Uiso   1.00
C457   C     0.85148   0.47020   0.27377   0.00000  Uiso   1.00
C458   C     0.81530   0.52939   0.22566   0.00000  Uiso   1.00
C459   C     0.80235   0.47018   0.27393   0.00000  Uiso   1.00
C460   C     0.86416   0.52998   0.22634   0.00000  Uiso   1.00
N461   N     0.78403   0.50001   0.24999   0.00000  Uiso   1.00
N462   N     0.88264   0.49999   0.25001   0.00000  Uiso   1.00
N463   N     0.94211   0.47661   0.05395   0.00000  Uiso   1.00
H464   H     0.97138   0.49661   0.04899   0.00000  Uiso   1.00
H465   H     0.95480   0.44755   0.04214   0.00000  Uiso   1.00
N466   N     0.75163   0.60088   0.46933   0.00000  Uiso   1.00
H467   H     0.74156   0.62514   0.49150   0.00000  Uiso   1.00
H468   H     0.72074   0.58778   0.46421   0.00000  Uiso   1.00
N469   N     0.77229   0.45827   0.10276   0.00000  Uiso   1.00
H470   H     0.79370   0.44352   0.07461   0.00000  Uiso   1.00
H471   H     0.79092   0.46153   0.12688   0.00000  Uiso   1.00
N472   N     0.87408   0.51858   0.38449   0.00000  Uiso   1.00
H473   H     0.84050   0.50655   0.40243   0.00000  Uiso   1.00
H474   H     0.87245   0.54917   0.37290   0.00000  Uiso   1.00
N475   N     0.95945   0.37843   0.18888   0.00000  Uiso   1.00
H476   H     0.97776   0.36960   0.15638   0.00000  Uiso   1.00
H477   H     0.92338   0.36973   0.19510   0.00000  Uiso   1.00
N478   N     0.70757   0.62155   0.31076   0.00000  Uiso   1.00
H479   H     0.68950   0.63041   0.34331   0.00000  Uiso   1.00
H480   H     0.74370   0.63017   0.30428   0.00000  Uiso   1.00
N481   N     0.86827   0.43750   0.29794   0.00000  Uiso   1.00
O482   O     0.86619   0.44203   0.34001   0.00000  Uiso   1.00
O483   O     0.87143   0.40024   0.28278   0.00000  Uiso   1.00
N484   N     0.79916   0.56034   0.19898   0.00000  Uiso   1.00
O485   O     0.80361   0.55356   0.15684   0.00000  Uiso   1.00
O486   O     0.79472   0.59835   0.21207   0.00000  Uiso   1.00
N487   N     0.77343   0.43679   0.29850   0.00000  Uiso   1.00
H488   H     0.73998   0.44715   0.31728   0.00000  Uiso   1.00
H489   H     0.77055   0.41445   0.27589   0.00000  Uiso   1.00
N490   N     0.89274   0.56384   0.20259   0.00000  Uiso   1.00
H491   H     0.92666   0.55378   0.18482   0.00000  Uiso   1.00
H492   H     0.89470   0.58593   0.22578   0.00000  Uiso   1.00
O493   O     0.03958   0.77322   0.25000   0.00000  Uiso   1.00
O494   O     0.29375   0.89345   0.25000   0.00000  Uiso   1.00
O495   O     0.29372   0.77321   0.25001   0.00000  Uiso   1.00
O496   O     0.03961   0.89346   0.25000   0.00000  Uiso   1.00
C497   C     0.00024   0.75424   0.24960   0.00000  Uiso   1.00
C498   C     0.33312   0.91243   0.25032   0.00000  Uiso   1.00
O499   O     0.01852   0.83334   0.31492   0.00000  Uiso   1.00
O500   O     0.31481   0.83332   0.18509   0.00000  Uiso   1.00
O501   O     0.27267   0.83333   0.31492   0.00000  Uiso   1.00
O502   O     0.06067   0.83333   0.18508   0.00000  Uiso   1.00
C503   C     0.30573   0.83418   0.33621   0.00000  Uiso   1.00
C504   C     0.02750   0.83454   0.16400   0.00000  Uiso   1.00
Cu505  Cu    0.04689   0.83334   0.25000   0.00000  Uiso   1.00
Cu506  Cu    0.28645   0.83333   0.25000   0.00000  Uiso   1.00
C507   C     0.29020   0.83629   0.38601   0.00000  Uiso   1.00
C508   C     0.04369   0.84475   0.11553   0.00000  Uiso   1.00
C509   C     0.30854   0.82319   0.45702   0.00000  Uiso   1.00
C510   C     0.03938   0.89249   0.05485   0.00000  Uiso   1.00
C511   C     0.32314   0.82594   0.41028   0.00000  Uiso   1.00
C512   C     0.01873   0.87470   0.09730   0.00000  Uiso   1.00
C513   C     0.24252   0.84770   0.40941   0.00000  Uiso   1.00
C514   C     0.08928   0.83137   0.09031   0.00000  Uiso   1.00
C515   C     0.22866   0.84888   0.45738   0.00000  Uiso   1.00
C516   C     0.11378   0.85381   0.05004   0.00000  Uiso   1.00
C517   C     0.26095   0.83270   0.48100   0.00000  Uiso   1.00
C518   C     0.08709   0.88309   0.03108   0.00000  Uiso   1.00
C519   C     0.18236   0.86255   0.48279   0.00000  Uiso   1.00
C520   C     0.16366   0.84826   0.02795   0.00000  Uiso   1.00
C521   C     0.19644   0.83284   0.05072   0.00000  Uiso   1.00
C522   C     0.15601   0.89272   0.46581   0.00000  Uiso   1.00
C523   C     0.24461   0.82589   0.02817   0.00000  Uiso   1.00
C524   C     0.10920   0.90319   0.48925   0.00000  Uiso   1.00
H525   H     0.31693   0.88525   0.11629   0.00000  Uiso   1.00
H526   H     0.02656   0.81763   0.39305   0.00000  Uiso   1.00
H527   H     0.00141   0.81264   0.47401   0.00000  Uiso   1.00
H528   H     0.01827   0.91504   0.04190   0.00000  Uiso   1.00
H529   H     0.18596   0.82844   0.08682   0.00000  Uiso   1.00
H530   H     0.17246   0.91046   0.43530   0.00000  Uiso   1.00
C531   C     0.31263   0.68902   0.22016   0.00000  Uiso   1.00
C532   C     0.02084   0.97763   0.27963   0.00000  Uiso   1.00
C533   C     0.31233   0.97929   0.22126   0.00000  Uiso   1.00
C534   C     0.02107   0.68735   0.27859   0.00000  Uiso   1.00
H535   H     0.29713   0.96330   0.19826   0.00000  Uiso   1.00
H536   H     0.03623   0.70332   0.30163   0.00000  Uiso   1.00
C537   C     0.33293   0.95706   0.25078   0.00000  Uiso   1.00
C538   C     0.00046   0.70960   0.24908   0.00000  Uiso   1.00
C539   C     0.18482   0.80353   0.27377   0.00000  Uiso   1.00
C540   C     0.14864   0.86272   0.22566   0.00000  Uiso   1.00
C541   C     0.13568   0.80351   0.27393   0.00000  Uiso   1.00
C542   C     0.19750   0.86331   0.22634   0.00000  Uiso   1.00
N543   N     0.11736   0.83334   0.24999   0.00000  Uiso   1.00
N544   N     0.21597   0.83332   0.25001   0.00000  Uiso   1.00
N545   N     0.27544   0.80994   0.05395   0.00000  Uiso   1.00
H546   H     0.30471   0.82994   0.04899   0.00000  Uiso   1.00
H547   H     0.28814   0.78088   0.04214   0.00000  Uiso   1.00
N548   N     0.08497   0.93422   0.46933   0.00000  Uiso   1.00
H549   H     0.07489   0.95848   0.49150   0.00000  Uiso   1.00
H550   H     0.05407   0.92111   0.46421   0.00000  Uiso   1.00
N551   N     0.10563   0.79161   0.10276   0.00000  Uiso   1.00
H552   H     0.12703   0.77686   0.07461   0.00000  Uiso   1.00
H553   H     0.12426   0.79486   0.12688   0.00000  Uiso   1.00
N554   N     0.20741   0.85191   0.38449   0.00000  Uiso   1.00
H555   H     0.17383   0.83989   0.40243   0.00000  Uiso   1.00
H556   H     0.20579   0.88251   0.37290   0.00000  Uiso   1.00
N557   N     0.29278   0.71176   0.18888   0.00000  Uiso   1.00
H558   H     0.31110   0.70293   0.15638   0.00000  Uiso   1.00
H559   H     0.25671   0.70307   0.19510   0.00000  Uiso   1.00
N560   N     0.04091   0.95488   0.31076   0.00000  Uiso   1.00
H561   H     0.02283   0.96374   0.34331   0.00000  Uiso   1.00
H562   H     0.07703   0.96351   0.30428   0.00000  Uiso   1.00
N563   N     0.20160   0.77083   0.29794   0.00000  Uiso   1.00
O564   O     0.19952   0.77536   0.34001   0.00000  Uiso   1.00
O565   O     0.20476   0.73357   0.28278   0.00000  Uiso   1.00
N566   N     0.13249   0.89367   0.19898   0.00000  Uiso   1.00
O567   O     0.13695   0.88690   0.15684   0.00000  Uiso   1.00
O568   O     0.12805   0.93168   0.21207   0.00000  Uiso   1.00
N569   N     0.10676   0.77012   0.29850   0.00000  Uiso   1.00
H570   H     0.07332   0.78049   0.31728   0.00000  Uiso   1.00
H571   H     0.10388   0.74779   0.27589   0.00000  Uiso   1.00
N572   N     0.22608   0.89718   0.20259   0.00000  Uiso   1.00
H573   H     0.25999   0.88712   0.18482   0.00000  Uiso   1.00
H574   H     0.22803   0.91927   0.22578   0.00000  Uiso   1.00
O575   O     0.37291   0.77322   0.25000   0.00000  Uiso   1.00
O576   O     0.62709   0.89345   0.25000   0.00000  Uiso   1.00
O577   O     0.62706   0.77321   0.25001   0.00000  Uiso   1.00
O578   O     0.37294   0.89346   0.25000   0.00000  Uiso   1.00
C579   C     0.33357   0.75424   0.24960   0.00000  Uiso   1.00
C580   C     0.66645   0.91243   0.25032   0.00000  Uiso   1.00
O581   O     0.35186   0.83334   0.31492   0.00000  Uiso   1.00
O582   O     0.64814   0.83332   0.18509   0.00000  Uiso   1.00
O583   O     0.60600   0.83333   0.31492   0.00000  Uiso   1.00
O584   O     0.39400   0.83333   0.18508   0.00000  Uiso   1.00
C585   C     0.63906   0.83418   0.33621   0.00000  Uiso   1.00
C586   C     0.36083   0.83454   0.16400   0.00000  Uiso   1.00
Cu587  Cu    0.38022   0.83334   0.25000   0.00000  Uiso   1.00
Cu588  Cu    0.61978   0.83333   0.25000   0.00000  Uiso   1.00
C589   C     0.62353   0.83629   0.38601   0.00000  Uiso   1.00
C590   C     0.37702   0.84475   0.11553   0.00000  Uiso   1.00
C591   C     0.64187   0.82319   0.45702   0.00000  Uiso   1.00
C592   C     0.37271   0.89249   0.05485   0.00000  Uiso   1.00
C593   C     0.65647   0.82594   0.41028   0.00000  Uiso   1.00
C594   C     0.35207   0.87470   0.09730   0.00000  Uiso   1.00
C595   C     0.57585   0.84770   0.40941   0.00000  Uiso   1.00
C596   C     0.42261   0.83137   0.09031   0.00000  Uiso   1.00
C597   C     0.56199   0.84888   0.45738   0.00000  Uiso   1.00
C598   C     0.44712   0.85381   0.05004   0.00000  Uiso   1.00
C599   C     0.59429   0.83270   0.48100   0.00000  Uiso   1.00
C600   C     0.42043   0.88309   0.03108   0.00000  Uiso   1.00
C601   C     0.51570   0.86255   0.48279   0.00000  Uiso   1.00
C602   C     0.49699   0.84826   0.02795   0.00000  Uiso   1.00
C603   C     0.52977   0.83284   0.05072   0.00000  Uiso   1.00
C604   C     0.48934   0.89272   0.46581   0.00000  Uiso   1.00
C605   C     0.57794   0.82589   0.02817   0.00000  Uiso   1.00
C606   C     0.44254   0.90319   0.48925   0.00000  Uiso   1.00
H607   H     0.65027   0.88525   0.11629   0.00000  Uiso   1.00
H608   H     0.35989   0.81763   0.39305   0.00000  Uiso   1.00
H609   H     0.33474   0.81264   0.47401   0.00000  Uiso   1.00
H610   H     0.35160   0.91504   0.04190   0.00000  Uiso   1.00
H611   H     0.51929   0.82844   0.08682   0.00000  Uiso   1.00
H612   H     0.50579   0.91046   0.43530   0.00000  Uiso   1.00
C613   C     0.64596   0.68902   0.22016   0.00000  Uiso   1.00
C614   C     0.35417   0.97763   0.27963   0.00000  Uiso   1.00
C615   C     0.64566   0.97929   0.22126   0.00000  Uiso   1.00
C616   C     0.35441   0.68735   0.27859   0.00000  Uiso   1.00
H617   H     0.63046   0.96330   0.19826   0.00000  Uiso   1.00
H618   H     0.36956   0.70332   0.30163   0.00000  Uiso   1.00
C619   C     0.66627   0.95706   0.25078   0.00000  Uiso   1.00
C620   C     0.33379   0.70960   0.24908   0.00000  Uiso   1.00
C621   C     0.51815   0.80353   0.27377   0.00000  Uiso   1.00
C622   C     0.48197   0.86272   0.22566   0.00000  Uiso   1.00
C623   C     0.46902   0.80351   0.27393   0.00000  Uiso   1.00
C624   C     0.53083   0.86331   0.22634   0.00000  Uiso   1.00
N625   N     0.45069   0.83334   0.24999   0.00000  Uiso   1.00
N626   N     0.54931   0.83332   0.25001   0.00000  Uiso   1.00
N627   N     0.60878   0.80994   0.05395   0.00000  Uiso   1.00
H628   H     0.63805   0.82994   0.04899   0.00000  Uiso   1.00
H629   H     0.62147   0.78088   0.04214   0.00000  Uiso   1.00
N630   N     0.41830   0.93422   0.46933   0.00000  Uiso   1.00
H631   H     0.40822   0.95848   0.49150   0.00000  Uiso   1.00
H632   H     0.38741   0.92111   0.46421   0.00000  Uiso   1.00
N633   N     0.43896   0.79161   0.10276   0.00000  Uiso   1.00
H634   H     0.46037   0.77686   0.07461   0.00000  Uiso   1.00
H635   H     0.45759   0.79486   0.12688   0.00000  Uiso   1.00
N636   N     0.54074   0.85191   0.38449   0.00000  Uiso   1.00
H637   H     0.50717   0.83989   0.40243   0.00000  Uiso   1.00
H638   H     0.53912   0.88251   0.37290   0.00000  Uiso   1.00
N639   N     0.62612   0.71176   0.18888   0.00000  Uiso   1.00
H640   H     0.64443   0.70293   0.15638   0.00000  Uiso   1.00
H641   H     0.59004   0.70307   0.19510   0.00000  Uiso   1.00
N642   N     0.37424   0.95488   0.31076   0.00000  Uiso   1.00
H643   H     0.35616   0.96374   0.34331   0.00000  Uiso   1.00
H644   H     0.41037   0.96351   0.30428   0.00000  Uiso   1.00
N645   N     0.53493   0.77083   0.29794   0.00000  Uiso   1.00
O646   O     0.53285   0.77536   0.34001   0.00000  Uiso   1.00
O647   O     0.53809   0.73357   0.28278   0.00000  Uiso   1.00
N648   N     0.46582   0.89367   0.19898   0.00000  Uiso   1.00
O649   O     0.47028   0.88690   0.15684   0.00000  Uiso   1.00
O650   O     0.46138   0.93168   0.21207   0.00000  Uiso   1.00
N651   N     0.44010   0.77012   0.29850   0.00000  Uiso   1.00
H652   H     0.40665   0.78049   0.31728   0.00000  Uiso   1.00
H653   H     0.43722   0.74779   0.27589   0.00000  Uiso   1.00
N654   N     0.55941   0.89718   0.20259   0.00000  Uiso   1.00
H655   H     0.59332   0.88712   0.18482   0.00000  Uiso   1.00
H656   H     0.56136   0.91927   0.22578   0.00000  Uiso   1.00
O657   O     0.70625   0.77322   0.25000   0.00000  Uiso   1.00
O658   O     0.96042   0.89345   0.25000   0.00000  Uiso   1.00
O659   O     0.96039   0.77321   0.25001   0.00000  Uiso   1.00
O660   O     0.70628   0.89346   0.25000   0.00000  Uiso   1.00
C661   C     0.66691   0.75424   0.24960   0.00000  Uiso   1.00
C662   C     0.99978   0.91243   0.25032   0.00000  Uiso   1.00
O663   O     0.68519   0.83334   0.31492   0.00000  Uiso   1.00
O664   O     0.98148   0.83332   0.18509   0.00000  Uiso   1.00
O665   O     0.93933   0.83333   0.31492   0.00000  Uiso   1.00
O666   O     0.72733   0.83333   0.18508   0.00000  Uiso   1.00
C667   C     0.97240   0.83418   0.33621   0.00000  Uiso   1.00
C668   C     0.69416   0.83454   0.16400   0.00000  Uiso   1.00
Cu669  Cu    0.71355   0.83334   0.25000   0.00000  Uiso   1.00
Cu670  Cu    0.95311   0.83333   0.25000   0.00000  Uiso   1.00
C671   C     0.95687   0.83629   0.38601   0.00000  Uiso   1.00
C672   C     0.71035   0.84475   0.11553   0.00000  Uiso   1.00
C673   C     0.97520   0.82319   0.45702   0.00000  Uiso   1.00
C674   C     0.70605   0.89249   0.05485   0.00000  Uiso   1.00
C675   C     0.98981   0.82594   0.41028   0.00000  Uiso   1.00
C676   C     0.68540   0.87470   0.09730   0.00000  Uiso   1.00
C677   C     0.90918   0.84770   0.40941   0.00000  Uiso   1.00
C678   C     0.75594   0.83137   0.09031   0.00000  Uiso   1.00
C679   C     0.89532   0.84888   0.45738   0.00000  Uiso   1.00
C680   C     0.78045   0.85381   0.05004   0.00000  Uiso   1.00
C681   C     0.92762   0.83270   0.48100   0.00000  Uiso   1.00
C682   C     0.75376   0.88309   0.03108   0.00000  Uiso   1.00
C683   C     0.84903   0.86255   0.48279   0.00000  Uiso   1.00
C684   C     0.83032   0.84826   0.02795   0.00000  Uiso   1.00
C685   C     0.86310   0.83284   0.05072   0.00000  Uiso   1.00
C686   C     0.82268   0.89272   0.46581   0.00000  Uiso   1.00
C687   C     0.91127   0.82589   0.02817   0.00000  Uiso   1.00
C688   C     0.77587   0.90319   0.48925   0.00000  Uiso   1.00
H689   H     0.98360   0.88525   0.11629   0.00000  Uiso   1.00
H690   H     0.69323   0.81763   0.39305   0.00000  Uiso   1.00
H691   H     0.66808   0.81264   0.47401   0.00000  Uiso   1.00
H692   H     0.68493   0.91504   0.04190   0.00000  Uiso   1.00
H693   H     0.85262   0.82844   0.08682   0.00000  Uiso   1.00
H694   H     0.83913   0.91046   0.43530   0.00000  Uiso   1.00
C695   C     0.97930   0.68902   0.22016   0.00000  Uiso   1.00
C696   C     0.68751   0.97763   0.27963   0.00000  Uiso   1.00
C697   C     0.97899   0.97929   0.22126   0.00000  Uiso   1.00
C698   C     0.68774   0.68735   0.27859   0.00000  Uiso   1.00
H699   H     0.96380   0.96330   0.19826   0.00000  Uiso   1.00
H700   H     0.70290   0.70332   0.30163   0.00000  Uiso   1.00
C701   C     0.99960   0.95706   0.25078   0.00000  Uiso   1.00
C702   C     0.66712   0.70960   0.24908   0.00000  Uiso   1.00
C703   C     0.85148   0.80353   0.27377   0.00000  Uiso   1.00
C704   C     0.81530   0.86272   0.22566   0.00000  Uiso   1.00
C705   C     0.80235   0.80351   0.27393   0.00000  Uiso   1.00
C706   C     0.86416   0.86331   0.22634   0.00000  Uiso   1.00
N707   N     0.78403   0.83334   0.24999   0.00000  Uiso   1.00
N708   N     0.88264   0.83332   0.25001   0.00000  Uiso   1.00
N709   N     0.94211   0.80994   0.05395   0.00000  Uiso   1.00
H710   H     0.97138   0.82994   0.04899   0.00000  Uiso   1.00
H711   H     0.95480   0.78088   0.04214   0.00000  Uiso   1.00
N712   N     0.75163   0.93422   0.46933   0.00000  Uiso   1.00
H713   H     0.74156   0.95848   0.49150   0.00000  Uiso   1.00
H714   H     0.72074   0.92111   0.46421   0.00000  Uiso   1.00
N715   N     0.77229   0.79161   0.10276   0.00000  Uiso   1.00
H716   H     0.79370   0.77686   0.07461   0.00000  Uiso   1.00
H717   H     0.79092   0.79486   0.12688   0.00000  Uiso   1.00
N718   N     0.87408   0.85191   0.38449   0.00000  Uiso   1.00
H719   H     0.84050   0.83989   0.40243   0.00000  Uiso   1.00
H720   H     0.87245   0.88251   0.37290   0.00000  Uiso   1.00
N721   N     0.95945   0.71176   0.18888   0.00000  Uiso   1.00
H722   H     0.97776   0.70293   0.15638   0.00000  Uiso   1.00
H723   H     0.92338   0.70307   0.19510   0.00000  Uiso   1.00
N724   N     0.70757   0.95488   0.31076   0.00000  Uiso   1.00
H725   H     0.68950   0.96374   0.34331   0.00000  Uiso   1.00
H726   H     0.74370   0.96351   0.30428   0.00000  Uiso   1.00
N727   N     0.86827   0.77083   0.29794   0.00000  Uiso   1.00
O728   O     0.86619   0.77536   0.34001   0.00000  Uiso   1.00
O729   O     0.87143   0.73357   0.28278   0.00000  Uiso   1.00
N730   N     0.79916   0.89367   0.19898   0.00000  Uiso   1.00
O731   O     0.80361   0.88690   0.15684   0.00000  Uiso   1.00
O732   O     0.79472   0.93168   0.21207   0.00000  Uiso   1.00
N733   N     0.77343   0.77012   0.29850   0.00000  Uiso   1.00
H734   H     0.73998   0.78049   0.31728   0.00000  Uiso   1.00
H735   H     0.77055   0.74779   0.27589   0.00000  Uiso   1.00
N736   N     0.89274   0.89718   0.20259   0.00000  Uiso   1.00
H737   H     0.92666   0.88712   0.18482   0.00000  Uiso   1.00
H738   H     0.89470   0.91927   0.22578   0.00000  Uiso   1.00
O739   O     0.03958   0.10655   0.75000   0.00000  Uiso   1.00
O740   O     0.29375   0.22678   0.75000   0.00000  Uiso   1.00
O741   O     0.29372   0.10654   0.75001   0.00000  Uiso   1.00
O742   O     0.03961   0.22679   0.75000   0.00000  Uiso   1.00
C743   C     0.00024   0.08757   0.74960   0.00000  Uiso   1.00
C744   C     0.33312   0.24576   0.75032   0.00000  Uiso   1.00
O745   O     0.01852   0.16668   0.81492   0.00000  Uiso   1.00
O746   O     0.31481   0.16666   0.68509   0.00000  Uiso   1.00
O747   O     0.27267   0.16667   0.81492   0.00000  Uiso   1.00
O748   O     0.06067   0.16667   0.68508   0.00000  Uiso   1.00
C749   C     0.30573   0.16752   0.83621   0.00000  Uiso   1.00
C750   C     0.02750   0.16787   0.66400   0.00000  Uiso   1.00
Cu751  Cu    0.04689   0.16667   0.75000   0.00000  Uiso   1.00
Cu752  Cu    0.28645   0.16666   0.75000   0.00000  Uiso   1.00
C753   C     0.29020   0.16963   0.88601   0.00000  Uiso   1.00
C754   C     0.04369   0.17809   0.61553   0.00000  Uiso   1.00
C755   C     0.30854   0.15652   0.95702   0.00000  Uiso   1.00
C756   C     0.03938   0.22583   0.55485   0.00000  Uiso   1.00
C757   C     0.32314   0.15927   0.91028   0.00000  Uiso   1.00
C758   C     0.01873   0.20803   0.59730   0.00000  Uiso   1.00
C759   C     0.24252   0.18103   0.90941   0.00000  Uiso   1.00
C760   C     0.08928   0.16470   0.59031   0.00000  Uiso   1.00
C761   C     0.22866   0.18221   0.95738   0.00000  Uiso   1.00
C762   C     0.11378   0.18714   0.55004   0.00000  Uiso   1.00
C763   C     0.26095   0.16603   0.98100   0.00000  Uiso   1.00
C764   C     0.08709   0.21643   0.53108   0.00000  Uiso   1.00
C765   C     0.18236   0.19589   0.98279   0.00000  Uiso   1.00
C766   C     0.16366   0.18159   0.52795   0.00000  Uiso   1.00
C767   C     0.19644   0.16618   0.55072   0.00000  Uiso   1.00
C768   C     0.15601   0.22606   0.96581   0.00000  Uiso   1.00
C769   C     0.24461   0.15922   0.52817   0.00000  Uiso   1.00
C770   C     0.10920   0.23653   0.98925   0.00000  Uiso   1.00
H771   H     0.31693   0.21858   0.61629   0.00000  Uiso   1.00
H772   H     0.02656   0.15097   0.89305   0.00000  Uiso   1.00
H773   H     0.00141   0.14598   0.97401   0.00000  Uiso   1.00
H774   H     0.01827   0.24838   0.54190   0.00000  Uiso   1.00
H775   H     0.18596   0.16177   0.58682   0.00000  Uiso   1.00
H776   H     0.17246   0.24379   0.93530   0.00000  Uiso   1.00
C777   C     0.31263   0.02235   0.72016   0.00000  Uiso   1.00
C778   C     0.02084   0.31096   0.77963   0.00000  Uiso   1.00
C779   C     0.31233   0.31263   0.72126   0.00000  Uiso   1.00
C780   C     0.02107   0.02068   0.77859   0.00000  Uiso   1.00
H781   H     0.29713   0.29663   0.69826   0.00000  Uiso   1.00
H782   H     0.03623   0.03665   0.80163   0.00000  Uiso   1.00
C783   C     0.33293   0.29039   0.75078   0.00000  Uiso   1.00
C784   C     0.00046   0.04293   0.74908   0.00000  Uiso   1.00
C785   C     0.18482   0.13686   0.77377   0.00000  Uiso   1.00
C786   C     0.14864   0.19605   0.72566   0.00000  Uiso   1.00
C787   C     0.13568   0.13684   0.77393   0.00000  Uiso   1.00
C788   C     0.19750   0.19664   0.72634   0.00000  Uiso   1.00
N789   N     0.11736   0.16668   0.74999   0.00000  Uiso   1.00
N790   N     0.21597   0.16666   0.75001   0.00000  Uiso   1.00
N791   N     0.27544   0.14328   0.55395   0.00000  Uiso   1.00
H792   H     0.30471   0.16328   0.54899   0.00000  Uiso   1.00
H793   H     0.28814   0.11422   0.54214   0.00000  Uiso   1.00
N794   N     0.08497   0.26755   0.96933   0.00000  Uiso   1.00
H795   H     0.07489   0.29181   0.99150   0.00000  Uiso   1.00
H796   H     0.05407   0.25445   0.96421   0.00000  Uiso   1.00
N797   N     0.10563   0.12494   0.60276   0.00000  Uiso   1.00
H798   H     0.12703   0.11019   0.57461   0.00000  Uiso   1.00
H799   H     0.12426   0.12819   0.62688   0.00000  Uiso   1.00
N800   N     0.20741   0.18524   0.88449   0.00000  Uiso   1.00
H801   H     0.17383   0.17322   0.90243   0.00000  Uiso   1.00
H802   H     0.20579   0.21584   0.87290   0.00000  Uiso   1.00
N803   N     0.29278   0.04509   0.68888   0.00000  Uiso   1.00
H804   H     0.31110   0.03627   0.65638   0.00000  Uiso   1.00
H805   H     0.25671   0.03640   0.69510   0.00000  Uiso   1.00
N806   N     0.04091   0.28822   0.81076   0.00000  Uiso   1.00
H807   H     0.02283   0.29708   0.84331   0.00000  Uiso   1.00
H808   H     0.07703   0.29684   0.80428   0.00000  Uiso   1.00
N809   N     0.20160   0.10416   0.79794   0.00000  Uiso   1.00
O810   O     0.19952   0.10870   0.84001   0.00000  Uiso   1.00
O811   O     0.20476   0.06690   0.78278   0.00000  Uiso   1.00
N812   N     0.13249   0.22700   0.69898   0.00000  Uiso   1.00
O813   O     0.13695   0.22023   0.65684   0.00000  Uiso   1.00
O814   O     0.12805   0.26502   0.71207   0.00000  Uiso   1.00
N815   N     0.10676   0.10345   0.79850   0.00000  Uiso   1.00
H816   H     0.07332   0.11382   0.81728   0.00000  Uiso   1.00
H817   H     0.10388   0.08112   0.77589   0.00000  Uiso   1.00
N818   N     0.22608   0.23051   0.70259   0.00000  Uiso   1.00
H819   H     0.25999   0.22045   0.68482   0.00000  Uiso   1.00
H820   H     0.22803   0.25260   0.72578   0.00000  Uiso   1.00
O821   O     0.37291   0.10655   0.75000   0.00000  Uiso   1.00
O822   O     0.62709   0.22678   0.75000   0.00000  Uiso   1.00
O823   O     0.62706   0.10654   0.75001   0.00000  Uiso   1.00
O824   O     0.37294   0.22679   0.75000   0.00000  Uiso   1.00
C825   C     0.33357   0.08757   0.74960   0.00000  Uiso   1.00
C826   C     0.66645   0.24576   0.75032   0.00000  Uiso   1.00
O827   O     0.35186   0.16668   0.81492   0.00000  Uiso   1.00
O828   O     0.64814   0.16666   0.68509   0.00000  Uiso   1.00
O829   O     0.60600   0.16667   0.81492   0.00000  Uiso   1.00
O830   O     0.39400   0.16667   0.68508   0.00000  Uiso   1.00
C831   C     0.63906   0.16752   0.83621   0.00000  Uiso   1.00
C832   C     0.36083   0.16787   0.66400   0.00000  Uiso   1.00
Cu833  Cu    0.38022   0.16667   0.75000   0.00000  Uiso   1.00
Cu834  Cu    0.61978   0.16666   0.75000   0.00000  Uiso   1.00
C835   C     0.62353   0.16963   0.88601   0.00000  Uiso   1.00
C836   C     0.37702   0.17809   0.61553   0.00000  Uiso   1.00
C837   C     0.64187   0.15652   0.95702   0.00000  Uiso   1.00
C838   C     0.37271   0.22583   0.55485   0.00000  Uiso   1.00
C839   C     0.65647   0.15927   0.91028   0.00000  Uiso   1.00
C840   C     0.35207   0.20803   0.59730   0.00000  Uiso   1.00
C841   C     0.57585   0.18103   0.90941   0.00000  Uiso   1.00
C842   C     0.42261   0.16470   0.59031   0.00000  Uiso   1.00
C843   C     0.56199   0.18221   0.95738   0.00000  Uiso   1.00
C844   C     0.44712   0.18714   0.55004   0.00000  Uiso   1.00
C845   C     0.59429   0.16603   0.98100   0.00000  Uiso   1.00
C846   C     0.42043   0.21643   0.53108   0.00000  Uiso   1.00
C847   C     0.51570   0.19589   0.98279   0.00000  Uiso   1.00
C848   C     0.49699   0.18159   0.52795   0.00000  Uiso   1.00
C849   C     0.52977   0.16618   0.55072   0.00000  Uiso   1.00
C850   C     0.48934   0.22606   0.96581   0.00000  Uiso   1.00
C851   C     0.57794   0.15922   0.52817   0.00000  Uiso   1.00
C852   C     0.44254   0.23653   0.98925   0.00000  Uiso   1.00
H853   H     0.65027   0.21858   0.61629   0.00000  Uiso   1.00
H854   H     0.35989   0.15097   0.89305   0.00000  Uiso   1.00
H855   H     0.33474   0.14598   0.97401   0.00000  Uiso   1.00
H856   H     0.35160   0.24838   0.54190   0.00000  Uiso   1.00
H857   H     0.51929   0.16177   0.58682   0.00000  Uiso   1.00
H858   H     0.50579   0.24379   0.93530   0.00000  Uiso   1.00
C859   C     0.64596   0.02235   0.72016   0.00000  Uiso   1.00
C860   C     0.35417   0.31096   0.77963   0.00000  Uiso   1.00
C861   C     0.64566   0.31263   0.72126   0.00000  Uiso   1.00
C862   C     0.35441   0.02068   0.77859   0.00000  Uiso   1.00
H863   H     0.63046   0.29663   0.69826   0.00000  Uiso   1.00
H864   H     0.36956   0.03665   0.80163   0.00000  Uiso   1.00
C865   C     0.66627   0.29039   0.75078   0.00000  Uiso   1.00
C866   C     0.33379   0.04293   0.74908   0.00000  Uiso   1.00
C867   C     0.51815   0.13686   0.77377   0.00000  Uiso   1.00
C868   C     0.48197   0.19605   0.72566   0.00000  Uiso   1.00
C869   C     0.46902   0.13684   0.77393   0.00000  Uiso   1.00
C870   C     0.53083   0.19664   0.72634   0.00000  Uiso   1.00
N871   N     0.45069   0.16668   0.74999   0.00000  Uiso   1.00
N872   N     0.54931   0.16666   0.75001   0.00000  Uiso   1.00
N873   N     0.60878   0.14328   0.55395   0.00000  Uiso   1.00
H874   H     0.63805   0.16328   0.54899   0.00000  Uiso   1.00
H875   H     0.62147   0.11422   0.54214   0.00000  Uiso   1.00
N876   N     0.41830   0.26755   0.96933   0.00000  Uiso   1.00
H877   H     0.40822   0.29181   0.99150   0.00000  Uiso   1.00
H878   H     0.38741   0.25445   0.96421   0.00000  Uiso   1.00
N879   N     0.43896   0.12494   0.60276   0.00000  Uiso   1.00
H880   H     0.46037   0.11019   0.57461   0.00000  Uiso   1.00
H881   H     0.45759   0.12819   0.62688   0.00000  Uiso   1.00
N882   N     0.54074   0.18524   0.88449   0.00000  Uiso   1.00
H883   H     0.50717   0.17322   0.90243   0.00000  Uiso   1.00
H884   H     0.53912   0.21584   0.87290   0.00000  Uiso   1.00
N885   N     0.62612   0.04509   0.68888   0.00000  Uiso   1.00
H886   H     0.64443   0.03627   0.65638   0.00000  Uiso   1.00
H887   H     0.59004   0.03640   0.69510   0.00000  Uiso   1.00
N888   N     0.37424   0.28822   0.81076   0.00000  Uiso   1.00
H889   H     0.35616   0.29708   0.84331   0.00000  Uiso   1.00
H890   H     0.41037   0.29684   0.80428   0.00000  Uiso   1.00
N891   N     0.53493   0.10416   0.79794   0.00000  Uiso   1.00
O892   O     0.53285   0.10870   0.84001   0.00000  Uiso   1.00
O893   O     0.53809   0.06690   0.78278   0.00000  Uiso   1.00
N894   N     0.46582   0.22700   0.69898   0.00000  Uiso   1.00
O895   O     0.47028   0.22023   0.65684   0.00000  Uiso   1.00
O896   O     0.46138   0.26502   0.71207   0.00000  Uiso   1.00
N897   N     0.44010   0.10345   0.79850   0.00000  Uiso   1.00
H898   H     0.40665   0.11382   0.81728   0.00000  Uiso   1.00
H899   H     0.43722   0.08112   0.77589   0.00000  Uiso   1.00
N900   N     0.55941   0.23051   0.70259   0.00000  Uiso   1.00
H901   H     0.59332   0.22045   0.68482   0.00000  Uiso   1.00
H902   H     0.56136   0.25260   0.72578   0.00000  Uiso   1.00
O903   O     0.70625   0.10655   0.75000   0.00000  Uiso   1.00
O904   O     0.96042   0.22678   0.75000   0.00000  Uiso   1.00
O905   O     0.96039   0.10654   0.75001   0.00000  Uiso   1.00
O906   O     0.70628   0.22679   0.75000   0.00000  Uiso   1.00
C907   C     0.66691   0.08757   0.74960   0.00000  Uiso   1.00
C908   C     0.99978   0.24576   0.75032   0.00000  Uiso   1.00
O909   O     0.68519   0.16668   0.81492   0.00000  Uiso   1.00
O910   O     0.98148   0.16666   0.68509   0.00000  Uiso   1.00
O911   O     0.93933   0.16667   0.81492   0.00000  Uiso   1.00
O912   O     0.72733   0.16667   0.68508   0.00000  Uiso   1.00
C913   C     0.97240   0.16752   0.83621   0.00000  Uiso   1.00
C914   C     0.69416   0.16787   0.66400   0.00000  Uiso   1.00
Cu915  Cu    0.71355   0.16667   0.75000   0.00000  Uiso   1.00
Cu916  Cu    0.95311   0.16666   0.75000   0.00000  Uiso   1.00
C917   C     0.95687   0.16963   0.88601   0.00000  Uiso   1.00
C918   C     0.71035   0.17809   0.61553   0.00000  Uiso   1.00
C919   C     0.97520   0.15652   0.95702   0.00000  Uiso   1.00
C920   C     0.70605   0.22583   0.55485   0.00000  Uiso   1.00
C921   C     0.98981   0.15927   0.91028   0.00000  Uiso   1.00
C922   C     0.68540   0.20803   0.59730   0.00000  Uiso   1.00
C923   C     0.90918   0.18103   0.90941   0.00000  Uiso   1.00
C924   C     0.75594   0.16470   0.59031   0.00000  Uiso   1.00
C925   C     0.89532   0.18221   0.95738   0.00000  Uiso   1.00
C926   C     0.78045   0.18714   0.55004   0.00000  Uiso   1.00
C927   C     0.92762   0.16603   0.98100   0.00000  Uiso   1.00
C928   C     0.75376   0.21643   0.53108   0.00000  Uiso   1.00
C929   C     0.84903   0.19589   0.98279   0.00000  Uiso   1.00
C930   C     0.83032   0.18159   0.52795   0.00000  Uiso   1.00
C931   C     0.86310   0.16618   0.55072   0.00000  Uiso   1.00
C932   C     0.82268   0.22606   0.96581   0.00000  Uiso   1.00
C933   C     0.91127   0.15922   0.52817   0.00000  Uiso   1.00
C934   C     0.77587   0.23653   0.98925   0.00000  Uiso   1.00
H935   H     0.98360   0.21858   0.61629   0.00000  Uiso   1.00
H936   H     0.69323   0.15097   0.89305   0.00000  Uiso   1.00
H937   H     0.66808   0.14598   0.97401   0.00000  Uiso   1.00
H938   H     0.68493   0.24838   0.54190   0.00000  Uiso   1.00
H939   H     0.85262   0.16177   0.58682   0.00000  Uiso   1.00
H940   H     0.83913   0.24379   0.93530   0.00000  Uiso   1.00
C941   C     0.97930   0.02235   0.72016   0.00000  Uiso   1.00
C942   C     0.68751   0.31096   0.77963   0.00000  Uiso   1.00
C943   C     0.97899   0.31263   0.72126   0.00000  Uiso   1.00
C944   C     0.68774   0.02068   0.77859   0.00000  Uiso   1.00
H945   H     0.96380   0.29663   0.69826   0.00000  Uiso   1.00
H946   H     0.70290   0.03665   0.80163   0.00000  Uiso   1.00
C947   C     0.99960   0.29039   0.75078   0.00000  Uiso   1.00
C948   C     0.66712   0.04293   0.74908   0.00000  Uiso   1.00
C949   C     0.85148   0.13686   0.77377   0.00000  Uiso   1.00
C950   C     0.81530   0.19605   0.72566   0.00000  Uiso   1.00
C951   C     0.80235   0.13684   0.77393   0.00000  Uiso   1.00
C952   C     0.86416   0.19664   0.72634   0.00000  Uiso   1.00
N953   N     0.78403   0.16668   0.74999   0.00000  Uiso   1.00
N954   N     0.88264   0.16666   0.75001   0.00000  Uiso   1.00
N955   N     0.94211   0.14328   0.55395   0.00000  Uiso   1.00
H956   H     0.97138   0.16328   0.54899   0.00000  Uiso   1.00
H957   H     0.95480   0.11422   0.54214   0.00000  Uiso   1.00
N958   N     0.75163   0.26755   0.96933   0.00000  Uiso   1.00
H959   H     0.74156   0.29181   0.99150   0.00000  Uiso   1.00
H960   H     0.72074   0.25445   0.96421   0.00000  Uiso   1.00
N961   N     0.77229   0.12494   0.60276   0.00000  Uiso   1.00
H962   H     0.79370   0.11019   0.57461   0.00000  Uiso   1.00
H963   H     0.79092   0.12819   0.62688   0.00000  Uiso   1.00
N964   N     0.87408   0.18524   0.88449   0.00000  Uiso   1.00
H965   H     0.84050   0.17322   0.90243   0.00000  Uiso   1.00
H966   H     0.87245   0.21584   0.87290   0.00000  Uiso   1.00
N967   N     0.95945   0.04509   0.68888   0.00000  Uiso   1.00
H968   H     0.97776   0.03627   0.65638   0.00000  Uiso   1.00
H969   H     0.92338   0.03640   0.69510   0.00000  Uiso   1.00
N970   N     0.70757   0.28822   0.81076   0.00000  Uiso   1.00
H971   H     0.68950   0.29708   0.84331   0.00000  Uiso   1.00
H972   H     0.74370   0.29684   0.80428   0.00000  Uiso   1.00
N973   N     0.86827   0.10416   0.79794   0.00000  Uiso   1.00
O974   O     0.86619   0.10870   0.84001   0.00000  Uiso   1.00
O975   O     0.87143   0.06690   0.78278   0.00000  Uiso   1.00
N976   N     0.79916   0.22700   0.69898   0.00000  Uiso   1.00
O977   O     0.80361   0.22023   0.65684   0.00000  Uiso   1.00
O978   O     0.79472   0.26502   0.71207   0.00000  Uiso   1.00
N979   N     0.77343   0.10345   0.79850   0.00000  Uiso   1.00
H980   H     0.73998   0.11382   0.81728   0.00000  Uiso   1.00
H981   H     0.77055   0.08112   0.77589   0.00000  Uiso   1.00
N982   N     0.89274   0.23051   0.70259   0.00000  Uiso   1.00
H983   H     0.92666   0.22045   0.68482   0.00000  Uiso   1.00
H984   H     0.89470   0.25260   0.72578   0.00000  Uiso   1.00
O985   O     0.03958   0.43989   0.75000   0.00000  Uiso   1.00
O986   O     0.29375   0.56011   0.75000   0.00000  Uiso   1.00
O987   O     0.29372   0.43988   0.75001   0.00000  Uiso   1.00
O988   O     0.03961   0.56012   0.75000   0.00000  Uiso   1.00
C989   C     0.00024   0.42090   0.74960   0.00000  Uiso   1.00
C990   C     0.33312   0.57909   0.75032   0.00000  Uiso   1.00
O991   O     0.01852   0.50001   0.81492   0.00000  Uiso   1.00
O992   O     0.31481   0.49999   0.68509   0.00000  Uiso   1.00
O993   O     0.27267   0.50000   0.81492   0.00000  Uiso   1.00
O994   O     0.06067   0.50000   0.68508   0.00000  Uiso   1.00
C995   C     0.30573   0.50085   0.83621   0.00000  Uiso   1.00
C996   C     0.02750   0.50121   0.66400   0.00000  Uiso   1.00
Cu997  Cu    0.04689   0.50001   0.75000   0.00000  Uiso   1.00
Cu998  Cu    0.28645   0.49999   0.75000   0.00000  Uiso   1.00
C999   C     0.29020   0.50296   0.88601   0.00000  Uiso   1.00
C1000  C     0.04369   0.51142   0.61553   0.00000  Uiso   1.00
C1001  C     0.30854   0.48986   0.95702   0.00000  Uiso   1.00
C1002  C     0.03938   0.55916   0.55485   0.00000  Uiso   1.00
C1003  C     0.32314   0.49261   0.91028   0.00000  Uiso   1.00
C1004  C     0.01873   0.54136   0.59730   0.00000  Uiso   1.00
C1005  C     0.24252   0.51436   0.90941   0.00000  Uiso   1.00
C1006  C     0.08928   0.49804   0.59031   0.00000  Uiso   1.00
C1007  C     0.22866   0.51554   0.95738   0.00000  Uiso   1.00
C1008  C     0.11378   0.52048   0.55004   0.00000  Uiso   1.00
C1009  C     0.26095   0.49936   0.98100   0.00000  Uiso   1.00
C1010  C     0.08709   0.54976   0.53108   0.00000  Uiso   1.00
C1011  C     0.18236   0.52922   0.98279   0.00000  Uiso   1.00
C1012  C     0.16366   0.51492   0.52795   0.00000  Uiso   1.00
C1013  C     0.19644   0.49951   0.55072   0.00000  Uiso   1.00
C1014  C     0.15601   0.55939   0.96581   0.00000  Uiso   1.00
C1015  C     0.24461   0.49256   0.52817   0.00000  Uiso   1.00
C1016  C     0.10920   0.56986   0.98925   0.00000  Uiso   1.00
H1017  H     0.31693   0.55192   0.61629   0.00000  Uiso   1.00
H1018  H     0.02656   0.48430   0.89305   0.00000  Uiso   1.00
H1019  H     0.00141   0.47931   0.97401   0.00000  Uiso   1.00
H1020  H     0.01827   0.58171   0.54190   0.00000  Uiso   1.00
H1021  H     0.18596   0.49510   0.58682   0.00000  Uiso   1.00
H1022  H     0.17246   0.57713   0.93530   0.00000  Uiso   1.00
C1023  C     0.31263   0.35568   0.72016   0.00000  Uiso   1.00
C1024  C     0.02084   0.64430   0.77963   0.00000  Uiso   1.00
C1025  C     0.31233   0.64596   0.72126   0.00000  Uiso   1.00
C1026  C     0.02107   0.35401   0.77859   0.00000  Uiso   1.00
H1027  H     0.29713   0.62996   0.69826   0.00000  Uiso   1.00
H1028  H     0.03623   0.36999   0.80163   0.00000  Uiso   1.00
C1029  C     0.33293   0.62372   0.75078   0.00000  Uiso   1.00
C1030  C     0.00046   0.37626   0.74908   0.00000  Uiso   1.00
C1031  C     0.18482   0.47020   0.77377   0.00000  Uiso   1.00
C1032  C     0.14864   0.52939   0.72566   0.00000  Uiso   1.00
C1033  C     0.13568   0.47018   0.77393   0.00000  Uiso   1.00
C1034  C     0.19750   0.52998   0.72634   0.00000  Uiso   1.00
N1035  N     0.11736   0.50001   0.74999   0.00000  Uiso   1.00
N1036  N     0.21597   0.49999   0.75001   0.00000  Uiso   1.00
N1037  N     0.27544   0.47661   0.55395   0.00000  Uiso   1.00
H1038  H     0.30471   0.49661   0.54899   0.00000  Uiso   1.00
H1039  H     0.28814   0.44755   0.54214   0.00000  Uiso   1.00
N1040  N     0.08497   0.60088   0.96933   0.00000  Uiso   1.00
H1041  H     0.07489   0.62514   0.99150   0.00000  Uiso   1.00
H1042  H     0.05407   0.58778   0.96421   0.00000  Uiso   1.00
N1043  N     0.10563   0.45827   0.60276   0.00000  Uiso   1.00
H1044  H     0.12703   0.44352   0.57461   0.00000  Uiso   1.00
H1045  H     0.12426   0.46153   0.62688   0.00000  Uiso   1.00
N1046  N     0.20741   0.51858   0.88449   0.00000  Uiso   1.00
H1047  H     0.17383   0.50655   0.90243   0.00000  Uiso   1.00
H1048  H     0.20579   0.54917   0.87290   0.00000  Uiso   1.00
N1049  N     0.29278   0.37843   0.68888   0.00000  Uiso   1.00
H1050  H     0.31110   0.36960   0.65638   0.00000  Uiso   1.00
H1051  H     0.25671   0.36973   0.69510   0.00000  Uiso   1.00
N1052  N     0.04091   0.62155   0.81076   0.00000  Uiso   1.00
H1053  H     0.02283   0.63041   0.84331   0.00000  Uiso   1.00
H1054  H     0.07703   0.63017   0.80428   0.00000  Uiso   1.00
N1055  N     0.20160   0.43750   0.79794   0.00000  Uiso   1.00
O1056  O     0.19952   0.44203   0.84001   0.00000  Uiso   1.00
O1057  O     0.20476   0.40024   0.78278   0.00000  Uiso   1.00
N1058  N     0.13249   0.56034   0.69898   0.00000  Uiso   1.00
O1059  O     0.13695   0.55356   0.65684   0.00000  Uiso   1.00
O1060  O     0.12805   0.59835   0.71207   0.00000  Uiso   1.00
N1061  N     0.10676   0.43679   0.79850   0.00000  Uiso   1.00
H1062  H     0.07332   0.44715   0.81728   0.00000  Uiso   1.00
H1063  H     0.10388   0.41445   0.77589   0.00000  Uiso   1.00
N1064  N     0.22608   0.56384   0.70259   0.00000  Uiso   1.00
H1065  H     0.25999   0.55378   0.68482   0.00000  Uiso   1.00
H1066  H     0.22803   0.58593   0.72578   0.00000  Uiso   1.00
O1067  O     0.37291   0.43989   0.75000   0.00000  Uiso   1.00
O1068  O     0.62709   0.56011   0.75000   0.00000  Uiso   1.00
O1069  O     0.62706   0.43988   0.75001   0.00000  Uiso   1.00
O1070  O     0.37294   0.56012   0.75000   0.00000  Uiso   1.00
C1071  C     0.33357   0.42090   0.74960   0.00000  Uiso   1.00
C1072  C     0.66645   0.57909   0.75032   0.00000  Uiso   1.00
O1073  O     0.35186   0.50001   0.81492   0.00000  Uiso   1.00
O1074  O     0.64814   0.49999   0.68509   0.00000  Uiso   1.00
O1075  O     0.60600   0.50000   0.81492   0.00000  Uiso   1.00
O1076  O     0.39400   0.50000   0.68508   0.00000  Uiso   1.00
C1077  C     0.63906   0.50085   0.83621   0.00000  Uiso   1.00
C1078  C     0.36083   0.50121   0.66400   0.00000  Uiso   1.00
Cu1079 Cu    0.38022   0.50001   0.75000   0.00000  Uiso   1.00
Cu1080 Cu    0.61978   0.49999   0.75000   0.00000  Uiso   1.00
C1081  C     0.62353   0.50296   0.88601   0.00000  Uiso   1.00
C1082  C     0.37702   0.51142   0.61553   0.00000  Uiso   1.00
C1083  C     0.64187   0.48986   0.95702   0.00000  Uiso   1.00
C1084  C     0.37271   0.55916   0.55485   0.00000  Uiso   1.00
C1085  C     0.65647   0.49261   0.91028   0.00000  Uiso   1.00
C1086  C     0.35207   0.54136   0.59730   0.00000  Uiso   1.00
C1087  C     0.57585   0.51436   0.90941   0.00000  Uiso   1.00
C1088  C     0.42261   0.49804   0.59031   0.00000  Uiso   1.00
C1089  C     0.56199   0.51554   0.95738   0.00000  Uiso   1.00
C1090  C     0.44712   0.52048   0.55004   0.00000  Uiso   1.00
C1091  C     0.59429   0.49936   0.98100   0.00000  Uiso   1.00
C1092  C     0.42043   0.54976   0.53108   0.00000  Uiso   1.00
C1093  C     0.51570   0.52922   0.98279   0.00000  Uiso   1.00
C1094  C     0.49699   0.51492   0.52795   0.00000  Uiso   1.00
C1095  C     0.52977   0.49951   0.55072   0.00000  Uiso   1.00
C1096  C     0.48934   0.55939   0.96581   0.00000  Uiso   1.00
C1097  C     0.57794   0.49256   0.52817   0.00000  Uiso   1.00
C1098  C     0.44254   0.56986   0.98925   0.00000  Uiso   1.00
H1099  H     0.65027   0.55192   0.61629   0.00000  Uiso   1.00
H1100  H     0.35989   0.48430   0.89305   0.00000  Uiso   1.00
H1101  H     0.33474   0.47931   0.97401   0.00000  Uiso   1.00
H1102  H     0.35160   0.58171   0.54190   0.00000  Uiso   1.00
H1103  H     0.51929   0.49510   0.58682   0.00000  Uiso   1.00
H1104  H     0.50579   0.57713   0.93530   0.00000  Uiso   1.00
C1105  C     0.64596   0.35568   0.72016   0.00000  Uiso   1.00
C1106  C     0.35417   0.64430   0.77963   0.00000  Uiso   1.00
C1107  C     0.64566   0.64596   0.72126   0.00000  Uiso   1.00
C1108  C     0.35441   0.35401   0.77859   0.00000  Uiso   1.00
H1109  H     0.63046   0.62996   0.69826   0.00000  Uiso   1.00
H1110  H     0.36956   0.36999   0.80163   0.00000  Uiso   1.00
C1111  C     0.66627   0.62372   0.75078   0.00000  Uiso   1.00
C1112  C     0.33379   0.37626   0.74908   0.00000  Uiso   1.00
C1113  C     0.51815   0.47020   0.77377   0.00000  Uiso   1.00
C1114  C     0.48197   0.52939   0.72566   0.00000  Uiso   1.00
C1115  C     0.46902   0.47018   0.77393   0.00000  Uiso   1.00
C1116  C     0.53083   0.52998   0.72634   0.00000  Uiso   1.00
N1117  N     0.45069   0.50001   0.74999   0.00000  Uiso   1.00
N1118  N     0.54931   0.49999   0.75001   0.00000  Uiso   1.00
N1119  N     0.60878   0.47661   0.55395   0.00000  Uiso   1.00
H1120  H     0.63805   0.49661   0.54899   0.00000  Uiso   1.00
H1121  H     0.62147   0.44755   0.54214   0.00000  Uiso   1.00
N1122  N     0.41830   0.60088   0.96933   0.00000  Uiso   1.00
H1123  H     0.40822   0.62514   0.99150   0.00000  Uiso   1.00
H1124  H     0.38741   0.58778   0.96421   0.00000  Uiso   1.00
N1125  N     0.43896   0.45827   0.60276   0.00000  Uiso   1.00
H1126  H     0.46037   0.44352   0.57461   0.00000  Uiso   1.00
H1127  H     0.45759   0.46153   0.62688   0.00000  Uiso   1.00
N1128  N     0.54074   0.51858   0.88449   0.00000  Uiso   1.00
H1129  H     0.50717   0.50655   0.90243   0.00000  Uiso   1.00
H1130  H     0.53912   0.54917   0.87290   0.00000  Uiso   1.00
N1131  N     0.62612   0.37843   0.68888   0.00000  Uiso   1.00
H1132  H     0.64443   0.36960   0.65638   0.00000  Uiso   1.00
H1133  H     0.59004   0.36973   0.69510   0.00000  Uiso   1.00
N1134  N     0.37424   0.62155   0.81076   0.00000  Uiso   1.00
H1135  H     0.35616   0.63041   0.84331   0.00000  Uiso   1.00
H1136  H     0.41037   0.63017   0.80428   0.00000  Uiso   1.00
N1137  N     0.53493   0.43750   0.79794   0.00000  Uiso   1.00
O1138  O     0.53285   0.44203   0.84001   0.00000  Uiso   1.00
O1139  O     0.53809   0.40024   0.78278   0.00000  Uiso   1.00
N1140  N     0.46582   0.56034   0.69898   0.00000  Uiso   1.00
O1141  O     0.47028   0.55356   0.65684   0.00000  Uiso   1.00
O1142  O     0.46138   0.59835   0.71207   0.00000  Uiso   1.00
N1143  N     0.44010   0.43679   0.79850   0.00000  Uiso   1.00
H1144  H     0.40665   0.44715   0.81728   0.00000  Uiso   1.00
H1145  H     0.43722   0.41445   0.77589   0.00000  Uiso   1.00
N1146  N     0.55941   0.56384   0.70259   0.00000  Uiso   1.00
H1147  H     0.59332   0.55378   0.68482   0.00000  Uiso   1.00
H1148  H     0.56136   0.58593   0.72578   0.00000  Uiso   1.00
O1149  O     0.70625   0.43989   0.75000   0.00000  Uiso   1.00
O1150  O     0.96042   0.56011   0.75000   0.00000  Uiso   1.00
O1151  O     0.96039   0.43988   0.75001   0.00000  Uiso   1.00
O1152  O     0.70628   0.56012   0.75000   0.00000  Uiso   1.00
C1153  C     0.66691   0.42090   0.74960   0.00000  Uiso   1.00
C1154  C     0.99978   0.57909   0.75032   0.00000  Uiso   1.00
O1155  O     0.68519   0.50001   0.81492   0.00000  Uiso   1.00
O1156  O     0.98148   0.49999   0.68509   0.00000  Uiso   1.00
O1157  O     0.93933   0.50000   0.81492   0.00000  Uiso   1.00
O1158  O     0.72733   0.50000   0.68508   0.00000  Uiso   1.00
C1159  C     0.97240   0.50085   0.83621   0.00000  Uiso   1.00
C1160  C     0.69416   0.50121   0.66400   0.00000  Uiso   1.00
Cu1161 Cu    0.71355   0.50001   0.75000   0.00000  Uiso   1.00
Cu1162 Cu    0.95311   0.49999   0.75000   0.00000  Uiso   1.00
C1163  C     0.95687   0.50296   0.88601   0.00000  Uiso   1.00
C1164  C     0.71035   0.51142   0.61553   0.00000  Uiso   1.00
C1165  C     0.97520   0.48986   0.95702   0.00000  Uiso   1.00
C1166  C     0.70605   0.55916   0.55485   0.00000  Uiso   1.00
C1167  C     0.98981   0.49261   0.91028   0.00000  Uiso   1.00
C1168  C     0.68540   0.54136   0.59730   0.00000  Uiso   1.00
C1169  C     0.90918   0.51436   0.90941   0.00000  Uiso   1.00
C1170  C     0.75594   0.49804   0.59031   0.00000  Uiso   1.00
C1171  C     0.89532   0.51554   0.95738   0.00000  Uiso   1.00
C1172  C     0.78045   0.52048   0.55004   0.00000  Uiso   1.00
C1173  C     0.92762   0.49936   0.98100   0.00000  Uiso   1.00
C1174  C     0.75376   0.54976   0.53108   0.00000  Uiso   1.00
C1175  C     0.84903   0.52922   0.98279   0.00000  Uiso   1.00
C1176  C     0.83032   0.51492   0.52795   0.00000  Uiso   1.00
C1177  C     0.86310   0.49951   0.55072   0.00000  Uiso   1.00
C1178  C     0.82268   0.55939   0.96581   0.00000  Uiso   1.00
C1179  C     0.91127   0.49256   0.52817   0.00000  Uiso   1.00
C1180  C     0.77587   0.56986   0.98925   0.00000  Uiso   1.00
H1181  H     0.98360   0.55192   0.61629   0.00000  Uiso   1.00
H1182  H     0.69323   0.48430   0.89305   0.00000  Uiso   1.00
H1183  H     0.66808   0.47931   0.97401   0.00000  Uiso   1.00
H1184  H     0.68493   0.58171   0.54190   0.00000  Uiso   1.00
H1185  H     0.85262   0.49510   0.58682   0.00000  Uiso   1.00
H1186  H     0.83913   0.57713   0.93530   0.00000  Uiso   1.00
C1187  C     0.97930   0.35568   0.72016   0.00000  Uiso   1.00
C1188  C     0.68751   0.64430   0.77963   0.00000  Uiso   1.00
C1189  C     0.97899   0.64596   0.72126   0.00000  Uiso   1.00
C1190  C     0.68774   0.35401   0.77859   0.00000  Uiso   1.00
H1191  H     0.96380   0.62996   0.69826   0.00000  Uiso   1.00
H1192  H     0.70290   0.36999   0.80163   0.00000  Uiso   1.00
C1193  C     0.99960   0.62372   0.75078   0.00000  Uiso   1.00
C1194  C     0.66712   0.37626   0.74908   0.00000  Uiso   1.00
C1195  C     0.85148   0.47020   0.77377   0.00000  Uiso   1.00
C1196  C     0.81530   0.52939   0.72566   0.00000  Uiso   1.00
C1197  C     0.80235   0.47018   0.77393   0.00000  Uiso   1.00
C1198  C     0.86416   0.52998   0.72634   0.00000  Uiso   1.00
N1199  N     0.78403   0.50001   0.74999   0.00000  Uiso   1.00
N1200  N     0.88264   0.49999   0.75001   0.00000  Uiso   1.00
N1201  N     0.94211   0.47661   0.55395   0.00000  Uiso   1.00
H1202  H     0.97138   0.49661   0.54899   0.00000  Uiso   1.00
H1203  H     0.95480   0.44755   0.54214   0.00000  Uiso   1.00
N1204  N     0.75163   0.60088   0.96933   0.00000  Uiso   1.00
H1205  H     0.74156   0.62514   0.99150   0.00000  Uiso   1.00
H1206  H     0.72074   0.58778   0.96421   0.00000  Uiso   1.00
N1207  N     0.77229   0.45827   0.60276   0.00000  Uiso   1.00
H1208  H     0.79370   0.44352   0.57461   0.00000  Uiso   1.00
H1209  H     0.79092   0.46153   0.62688   0.00000  Uiso   1.00
N1210  N     0.87408   0.51858   0.88449   0.00000  Uiso   1.00
H1211  H     0.84050   0.50655   0.90243   0.00000  Uiso   1.00
H1212  H     0.87245   0.54917   0.87290   0.00000  Uiso   1.00
N1213  N     0.95945   0.37843   0.68888   0.00000  Uiso   1.00
H1214  H     0.97776   0.36960   0.65638   0.00000  Uiso   1.00
H1215  H     0.92338   0.36973   0.69510   0.00000  Uiso   1.00
N1216  N     0.70757   0.62155   0.81076   0.00000  Uiso   1.00
H1217  H     0.68950   0.63041   0.84331   0.00000  Uiso   1.00
H1218  H     0.74370   0.63017   0.80428   0.00000  Uiso   1.00
N1219  N     0.86827   0.43750   0.79794   0.00000  Uiso   1.00
O1220  O     0.86619   0.44203   0.84001   0.00000  Uiso   1.00
O1221  O     0.87143   0.40024   0.78278   0.00000  Uiso   1.00
N1222  N     0.79916   0.56034   0.69898   0.00000  Uiso   1.00
O1223  O     0.80361   0.55356   0.65684   0.00000  Uiso   1.00
O1224  O     0.79472   0.59835   0.71207   0.00000  Uiso   1.00
N1225  N     0.77343   0.43679   0.79850   0.00000  Uiso   1.00
H1226  H     0.73998   0.44715   0.81728   0.00000  Uiso   1.00
H1227  H     0.77055   0.41445   0.77589   0.00000  Uiso   1.00
N1228  N     0.89274   0.56384   0.70259   0.00000  Uiso   1.00
H1229  H     0.92666   0.55378   0.68482   0.00000  Uiso   1.00
H1230  H     0.89470   0.58593   0.72578   0.00000  Uiso   1.00
O1231  O     0.03958   0.77322   0.75000   0.00000  Uiso   1.00
O1232  O     0.29375   0.89345   0.75000   0.00000  Uiso   1.00
O1233  O     0.29372   0.77321   0.75001   0.00000  Uiso   1.00
O1234  O     0.03961   0.89346   0.75000   0.00000  Uiso   1.00
C1235  C     0.00024   0.75424   0.74960   0.00000  Uiso   1.00
C1236  C     0.33312   0.91243   0.75032   0.00000  Uiso   1.00
O1237  O     0.01852   0.83334   0.81492   0.00000  Uiso   1.00
O1238  O     0.31481   0.83332   0.68509   0.00000  Uiso   1.00
O1239  O     0.27267   0.83333   0.81492   0.00000  Uiso   1.00
O1240  O     0.06067   0.83333   0.68508   0.00000  Uiso   1.00
C1241  C     0.30573   0.83418   0.83621   0.00000  Uiso   1.00
C1242  C     0.02750   0.83454   0.66400   0.00000  Uiso   1.00
Cu1243 Cu    0.04689   0.83334   0.75000   0.00000  Uiso   1.00
Cu1244 Cu    0.28645   0.83333   0.75000   0.00000  Uiso   1.00
C1245  C     0.29020   0.83629   0.88601   0.00000  Uiso   1.00
C1246  C     0.04369   0.84475   0.61553   0.00000  Uiso   1.00
C1247  C     0.30854   0.82319   0.95702   0.00000  Uiso   1.00
C1248  C     0.03938   0.89249   0.55485   0.00000  Uiso   1.00
C1249  C     0.32314   0.82594   0.91028   0.00000  Uiso   1.00
C1250  C     0.01873   0.87470   0.59730   0.00000  Uiso   1.00
C1251  C     0.24252   0.84770   0.90941   0.00000  Uiso   1.00
C1252  C     0.08928   0.83137   0.59031   0.00000  Uiso   1.00
C1253  C     0.22866   0.84888   0.95738   0.00000  Uiso   1.00
C1254  C     0.11378   0.85381   0.55004   0.00000  Uiso   1.00
C1255  C     0.26095   0.83270   0.98100   0.00000  Uiso   1.00
C1256  C     0.08709   0.88309   0.53108   0.00000  Uiso   1.00
C1257  C     0.18236   0.86255   0.98279   0.00000  Uiso   1.00
C1258  C     0.16366   0.84826   0.52795   0.00000  Uiso   1.00
C1259  C     0.19644   0.83284   0.55072   0.00000  Uiso   1.00
C1260  C     0.15601   0.89272   0.96581   0.00000  Uiso   1.00
C1261  C     0.24461   0.82589   0.52817   0.00000  Uiso   1.00
C1262  C     0.10920   0.90319   0.98925   0.00000  Uiso   1.00
H1263  H     0.31693   0.88525   0.61629   0.00000  Uiso   1.00
H1264  H     0.02656   0.81763   0.89305   0.00000  Uiso   1.00
H1265  H     0.00141   0.81264   0.97401   0.00000  Uiso   1.00
H1266  H     0.01827   0.91504   0.54190   0.00000  Uiso   1.00
H1267  H     0.18596   0.82844   0.58682   0.00000  Uiso   1.00
H1268  H     0.17246   0.91046   0.93530   0.00000  Uiso   1.00
C1269  C     0.31263   0.68902   0.72016   0.00000  Uiso   1.00
C1270  C     0.02084   0.97763   0.77963   0.00000  Uiso   1.00
C1271  C     0.31233   0.97929   0.72126   0.00000  Uiso   1.00
C1272  C     0.02107   0.68735   0.77859   0.00000  Uiso   1.00
H1273  H     0.29713   0.96330   0.69826   0.00000  Uiso   1.00
H1274  H     0.03623   0.70332   0.80163   0.00000  Uiso   1.00
C1275  C     0.33293   0.95706   0.75078   0.00000  Uiso   1.00
C1276  C     0.00046   0.70960   0.74908   0.00000  Uiso   1.00
C1277  C     0.18482   0.80353   0.77377   0.00000  Uiso   1.00
C1278  C     0.14864   0.86272   0.72566   0.00000  Uiso   1.00
C1279  C     0.13568   0.80351   0.77393   0.00000  Uiso   1.00
C1280  C     0.19750   0.86331   0.72634   0.00000  Uiso   1.00
N1281  N     0.11736   0.83334   0.74999   0.00000  Uiso   1.00
N1282  N     0.21597   0.83332   0.75001   0.00000  Uiso   1.00
N1283  N     0.27544   0.80994   0.55395   0.00000  Uiso   1.00
H1284  H     0.30471   0.82994   0.54899   0.00000  Uiso   1.00
H1285  H     0.28814   0.78088   0.54214   0.00000  Uiso   1.00
N1286  N     0.08497   0.93422   0.96933   0.00000  Uiso   1.00
H1287  H     0.07489   0.95848   0.99150   0.00000  Uiso   1.00
H1288  H     0.05407   0.92111   0.96421   0.00000  Uiso   1.00
N1289  N     0.10563   0.79161   0.60276   0.00000  Uiso   1.00
H1290  H     0.12703   0.77686   0.57461   0.00000  Uiso   1.00
H1291  H     0.12426   0.79486   0.62688   0.00000  Uiso   1.00
N1292  N     0.20741   0.85191   0.88449   0.00000  Uiso   1.00
H1293  H     0.17383   0.83989   0.90243   0.00000  Uiso   1.00
H1294  H     0.20579   0.88251   0.87290   0.00000  Uiso   1.00
N1295  N     0.29278   0.71176   0.68888   0.00000  Uiso   1.00
H1296  H     0.31110   0.70293   0.65638   0.00000  Uiso   1.00
H1297  H     0.25671   0.70307   0.69510   0.00000  Uiso   1.00
N1298  N     0.04091   0.95488   0.81076   0.00000  Uiso   1.00
H1299  H     0.02283   0.96374   0.84331   0.00000  Uiso   1.00
H1300  H     0.07703   0.96351   0.80428   0.00000  Uiso   1.00
N1301  N     0.20160   0.77083   0.79794   0.00000  Uiso   1.00
O1302  O     0.19952   0.77536   0.84001   0.00000  Uiso   1.00
O1303  O     0.20476   0.73357   0.78278   0.00000  Uiso   1.00
N1304  N     0.13249   0.89367   0.69898   0.00000  Uiso   1.00
O1305  O     0.13695   0.88690   0.65684   0.00000  Uiso   1.00
O1306  O     0.12805   0.93168   0.71207   0.00000  Uiso   1.00
N1307  N     0.10676   0.77012   0.79850   0.00000  Uiso   1.00
H1308  H     0.07332   0.78049   0.81728   0.00000  Uiso   1.00
H1309  H     0.10388   0.74779   0.77589   0.00000  Uiso   1.00
N1310  N     0.22608   0.89718   0.70259   0.00000  Uiso   1.00
H1311  H     0.25999   0.88712   0.68482   0.00000  Uiso   1.00
H1312  H     0.22803   0.91927   0.72578   0.00000  Uiso   1.00
O1313  O     0.37291   0.77322   0.75000   0.00000  Uiso   1.00
O1314  O     0.62709   0.89345   0.75000   0.00000  Uiso   1.00
O1315  O     0.62706   0.77321   0.75001   0.00000  Uiso   1.00
O1316  O     0.37294   0.89346   0.75000   0.00000  Uiso   1.00
C1317  C     0.33357   0.75424   0.74960   0.00000  Uiso   1.00
C1318  C     0.66645   0.91243   0.75032   0.00000  Uiso   1.00
O1319  O     0.35186   0.83334   0.81492   0.00000  Uiso   1.00
O1320  O     0.64814   0.83332   0.68509   0.00000  Uiso   1.00
O1321  O     0.60600   0.83333   0.81492   0.00000  Uiso   1.00
O1322  O     0.39400   0.83333   0.68508   0.00000  Uiso   1.00
C1323  C     0.63906   0.83418   0.83621   0.00000  Uiso   1.00
C1324  C     0.36083   0.83454   0.66400   0.00000  Uiso   1.00
Cu1325 Cu    0.38022   0.83334   0.75000   0.00000  Uiso   1.00
Cu1326 Cu    0.61978   0.83333   0.75000   0.00000  Uiso   1.00
C1327  C     0.62353   0.83629   0.88601   0.00000  Uiso   1.00
C1328  C     0.37702   0.84475   0.61553   0.00000  Uiso   1.00
C1329  C     0.64187   0.82319   0.95702   0.00000  Uiso   1.00
C1330  C     0.37271   0.89249   0.55485   0.00000  Uiso   1.00
C1331  C     0.65647   0.82594   0.91028   0.00000  Uiso   1.00
C1332  C     0.35207   0.87470   0.59730   0.00000  Uiso   1.00
C1333  C     0.57585   0.84770   0.90941   0.00000  Uiso   1.00
C1334  C     0.42261   0.83137   0.59031   0.00000  Uiso   1.00
C1335  C     0.56199   0.84888   0.95738   0.00000  Uiso   1.00
C1336  C     0.44712   0.85381   0.55004   0.00000  Uiso   1.00
C1337  C     0.59429   0.83270   0.98100   0.00000  Uiso   1.00
C1338  C     0.42043   0.88309   0.53108   0.00000  Uiso   1.00
C1339  C     0.51570   0.86255   0.98279   0.00000  Uiso   1.00
C1340  C     0.49699   0.84826   0.52795   0.00000  Uiso   1.00
C1341  C     0.52977   0.83284   0.55072   0.00000  Uiso   1.00
C1342  C     0.48934   0.89272   0.96581   0.00000  Uiso   1.00
C1343  C     0.57794   0.82589   0.52817   0.00000  Uiso   1.00
C1344  C     0.44254   0.90319   0.98925   0.00000  Uiso   1.00
H1345  H     0.65027   0.88525   0.61629   0.00000  Uiso   1.00
H1346  H     0.35989   0.81763   0.89305   0.00000  Uiso   1.00
H1347  H     0.33474   0.81264   0.97401   0.00000  Uiso   1.00
H1348  H     0.35160   0.91504   0.54190   0.00000  Uiso   1.00
H1349  H     0.51929   0.82844   0.58682   0.00000  Uiso   1.00
H1350  H     0.50579   0.91046   0.93530   0.00000  Uiso   1.00
C1351  C     0.64596   0.68902   0.72016   0.00000  Uiso   1.00
C1352  C     0.35417   0.97763   0.77963   0.00000  Uiso   1.00
C1353  C     0.64566   0.97929   0.72126   0.00000  Uiso   1.00
C1354  C     0.35441   0.68735   0.77859   0.00000  Uiso   1.00
H1355  H     0.63046   0.96330   0.69826   0.00000  Uiso   1.00
H1356  H     0.36956   0.70332   0.80163   0.00000  Uiso   1.00
C1357  C     0.66627   0.95706   0.75078   0.00000  Uiso   1.00
C1358  C     0.33379   0.70960   0.74908   0.00000  Uiso   1.00
C1359  C     0.51815   0.80353   0.77377   0.00000  Uiso   1.00
C1360  C     0.48197   0.86272   0.72566   0.00000  Uiso   1.00
C1361  C     0.46902   0.80351   0.77393   0.00000  Uiso   1.00
C1362  C     0.53083   0.86331   0.72634   0.00000  Uiso   1.00
N1363  N     0.45069   0.83334   0.74999   0.00000  Uiso   1.00
N1364  N     0.54931   0.83332   0.75001   0.00000  Uiso   1.00
N1365  N     0.60878   0.80994   0.55395   0.00000  Uiso   1.00
H1366  H     0.63805   0.82994   0.54899   0.00000  Uiso   1.00
H1367  H     0.62147   0.78088   0.54214   0.00000  Uiso   1.00
N1368  N     0.41830   0.93422   0.96933   0.00000  Uiso   1.00
H1369  H     0.40822   0.95848   0.99150   0.00000  Uiso   1.00
H1370  H     0.38741   0.92111   0.96421   0.00000  Uiso   1.00
N1371  N     0.43896   0.79161   0.60276   0.00000  Uiso   1.00
H1372  H     0.46037   0.77686   0.57461   0.00000  Uiso   1.00
H1373  H     0.45759   0.79486   0.62688   0.00000  Uiso   1.00
N1374  N     0.54074   0.85191   0.88449   0.00000  Uiso   1.00
H1375  H     0.50717   0.83989   0.90243   0.00000  Uiso   1.00
H1376  H     0.53912   0.88251   0.87290   0.00000  Uiso   1.00
N1377  N     0.62612   0.71176   0.68888   0.00000  Uiso   1.00
H1378  H     0.64443   0.70293   0.65638   0.00000  Uiso   1.00
H1379  H     0.59004   0.70307   0.69510   0.00000  Uiso   1.00
N1380  N     0.37424   0.95488   0.81076   0.00000  Uiso   1.00
H1381  H     0.35616   0.96374   0.84331   0.00000  Uiso   1.00
H1382  H     0.41037   0.96351   0.80428   0.00000  Uiso   1.00
N1383  N     0.53493   0.77083   0.79794   0.00000  Uiso   1.00
O1384  O     0.53285   0.77536   0.84001   0.00000  Uiso   1.00
O1385  O     0.53809   0.73357   0.78278   0.00000  Uiso   1.00
N1386  N     0.46582   0.89367   0.69898   0.00000  Uiso   1.00
O1387  O     0.47028   0.88690   0.65684   0.00000  Uiso   1.00
O1388  O     0.46138   0.93168   0.71207   0.00000  Uiso   1.00
N1389  N     0.44010   0.77012   0.79850   0.00000  Uiso   1.00
H1390  H     0.40665   0.78049   0.81728   0.00000  Uiso   1.00
H1391  H     0.43722   0.74779   0.77589   0.00000  Uiso   1.00
N1392  N     0.55941   0.89718   0.70259   0.00000  Uiso   1.00
H1393  H     0.59332   0.88712   0.68482   0.00000  Uiso   1.00
H1394  H     0.56136   0.91927   0.72578   0.00000  Uiso   1.00
O1395  O     0.70625   0.77322   0.75000   0.00000  Uiso   1.00
O1396  O     0.96042   0.89345   0.75000   0.00000  Uiso   1.00
O1397  O     0.96039   0.77321   0.75001   0.00000  Uiso   1.00
O1398  O     0.70628   0.89346   0.75000   0.00000  Uiso   1.00
C1399  C     0.66691   0.75424   0.74960   0.00000  Uiso   1.00
C1400  C     0.99978   0.91243   0.75032   0.00000  Uiso   1.00
O1401  O     0.68519   0.83334   0.81492   0.00000  Uiso   1.00
O1402  O     0.98148   0.83332   0.68509   0.00000  Uiso   1.00
O1403  O     0.93933   0.83333   0.81492   0.00000  Uiso   1.00
O1404  O     0.72733   0.83333   0.68508   0.00000  Uiso   1.00
C1405  C     0.97240   0.83418   0.83621   0.00000  Uiso   1.00
C1406  C     0.69416   0.83454   0.66400   0.00000  Uiso   1.00
Cu1407 Cu    0.71355   0.83334   0.75000   0.00000  Uiso   1.00
Cu1408 Cu    0.95311   0.83333   0.75000   0.00000  Uiso   1.00
C1409  C     0.95687   0.83629   0.88601   0.00000  Uiso   1.00
C1410  C     0.71035   0.84475   0.61553   0.00000  Uiso   1.00
C1411  C     0.97520   0.82319   0.95702   0.00000  Uiso   1.00
C1412  C     0.70605   0.89249   0.55485   0.00000  Uiso   1.00
C1413  C     0.98981   0.82594   0.91028   0.00000  Uiso   1.00
C1414  C     0.68540   0.87470   0.59730   0.00000  Uiso   1.00
C1415  C     0.90918   0.84770   0.90941   0.00000  Uiso   1.00
C1416  C     0.75594   0.83137   0.59031   0.00000  Uiso   1.00
C1417  C     0.89532   0.84888   0.95738   0.00000  Uiso   1.00
C1418  C     0.78045   0.85381   0.55004   0.00000  Uiso   1.00
C1419  C     0.92762   0.83270   0.98100   0.00000  Uiso   1.00
C1420  C     0.75376   0.88309   0.53108   0.00000  Uiso   1.00
C1421  C     0.84903   0.86255   0.98279   0.00000  Uiso   1.00
C1422  C     0.83032   0.84826   0.52795   0.00000  Uiso   1.00
C1423  C     0.86310   0.83284   0.55072   0.00000  Uiso   1.00
C1424  C     0.82268   0.89272   0.96581   0.00000  Uiso   1.00
C1425  C     0.91127   0.82589   0.52817   0.00000  Uiso   1.00
C1426  C     0.77587   0.90319   0.98925   0.00000  Uiso   1.00
H1427  H     0.98360   0.88525   0.61629   0.00000  Uiso   1.00
H1428  H     0.69323   0.81763   0.89305   0.00000  Uiso   1.00
H1429  H     0.66808   0.81264   0.97401   0.00000  Uiso   1.00
H1430  H     0.68493   0.91504   0.54190   0.00000  Uiso   1.00
H1431  H     0.85262   0.82844   0.58682   0.00000  Uiso   1.00
H1432  H     0.83913   0.91046   0.93530   0.00000  Uiso   1.00
C1433  C     0.97930   0.68902   0.72016   0.00000  Uiso   1.00
C1434  C     0.68751   0.97763   0.77963   0.00000  Uiso   1.00
C1435  C     0.97899   0.97929   0.72126   0.00000  Uiso   1.00
C1436  C     0.68774   0.68735   0.77859   0.00000  Uiso   1.00
H1437  H     0.96380   0.96330   0.69826   0.00000  Uiso   1.00
H1438  H     0.70290   0.70332   0.80163   0.00000  Uiso   1.00
C1439  C     0.99960   0.95706   0.75078   0.00000  Uiso   1.00
C1440  C     0.66712   0.70960   0.74908   0.00000  Uiso   1.00
C1441  C     0.85148   0.80353   0.77377   0.00000  Uiso   1.00
C1442  C     0.81530   0.86272   0.72566   0.00000  Uiso   1.00
C1443  C     0.80235   0.80351   0.77393   0.00000  Uiso   1.00
C1444  C     0.86416   0.86331   0.72634   0.00000  Uiso   1.00
N1445  N     0.78403   0.83334   0.74999   0.00000  Uiso   1.00
N1446  N     0.88264   0.83332   0.75001   0.00000  Uiso   1.00
N1447  N     0.94211   0.80994   0.55395   0.00000  Uiso   1.00
H1448  H     0.97138   0.82994   0.54899   0.00000  Uiso   1.00
H1449  H     0.95480   0.78088   0.54214   0.00000  Uiso   1.00
N1450  N     0.75163   0.93422   0.96933   0.00000  Uiso   1.00
H1451  H     0.74156   0.95848   0.99150   0.00000  Uiso   1.00
H1452  H     0.72074   0.92111   0.96421   0.00000  Uiso   1.00
N1453  N     0.77229   0.79161   0.60276   0.00000  Uiso   1.00
H1454  H     0.79370   0.77686   0.57461   0.00000  Uiso   1.00
H1455  H     0.79092   0.79486   0.62688   0.00000  Uiso   1.00
N1456  N     0.87408   0.85191   0.88449   0.00000  Uiso   1.00
H1457  H     0.84050   0.83989   0.90243   0.00000  Uiso   1.00
H1458  H     0.87245   0.88251   0.87290   0.00000  Uiso   1.00
N1459  N     0.95945   0.71176   0.68888   0.00000  Uiso   1.00
H1460  H     0.97776   0.70293   0.65638   0.00000  Uiso   1.00
H1461  H     0.92338   0.70307   0.69510   0.00000  Uiso   1.00
N1462  N     0.70757   0.95488   0.81076   0.00000  Uiso   1.00
H1463  H     0.68950   0.96374   0.84331   0.00000  Uiso   1.00
H1464  H     0.74370   0.96351   0.80428   0.00000  Uiso   1.00
N1465  N     0.86827   0.77083   0.79794   0.00000  Uiso   1.00
O1466  O     0.86619   0.77536   0.84001   0.00000  Uiso   1.00
O1467  O     0.87143   0.73357   0.78278   0.00000  Uiso   1.00
N1468  N     0.79916   0.89367   0.69898   0.00000  Uiso   1.00
O1469  O     0.80361   0.88690   0.65684   0.00000  Uiso   1.00
O1470  O     0.79472   0.93168   0.71207   0.00000  Uiso   1.00
N1471  N     0.77343   0.77012   0.79850   0.00000  Uiso   1.00
H1472  H     0.73998   0.78049   0.81728   0.00000  Uiso   1.00
H1473  H     0.77055   0.74779   0.77589   0.00000  Uiso   1.00
N1474  N     0.89274   0.89718   0.70259   0.00000  Uiso   1.00
H1475  H     0.92666   0.88712   0.68482   0.00000  Uiso   1.00
H1476  H     0.89470   0.91927   0.72578   0.00000  Uiso   1.00
loop_
_geom_bond_atom_site_label_1
_geom_bond_atom_site_label_2
_geom_bond_distance
_geom_bond_site_symmetry_2
_ccdc_geom_bond_type
O1     C5      1.301   .     A
O1     Cu13    1.956   .     S
O2     C6      1.301   .     A
O2     Cu14    1.956   .     S
O3     Cu14    1.951   .     S
O3     C87     1.297   .     S
O4     Cu13    1.951   .     S
O4     C170    1.296   1_455 S
C5     C46     1.443   .     S
C5     O167    1.297   1_455 S
C6     C45     1.442   .     S
C6     O86     1.296   .     S
O7     Cu13    1.946   .     S
O7     C175    1.313   1_455 S
O8     Cu14    1.946   .     S
O8     C94     1.308   .     S
O9     Cu14    1.935   .     S
O9     C11     1.305   .     A
O10    C12     1.301   .     A
O10    Cu13    1.935   .     S
C11    C15     1.483   .     S
C11    O89     1.313   .     S
C12    C16     1.467   .     S
C12    O172    1.308   1_455 S
Cu13   N51     2.037   .     S
Cu13   Cu178   2.711   1_455 S
Cu14   N52     2.037   .     S
Cu14   Cu95    2.711   .     S
C15    C19     1.399   .     A
C15    C21     1.418   .     A
C16    C20     1.395   .     A
C16    C22     1.404   .     A
C17    C25     1.405   .     A
C17    C19     1.388   .     A
C17    H117    1.082   .     S
C18    C26     1.406   .     A
C18    C20     1.387   .     A
C18    H36     1.082   .     S
C19    H116    1.083   .     S
C20    H197    1.080   1_455 S
C21    N62     1.439   .     S
C21    C23     1.427   .     A
C22    N59     1.440   .     S
C22    C24     1.425   .     A
C23    C27     1.425   .     A
C23    C25     1.422   .     A
C24    C26     1.425   .     A
C24    C28     1.425   .     A
C25    C769    1.412   .     S
C26    C770    1.410   1_554 S
C27    C30     1.406   .     A
C27    C766    1.412   .     S
C28    C29     1.407   .     A
C28    C765    1.412   1_554 S
C29    C31     1.392   .     A
C29    H37     1.077   .     S
C30    H38     1.077   .     S
C30    C32     1.390   .     A
C31    N53     1.433   .     S
C31    C763    1.412   1_554 S
C32    N56     1.434   .     S
C32    C764    1.410   .     S
H33    C102    1.080   .     S
H34    C183    1.083   1_455 S
H35    C181    1.082   1_455 S
C39    N65     1.433   .     S
C39    C533    1.390   1_545 S
C39    C128    1.405   .     S
C40    N68     1.434   .     S
C40    C288    1.390   .     S
C40    C209    1.405   1_455 S
C41    H43     1.083   .     S
C41    C45     1.397   .     A
C41    C285    1.390   .     S
C42    C46     1.397   .     A
C42    H44     1.083   .     S
C42    C532    1.390   1_545 S
C45    C122    1.405   .     S
C46    C203    1.405   1_455 S
C47    C49     1.419   .     A
C47    N71     1.430   .     S
C47    N52     1.369   .     A
C48    N51     1.367   .     A
C48    N74     1.430   .     S
C48    C50     1.419   .     A
C49    N77     1.429   .     S
C49    N51     1.384   .     A
C50    N52     1.384   .     A
C50    N80     1.428   .     S
N53    H55     1.045   .     S
N53    H54     1.043   .     S
N56    H57     1.045   .     S
N56    H58     1.046   .     S
N59    H60     1.045   .     S
N59    H61     1.044   .     S
N62    H64     1.044   .     S
N62    H63     1.045   .     S
N65    H67     1.046   .     S
N65    H66     1.046   .     S
N68    H69     1.046   .     S
N68    H70     1.046   .     S
N71    O73     1.301   .     A
N71    O72     1.299   .     A
N74    O76     1.301   .     A
N74    O75     1.300   .     A
N77    H78     1.039   .     S
N77    H79     1.043   .     S
N80    H81     1.037   .     S
N80    H82     1.043   .     S
O83    C87     1.301   .     A
O83    Cu95    1.956   .     S
O84    C88     1.301   .     A
O84    Cu96    1.956   .     S
O85    Cu96    1.951   .     S
O85    C169    1.297   .     S
O86    Cu95    1.951   .     S
C87    C128    1.443   .     S
C88    C127    1.442   .     S
C88    O168    1.296   .     S
O89    Cu95    1.946   .     S
O90    Cu96    1.946   .     S
O90    C176    1.308   .     S
O91    Cu96    1.935   .     S
O91    C93     1.305   .     A
O92    C94     1.301   .     A
O92    Cu95    1.935   .     S
C93    C97     1.483   .     S
C93    O171    1.313   .     S
C94    C98     1.467   .     S
Cu95   N133    2.037   .     S
Cu96   N134    2.037   .     S
Cu96   Cu177   2.711   .     S
C97    C101    1.399   .     A
C97    C103    1.418   .     A
C98    C102    1.395   .     A
C98    C104    1.404   .     A
C99    C107    1.405   .     A
C99    C101    1.388   .     A
C99    H199    1.082   .     S
C100   C108    1.406   .     A
C100   C102    1.387   .     A
C100   H118    1.082   .     S
C101   H198    1.083   .     S
C103   N144    1.439   .     S
C103   C105    1.427   .     A
C104   N141    1.440   .     S
C104   C106    1.425   .     A
C105   C109    1.425   .     A
C105   C107    1.422   .     A
C106   C108    1.425   .     A
C106   C110    1.425   .     A
C107   C851    1.412   .     S
C108   C852    1.410   1_554 S
C109   C112    1.406   .     A
C109   C848    1.412   .     S
C110   C111    1.407   .     A
C110   C847    1.412   1_554 S
C111   C113    1.392   .     A
C111   H119    1.077   .     S
C112   H120    1.077   .     S
C112   C114    1.390   .     A
C113   N135    1.433   .     S
C113   C845    1.412   1_554 S
C114   N138    1.434   .     S
C114   C846    1.410   .     S
H115   C184    1.080   .     S
C121   N147    1.433   .     S
C121   C615    1.390   1_545 S
C121   C210    1.405   .     S
C122   N150    1.434   .     S
C122   C370    1.390   .     S
C123   H125    1.083   .     S
C123   C127    1.397   .     A
C123   C367    1.390   .     S
C124   C128    1.397   .     A
C124   H126    1.083   .     S
C124   C614    1.390   1_545 S
C127   C204    1.405   .     S
C129   C131    1.419   .     A
C129   N153    1.430   .     S
C129   N134    1.369   .     A
C130   N133    1.367   .     A
C130   N156    1.430   .     S
C130   C132    1.419   .     A
C131   N159    1.429   .     S
C131   N133    1.384   .     A
C132   N134    1.384   .     A
C132   N162    1.428   .     S
N135   H137    1.045   .     S
N135   H136    1.043   .     S
N138   H139    1.045   .     S
N138   H140    1.046   .     S
N141   H142    1.045   .     S
N141   H143    1.044   .     S
N144   H146    1.044   .     S
N144   H145    1.045   .     S
N147   H149    1.046   .     S
N147   H148    1.046   .     S
N150   H151    1.046   .     S
N150   H152    1.046   .     S
N153   O155    1.301   .     A
N153   O154    1.299   .     A
N156   O158    1.301   .     A
N156   O157    1.300   .     A
N159   H160    1.039   .     S
N159   H161    1.043   .     S
N162   H163    1.037   .     S
N162   H164    1.043   .     S
O165   C169    1.301   .     A
O165   Cu177   1.956   .     S
O166   C170    1.301   .     A
O166   Cu178   1.956   .     S
O167   Cu178   1.951   .     S
O167   C5      1.297   1_655 S
O168   Cu177   1.951   .     S
C169   C210    1.443   .     S
C170   C209    1.442   .     S
C170   O4      1.296   1_655 S
O171   Cu177   1.946   .     S
O172   Cu178   1.946   .     S
O172   C12     1.308   1_655 S
O173   Cu178   1.935   .     S
O173   C175    1.305   .     A
O174   C176    1.301   .     A
O174   Cu177   1.935   .     S
C175   C179    1.483   .     S
C175   O7      1.313   1_655 S
C176   C180    1.467   .     S
Cu177  N215    2.037   .     S
Cu178  N216    2.037   .     S
Cu178  Cu13    2.711   1_655 S
C179   C183    1.399   .     A
C179   C185    1.418   .     A
C180   C184    1.395   .     A
C180   C186    1.404   .     A
C181   C189    1.405   .     A
C181   C183    1.388   .     A
C181   H35     1.082   1_655 S
C182   C190    1.406   .     A
C182   C184    1.387   .     A
C182   H200    1.082   .     S
C183   H34     1.083   1_655 S
C185   N226    1.439   .     S
C185   C187    1.427   .     A
C186   N223    1.440   .     S
C186   C188    1.425   .     A
C187   C191    1.425   .     A
C187   C189    1.422   .     A
C188   C190    1.425   .     A
C188   C192    1.425   .     A
C189   C933    1.412   .     S
C190   C934    1.410   1_554 S
C191   C194    1.406   .     A
C191   C930    1.412   .     S
C192   C193    1.407   .     A
C192   C929    1.412   1_554 S
C193   C195    1.392   .     A
C193   H201    1.077   .     S
C194   H202    1.077   .     S
C194   C196    1.390   .     A
C195   N217    1.433   .     S
C195   C927    1.412   1_554 S
C196   N220    1.434   .     S
C196   C928    1.410   .     S
H197   C20     1.080   1_655 S
C203   N229    1.433   .     S
C203   C697    1.390   1_545 S
C203   C46     1.405   1_655 S
C204   N232    1.434   .     S
C204   C452    1.390   .     S
C205   H207    1.083   .     S
C205   C209    1.397   .     A
C205   C449    1.390   .     S
C206   C210    1.397   .     A
C206   H208    1.083   .     S
C206   C696    1.390   1_545 S
C209   C40     1.405   1_655 S
C211   C213    1.419   .     A
C211   N235    1.430   .     S
C211   N216    1.369   .     A
C212   N215    1.367   .     A
C212   N238    1.430   .     S
C212   C214    1.419   .     A
C213   N241    1.429   .     S
C213   N215    1.384   .     A
C214   N216    1.384   .     A
C214   N244    1.428   .     S
N217   H219    1.045   .     S
N217   H218    1.043   .     S
N220   H221    1.045   .     S
N220   H222    1.046   .     S
N223   H224    1.045   .     S
N223   H225    1.044   .     S
N226   H228    1.044   .     S
N226   H227    1.045   .     S
N229   H231    1.046   .     S
N229   H230    1.046   .     S
N232   H233    1.046   .     S
N232   H234    1.046   .     S
N235   O237    1.301   .     A
N235   O236    1.299   .     A
N238   O240    1.301   .     A
N238   O239    1.300   .     A
N241   H242    1.039   .     S
N241   H243    1.043   .     S
N244   H245    1.037   .     S
N244   H246    1.043   .     S
O247   C251    1.301   .     A
O247   Cu259   1.956   .     S
O248   C252    1.301   .     A
O248   Cu260   1.956   .     S
O249   Cu260   1.951   .     S
O249   C333    1.297   .     S
O250   Cu259   1.951   .     S
O250   C416    1.296   1_455 S
C251   C292    1.443   .     S
C251   O413    1.297   1_455 S
C252   C291    1.442   .     S
C252   O332    1.296   .     S
O253   Cu259   1.946   .     S
O253   C421    1.313   1_455 S
O254   Cu260   1.946   .     S
O254   C340    1.308   .     S
O255   Cu260   1.935   .     S
O255   C257    1.305   .     A
O256   C258    1.301   .     A
O256   Cu259   1.935   .     S
C257   C261    1.483   .     S
C257   O335    1.313   .     S
C258   C262    1.467   .     S
C258   O418    1.308   1_455 S
Cu259  N297    2.037   .     S
Cu259  Cu424   2.711   1_455 S
Cu260  N298    2.037   .     S
Cu260  Cu341   2.711   .     S
C261   C265    1.399   .     A
C261   C267    1.418   .     A
C262   C266    1.395   .     A
C262   C268    1.404   .     A
C263   C271    1.405   .     A
C263   C265    1.388   .     A
C263   H363    1.082   .     S
C264   C272    1.406   .     A
C264   C266    1.387   .     A
C264   H282    1.082   .     S
C265   H362    1.083   .     S
C266   H443    1.080   1_455 S
C267   N308    1.439   .     S
C267   C269    1.427   .     A
C268   N305    1.440   .     S
C268   C270    1.425   .     A
C269   C273    1.425   .     A
C269   C271    1.422   .     A
C270   C272    1.425   .     A
C270   C274    1.425   .     A
C271   C1015   1.412   .     S
C272   C1016   1.410   1_554 S
C273   C276    1.406   .     A
C273   C1012   1.412   .     S
C274   C275    1.407   .     A
C274   C1011   1.412   1_554 S
C275   C277    1.392   .     A
C275   H283    1.077   .     S
C276   H284    1.077   .     S
C276   C278    1.390   .     A
C277   N299    1.433   .     S
C277   C1009   1.412   1_554 S
C278   N302    1.434   .     S
C278   C1010   1.410   .     S
H279   C348    1.080   .     S
H280   C429    1.083   1_455 S
H281   C427    1.082   1_455 S
C285   N311    1.433   .     S
C285   C374    1.405   .     S
C286   N314    1.434   .     S
C286   C534    1.390   .     S
C286   C455    1.405   1_455 S
C287   H289    1.083   .     S
C287   C291    1.397   .     A
C287   C531    1.390   .     S
C288   C292    1.397   .     A
C288   H290    1.083   .     S
C291   C368    1.405   .     S
C292   C449    1.405   1_455 S
C293   C295    1.419   .     A
C293   N317    1.430   .     S
C293   N298    1.369   .     A
C294   N297    1.367   .     A
C294   N320    1.430   .     S
C294   C296    1.419   .     A
C295   N323    1.429   .     S
C295   N297    1.384   .     A
C296   N298    1.384   .     A
C296   N326    1.428   .     S
N299   H301    1.045   .     S
N299   H300    1.043   .     S
N302   H303    1.045   .     S
N302   H304    1.046   .     S
N305   H306    1.045   .     S
N305   H307    1.044   .     S
N308   H310    1.044   .     S
N308   H309    1.045   .     S
N311   H313    1.046   .     S
N311   H312    1.046   .     S
N314   H315    1.046   .     S
N314   H316    1.046   .     S
N317   O319    1.301   .     A
N317   O318    1.299   .     A
N320   O322    1.301   .     A
N320   O321    1.300   .     A
N323   H324    1.039   .     S
N323   H325    1.043   .     S
N326   H327    1.037   .     S
N326   H328    1.043   .     S
O329   C333    1.301   .     A
O329   Cu341   1.956   .     S
O330   C334    1.301   .     A
O330   Cu342   1.956   .     S
O331   Cu342   1.951   .     S
O331   C415    1.297   .     S
O332   Cu341   1.951   .     S
C333   C374    1.443   .     S
C334   C373    1.442   .     S
C334   O414    1.296   .     S
O335   Cu341   1.946   .     S
O336   Cu342   1.946   .     S
O336   C422    1.308   .     S
O337   Cu342   1.935   .     S
O337   C339    1.305   .     A
O338   C340    1.301   .     A
O338   Cu341   1.935   .     S
C339   C343    1.483   .     S
C339   O417    1.313   .     S
C340   C344    1.467   .     S
Cu341  N379    2.037   .     S
Cu342  N380    2.037   .     S
Cu342  Cu423   2.711   .     S
C343   C347    1.399   .     A
C343   C349    1.418   .     A
C344   C348    1.395   .     A
C344   C350    1.404   .     A
C345   C353    1.405   .     A
C345   C347    1.388   .     A
C345   H445    1.082   .     S
C346   C354    1.406   .     A
C346   C348    1.387   .     A
C346   H364    1.082   .     S
C347   H444    1.083   .     S
C349   N390    1.439   .     S
C349   C351    1.427   .     A
C350   N387    1.440   .     S
C350   C352    1.425   .     A
C351   C355    1.425   .     A
C351   C353    1.422   .     A
C352   C354    1.425   .     A
C352   C356    1.425   .     A
C353   C1097   1.412   .     S
C354   C1098   1.410   1_554 S
C355   C358    1.406   .     A
C355   C1094   1.412   .     S
C356   C357    1.407   .     A
C356   C1093   1.412   1_554 S
C357   C359    1.392   .     A
C357   H365    1.077   .     S
C358   H366    1.077   .     S
C358   C360    1.390   .     A
C359   N381    1.433   .     S
C359   C1091   1.412   1_554 S
C360   N384    1.434   .     S
C360   C1092   1.410   .     S
H361   C430    1.080   .     S
C367   N393    1.433   .     S
C367   C456    1.405   .     S
C368   N396    1.434   .     S
C368   C616    1.390   .     S
C369   H371    1.083   .     S
C369   C373    1.397   .     A
C369   C613    1.390   .     S
C370   C374    1.397   .     A
C370   H372    1.083   .     S
C373   C450    1.405   .     S
C375   C377    1.419   .     A
C375   N399    1.430   .     S
C375   N380    1.369   .     A
C376   N379    1.367   .     A
C376   N402    1.430   .     S
C376   C378    1.419   .     A
C377   N405    1.429   .     S
C377   N379    1.384   .     A
C378   N380    1.384   .     A
C378   N408    1.428   .     S
N381   H383    1.045   .     S
N381   H382    1.043   .     S
N384   H385    1.045   .     S
N384   H386    1.046   .     S
N387   H388    1.045   .     S
N387   H389    1.044   .     S
N390   H392    1.044   .     S
N390   H391    1.045   .     S
N393   H395    1.046   .     S
N393   H394    1.046   .     S
N396   H397    1.046   .     S
N396   H398    1.046   .     S
N399   O401    1.301   .     A
N399   O400    1.299   .     A
N402   O404    1.301   .     A
N402   O403    1.300   .     A
N405   H406    1.039   .     S
N405   H407    1.043   .     S
N408   H409    1.037   .     S
N408   H410    1.043   .     S
O411   C415    1.301   .     A
O411   Cu423   1.956   .     S
O412   C416    1.301   .     A
O412   Cu424   1.956   .     S
O413   Cu424   1.951   .     S
O413   C251    1.297   1_655 S
O414   Cu423   1.951   .     S
C415   C456    1.443   .     S
C416   C455    1.442   .     S
C416   O250    1.296   1_655 S
O417   Cu423   1.946   .     S
O418   Cu424   1.946   .     S
O418   C258    1.308   1_655 S
O419   Cu424   1.935   .     S
O419   C421    1.305   .     A
O420   C422    1.301   .     A
O420   Cu423   1.935   .     S
C421   C425    1.483   .     S
C421   O253    1.313   1_655 S
C422   C426    1.467   .     S
Cu423  N461    2.037   .     S
Cu424  N462    2.037   .     S
Cu424  Cu259   2.711   1_655 S
C425   C429    1.399   .     A
C425   C431    1.418   .     A
C426   C430    1.395   .     A
C426   C432    1.404   .     A
C427   C435    1.405   .     A
C427   C429    1.388   .     A
C427   H281    1.082   1_655 S
C428   C436    1.406   .     A
C428   C430    1.387   .     A
C428   H446    1.082   .     S
C429   H280    1.083   1_655 S
C431   N472    1.439   .     S
C431   C433    1.427   .     A
C432   N469    1.440   .     S
C432   C434    1.425   .     A
C433   C437    1.425   .     A
C433   C435    1.422   .     A
C434   C436    1.425   .     A
C434   C438    1.425   .     A
C435   C1179   1.412   .     S
C436   C1180   1.410   1_554 S
C437   C440    1.406   .     A
C437   C1176   1.412   .     S
C438   C439    1.407   .     A
C438   C1175   1.412   1_554 S
C439   C441    1.392   .     A
C439   H447    1.077   .     S
C440   H448    1.077   .     S
C440   C442    1.390   .     A
C441   N463    1.433   .     S
C441   C1173   1.412   1_554 S
C442   N466    1.434   .     S
C442   C1174   1.410   .     S
H443   C266    1.080   1_655 S
C449   N475    1.433   .     S
C449   C292    1.405   1_655 S
C450   N478    1.434   .     S
C450   C698    1.390   .     S
C451   H453    1.083   .     S
C451   C455    1.397   .     A
C451   C695    1.390   .     S
C452   C456    1.397   .     A
C452   H454    1.083   .     S
C455   C286    1.405   1_655 S
C457   C459    1.419   .     A
C457   N481    1.430   .     S
C457   N462    1.369   .     A
C458   N461    1.367   .     A
C458   N484    1.430   .     S
C458   C460    1.419   .     A
C459   N487    1.429   .     S
C459   N461    1.384   .     A
C460   N462    1.384   .     A
C460   N490    1.428   .     S
N463   H465    1.045   .     S
N463   H464    1.043   .     S
N466   H467    1.045   .     S
N466   H468    1.046   .     S
N469   H470    1.045   .     S
N469   H471    1.044   .     S
N472   H474    1.044   .     S
N472   H473    1.045   .     S
N475   H477    1.046   .     S
N475   H476    1.046   .     S
N478   H479    1.046   .     S
N478   H480    1.046   .     S
N481   O483    1.301   .     A
N481   O482    1.299   .     A
N484   O486    1.301   .     A
N484   O485    1.300   .     A
N487   H488    1.039   .     S
N487   H489    1.043   .     S
N490   H491    1.037   .     S
N490   H492    1.043   .     S
O493   C497    1.301   .     A
O493   Cu505   1.956   .     S
O494   C498    1.301   .     A
O494   Cu506   1.956   .     S
O495   Cu506   1.951   .     S
O495   C579    1.297   .     S
O496   Cu505   1.951   .     S
O496   C662    1.296   1_455 S
C497   C538    1.443   .     S
C497   O659    1.297   1_455 S
C498   C537    1.442   .     S
C498   O578    1.296   .     S
O499   Cu505   1.946   .     S
O499   C667    1.313   1_455 S
O500   Cu506   1.946   .     S
O500   C586    1.308   .     S
O501   Cu506   1.935   .     S
O501   C503    1.305   .     A
O502   C504    1.301   .     A
O502   Cu505   1.935   .     S
C503   C507    1.483   .     S
C503   O581    1.313   .     S
C504   C508    1.467   .     S
C504   O664    1.308   1_455 S
Cu505  N543    2.037   .     S
Cu505  Cu670   2.711   1_455 S
Cu506  N544    2.037   .     S
Cu506  Cu587   2.711   .     S
C507   C511    1.399   .     A
C507   C513    1.418   .     A
C508   C512    1.395   .     A
C508   C514    1.404   .     A
C509   C517    1.405   .     A
C509   C511    1.388   .     A
C509   H609    1.082   .     S
C510   C518    1.406   .     A
C510   C512    1.387   .     A
C510   H528    1.082   .     S
C511   H608    1.083   .     S
C512   H689    1.080   1_455 S
C513   N554    1.439   .     S
C513   C515    1.427   .     A
C514   N551    1.440   .     S
C514   C516    1.425   .     A
C515   C519    1.425   .     A
C515   C517    1.422   .     A
C516   C518    1.425   .     A
C516   C520    1.425   .     A
C517   C1261   1.412   .     S
C518   C1262   1.410   1_554 S
C519   C522    1.406   .     A
C519   C1258   1.412   .     S
C520   C521    1.407   .     A
C520   C1257   1.412   1_554 S
C521   C523    1.392   .     A
C521   H529    1.077   .     S
C522   H530    1.077   .     S
C522   C524    1.390   .     A
C523   N545    1.433   .     S
C523   C1255   1.412   1_554 S
C524   N548    1.434   .     S
C524   C1256   1.410   .     S
H525   C594    1.080   .     S
H526   C675    1.083   1_455 S
H527   C673    1.082   1_455 S
C531   N557    1.433   .     S
C531   C620    1.405   .     S
C532   N560    1.434   .     S
C532   C42     1.390   1_565 S
C532   C701    1.405   1_455 S
C533   H535    1.083   .     S
C533   C537    1.397   .     A
C533   C39     1.390   1_565 S
C534   C538    1.397   .     A
C534   H536    1.083   .     S
C537   C614    1.405   .     S
C538   C695    1.405   1_455 S
C539   C541    1.419   .     A
C539   N563    1.430   .     S
C539   N544    1.369   .     A
C540   N543    1.367   .     A
C540   N566    1.430   .     S
C540   C542    1.419   .     A
C541   N569    1.429   .     S
C541   N543    1.384   .     A
C542   N544    1.384   .     A
C542   N572    1.428   .     S
N545   H547    1.045   .     S
N545   H546    1.043   .     S
N548   H549    1.045   .     S
N548   H550    1.046   .     S
N551   H552    1.045   .     S
N551   H553    1.044   .     S
N554   H556    1.044   .     S
N554   H555    1.045   .     S
N557   H559    1.046   .     S
N557   H558    1.046   .     S
N560   H561    1.046   .     S
N560   H562    1.046   .     S
N563   O565    1.301   .     A
N563   O564    1.299   .     A
N566   O568    1.301   .     A
N566   O567    1.300   .     A
N569   H570    1.039   .     S
N569   H571    1.043   .     S
N572   H573    1.037   .     S
N572   H574    1.043   .     S
O575   C579    1.301   .     A
O575   Cu587   1.956   .     S
O576   C580    1.301   .     A
O576   Cu588   1.956   .     S
O577   Cu588   1.951   .     S
O577   C661    1.297   .     S
O578   Cu587   1.951   .     S
C579   C620    1.443   .     S
C580   C619    1.442   .     S
C580   O660    1.296   .     S
O581   Cu587   1.946   .     S
O582   Cu588   1.946   .     S
O582   C668    1.308   .     S
O583   Cu588   1.935   .     S
O583   C585    1.305   .     A
O584   C586    1.301   .     A
O584   Cu587   1.935   .     S
C585   C589    1.483   .     S
C585   O663    1.313   .     S
C586   C590    1.467   .     S
Cu587  N625    2.037   .     S
Cu588  N626    2.037   .     S
Cu588  Cu669   2.711   .     S
C589   C593    1.399   .     A
C589   C595    1.418   .     A
C590   C594    1.395   .     A
C590   C596    1.404   .     A
C591   C599    1.405   .     A
C591   C593    1.388   .     A
C591   H691    1.082   .     S
C592   C600    1.406   .     A
C592   C594    1.387   .     A
C592   H610    1.082   .     S
C593   H690    1.083   .     S
C595   N636    1.439   .     S
C595   C597    1.427   .     A
C596   N633    1.440   .     S
C596   C598    1.425   .     A
C597   C601    1.425   .     A
C597   C599    1.422   .     A
C598   C600    1.425   .     A
C598   C602    1.425   .     A
C599   C1343   1.412   .     S
C600   C1344   1.410   1_554 S
C601   C604    1.406   .     A
C601   C1340   1.412   .     S
C602   C603    1.407   .     A
C602   C1339   1.412   1_554 S
C603   C605    1.392   .     A
C603   H611    1.077   .     S
C604   H612    1.077   .     S
C604   C606    1.390   .     A
C605   N627    1.433   .     S
C605   C1337   1.412   1_554 S
C606   N630    1.434   .     S
C606   C1338   1.410   .     S
H607   C676    1.080   .     S
C613   N639    1.433   .     S
C613   C702    1.405   .     S
C614   N642    1.434   .     S
C614   C124    1.390   1_565 S
C615   H617    1.083   .     S
C615   C619    1.397   .     A
C615   C121    1.390   1_565 S
C616   C620    1.397   .     A
C616   H618    1.083   .     S
C619   C696    1.405   .     S
C621   C623    1.419   .     A
C621   N645    1.430   .     S
C621   N626    1.369   .     A
C622   N625    1.367   .     A
C622   N648    1.430   .     S
C622   C624    1.419   .     A
C623   N651    1.429   .     S
C623   N625    1.384   .     A
C624   N626    1.384   .     A
C624   N654    1.428   .     S
N627   H629    1.045   .     S
N627   H628    1.043   .     S
N630   H631    1.045   .     S
N630   H632    1.046   .     S
N633   H634    1.045   .     S
N633   H635    1.044   .     S
N636   H638    1.044   .     S
N636   H637    1.045   .     S
N639   H641    1.046   .     S
N639   H640    1.046   .     S
N642   H643    1.046   .     S
N642   H644    1.046   .     S
N645   O647    1.301   .     A
N645   O646    1.299   .     A
N648   O650    1.301   .     A
N648   O649    1.300   .     A
N651   H652    1.039   .     S
N651   H653    1.043   .     S
N654   H655    1.037   .     S
N654   H656    1.043   .     S
O657   C661    1.301   .     A
O657   Cu669   1.956   .     S
O658   C662    1.301   .     A
O658   Cu670   1.956   .     S
O659   Cu670   1.951   .     S
O659   C497    1.297   1_655 S
O660   Cu669   1.951   .     S
C661   C702    1.443   .     S
C662   C701    1.442   .     S
C662   O496    1.296   1_655 S
O663   Cu669   1.946   .     S
O664   Cu670   1.946   .     S
O664   C504    1.308   1_655 S
O665   Cu670   1.935   .     S
O665   C667    1.305   .     A
O666   C668    1.301   .     A
O666   Cu669   1.935   .     S
C667   C671    1.483   .     S
C667   O499    1.313   1_655 S
C668   C672    1.467   .     S
Cu669  N707    2.037   .     S
Cu670  N708    2.037   .     S
Cu670  Cu505   2.711   1_655 S
C671   C675    1.399   .     A
C671   C677    1.418   .     A
C672   C676    1.395   .     A
C672   C678    1.404   .     A
C673   C681    1.405   .     A
C673   C675    1.388   .     A
C673   H527    1.082   1_655 S
C674   C682    1.406   .     A
C674   C676    1.387   .     A
C674   H692    1.082   .     S
C675   H526    1.083   1_655 S
C677   N718    1.439   .     S
C677   C679    1.427   .     A
C678   N715    1.440   .     S
C678   C680    1.425   .     A
C679   C683    1.425   .     A
C679   C681    1.422   .     A
C680   C682    1.425   .     A
C680   C684    1.425   .     A
C681   C1425   1.412   .     S
C682   C1426   1.410   1_554 S
C683   C686    1.406   .     A
C683   C1422   1.412   .     S
C684   C685    1.407   .     A
C684   C1421   1.412   1_554 S
C685   C687    1.392   .     A
C685   H693    1.077   .     S
C686   H694    1.077   .     S
C686   C688    1.390   .     A
C687   N709    1.433   .     S
C687   C1419   1.412   1_554 S
C688   N712    1.434   .     S
C688   C1420   1.410   .     S
H689   C512    1.080   1_655 S
C695   N721    1.433   .     S
C695   C538    1.405   1_655 S
C696   N724    1.434   .     S
C696   C206    1.390   1_565 S
C697   H699    1.083   .     S
C697   C701    1.397   .     A
C697   C203    1.390   1_565 S
C698   C702    1.397   .     A
C698   H700    1.083   .     S
C701   C532    1.405   1_655 S
C703   C705    1.419   .     A
C703   N727    1.430   .     S
C703   N708    1.369   .     A
C704   N707    1.367   .     A
C704   N730    1.430   .     S
C704   C706    1.419   .     A
C705   N733    1.429   .     S
C705   N707    1.384   .     A
C706   N708    1.384   .     A
C706   N736    1.428   .     S
N709   H711    1.045   .     S
N709   H710    1.043   .     S
N712   H713    1.045   .     S
N712   H714    1.046   .     S
N715   H716    1.045   .     S
N715   H717    1.044   .     S
N718   H720    1.044   .     S
N718   H719    1.045   .     S
N721   H723    1.046   .     S
N721   H722    1.046   .     S
N724   H725    1.046   .     S
N724   H726    1.046   .     S
N727   O729    1.301   .     A
N727   O728    1.299   .     A
N730   O732    1.301   .     A
N730   O731    1.300   .     A
N733   H734    1.039   .     S
N733   H735    1.043   .     S
N736   H737    1.037   .     S
N736   H738    1.043   .     S
O739   C743    1.301   .     A
O739   Cu751   1.956   .     S
O740   C744    1.301   .     A
O740   Cu752   1.956   .     S
O741   Cu752   1.951   .     S
O741   C825    1.297   .     S
O742   Cu751   1.951   .     S
O742   C908    1.296   1_455 S
C743   C784    1.443   .     S
C743   O905    1.297   1_455 S
C744   C783    1.442   .     S
C744   O824    1.296   .     S
O745   Cu751   1.946   .     S
O745   C913    1.313   1_455 S
O746   Cu752   1.946   .     S
O746   C832    1.308   .     S
O747   Cu752   1.935   .     S
O747   C749    1.305   .     A
O748   C750    1.301   .     A
O748   Cu751   1.935   .     S
C749   C753    1.483   .     S
C749   O827    1.313   .     S
C750   C754    1.467   .     S
C750   O910    1.308   1_455 S
Cu751  N789    2.037   .     S
Cu751  Cu916   2.711   1_455 S
Cu752  N790    2.037   .     S
Cu752  Cu833   2.711   .     S
C753   C757    1.399   .     A
C753   C759    1.418   .     A
C754   C758    1.395   .     A
C754   C760    1.404   .     A
C755   C763    1.405   .     A
C755   C757    1.388   .     A
C755   H855    1.082   .     S
C756   C764    1.406   .     A
C756   C758    1.387   .     A
C756   H774    1.082   .     S
C757   H854    1.083   .     S
C758   H935    1.080   1_455 S
C759   N800    1.439   .     S
C759   C761    1.427   .     A
C760   N797    1.440   .     S
C760   C762    1.425   .     A
C761   C765    1.425   .     A
C761   C763    1.422   .     A
C762   C764    1.425   .     A
C762   C766    1.425   .     A
C763   C31     1.412   1_556 S
C765   C768    1.406   .     A
C765   C28     1.412   1_556 S
C766   C767    1.407   .     A
C767   C769    1.392   .     A
C767   H775    1.077   .     S
C768   H776    1.077   .     S
C768   C770    1.390   .     A
C769   N791    1.433   .     S
C770   N794    1.434   .     S
C770   C26     1.410   1_556 S
H771   C840    1.080   .     S
H772   C921    1.083   1_455 S
H773   C919    1.082   1_455 S
C777   N803    1.433   .     S
C777   C1271   1.390   1_545 S
C777   C866    1.405   .     S
C778   N806    1.434   .     S
C778   C1026   1.390   .     S
C778   C947    1.405   1_455 S
C779   H781    1.083   .     S
C779   C783    1.397   .     A
C779   C1023   1.390   .     S
C780   C784    1.397   .     A
C780   H782    1.083   .     S
C780   C1270   1.390   1_545 S
C783   C860    1.405   .     S
C784   C941    1.405   1_455 S
C785   C787    1.419   .     A
C785   N809    1.430   .     S
C785   N790    1.369   .     A
C786   N789    1.367   .     A
C786   N812    1.430   .     S
C786   C788    1.419   .     A
C787   N815    1.429   .     S
C787   N789    1.384   .     A
C788   N790    1.384   .     A
C788   N818    1.428   .     S
N791   H793    1.045   .     S
N791   H792    1.043   .     S
N794   H795    1.045   .     S
N794   H796    1.046   .     S
N797   H798    1.045   .     S
N797   H799    1.044   .     S
N800   H802    1.044   .     S
N800   H801    1.045   .     S
N803   H805    1.046   .     S
N803   H804    1.046   .     S
N806   H807    1.046   .     S
N806   H808    1.046   .     S
N809   O811    1.301   .     A
N809   O810    1.299   .     A
N812   O814    1.301   .     A
N812   O813    1.300   .     A
N815   H816    1.039   .     S
N815   H817    1.043   .     S
N818   H819    1.037   .     S
N818   H820    1.043   .     S
O821   C825    1.301   .     A
O821   Cu833   1.956   .     S
O822   C826    1.301   .     A
O822   Cu834   1.956   .     S
O823   Cu834   1.951   .     S
O823   C907    1.297   .     S
O824   Cu833   1.951   .     S
C825   C866    1.443   .     S
C826   C865    1.442   .     S
C826   O906    1.296   .     S
O827   Cu833   1.946   .     S
O828   Cu834   1.946   .     S
O828   C914    1.308   .     S
O829   Cu834   1.935   .     S
O829   C831    1.305   .     A
O830   C832    1.301   .     A
O830   Cu833   1.935   .     S
C831   C835    1.483   .     S
C831   O909    1.313   .     S
C832   C836    1.467   .     S
Cu833  N871    2.037   .     S
Cu834  N872    2.037   .     S
Cu834  Cu915   2.711   .     S
C835   C839    1.399   .     A
C835   C841    1.418   .     A
C836   C840    1.395   .     A
C836   C842    1.404   .     A
C837   C845    1.405   .     A
C837   C839    1.388   .     A
C837   H937    1.082   .     S
C838   C846    1.406   .     A
C838   C840    1.387   .     A
C838   H856    1.082   .     S
C839   H936    1.083   .     S
C841   N882    1.439   .     S
C841   C843    1.427   .     A
C842   N879    1.440   .     S
C842   C844    1.425   .     A
C843   C847    1.425   .     A
C843   C845    1.422   .     A
C844   C846    1.425   .     A
C844   C848    1.425   .     A
C845   C113    1.412   1_556 S
C847   C850    1.406   .     A
C847   C110    1.412   1_556 S
C848   C849    1.407   .     A
C849   C851    1.392   .     A
C849   H857    1.077   .     S
C850   H858    1.077   .     S
C850   C852    1.390   .     A
C851   N873    1.433   .     S
C852   N876    1.434   .     S
C852   C108    1.410   1_556 S
H853   C922    1.080   .     S
C859   N885    1.433   .     S
C859   C1353   1.390   1_545 S
C859   C948    1.405   .     S
C860   N888    1.434   .     S
C860   C1108   1.390   .     S
C861   H863    1.083   .     S
C861   C865    1.397   .     A
C861   C1105   1.390   .     S
C862   C866    1.397   .     A
C862   H864    1.083   .     S
C862   C1352   1.390   1_545 S
C865   C942    1.405   .     S
C867   C869    1.419   .     A
C867   N891    1.430   .     S
C867   N872    1.369   .     A
C868   N871    1.367   .     A
C868   N894    1.430   .     S
C868   C870    1.419   .     A
C869   N897    1.429   .     S
C869   N871    1.384   .     A
C870   N872    1.384   .     A
C870   N900    1.428   .     S
N873   H875    1.045   .     S
N873   H874    1.043   .     S
N876   H877    1.045   .     S
N876   H878    1.046   .     S
N879   H880    1.045   .     S
N879   H881    1.044   .     S
N882   H884    1.044   .     S
N882   H883    1.045   .     S
N885   H887    1.046   .     S
N885   H886    1.046   .     S
N888   H889    1.046   .     S
N888   H890    1.046   .     S
N891   O893    1.301   .     A
N891   O892    1.299   .     A
N894   O896    1.301   .     A
N894   O895    1.300   .     A
N897   H898    1.039   .     S
N897   H899    1.043   .     S
N900   H901    1.037   .     S
N900   H902    1.043   .     S
O903   C907    1.301   .     A
O903   Cu915   1.956   .     S
O904   C908    1.301   .     A
O904   Cu916   1.956   .     S
O905   Cu916   1.951   .     S
O905   C743    1.297   1_655 S
O906   Cu915   1.951   .     S
C907   C948    1.443   .     S
C908   C947    1.442   .     S
C908   O742    1.296   1_655 S
O909   Cu915   1.946   .     S
O910   Cu916   1.946   .     S
O910   C750    1.308   1_655 S
O911   Cu916   1.935   .     S
O911   C913    1.305   .     A
O912   C914    1.301   .     A
O912   Cu915   1.935   .     S
C913   C917    1.483   .     S
C913   O745    1.313   1_655 S
C914   C918    1.467   .     S
Cu915  N953    2.037   .     S
Cu916  N954    2.037   .     S
Cu916  Cu751   2.711   1_655 S
C917   C921    1.399   .     A
C917   C923    1.418   .     A
C918   C922    1.395   .     A
C918   C924    1.404   .     A
C919   C927    1.405   .     A
C919   C921    1.388   .     A
C919   H773    1.082   1_655 S
C920   C928    1.406   .     A
C920   C922    1.387   .     A
C920   H938    1.082   .     S
C921   H772    1.083   1_655 S
C923   N964    1.439   .     S
C923   C925    1.427   .     A
C924   N961    1.440   .     S
C924   C926    1.425   .     A
C925   C929    1.425   .     A
C925   C927    1.422   .     A
C926   C928    1.425   .     A
C926   C930    1.425   .     A
C927   C195    1.412   1_556 S
C929   C932    1.406   .     A
C929   C192    1.412   1_556 S
C930   C931    1.407   .     A
C931   C933    1.392   .     A
C931   H939    1.077   .     S
C932   H940    1.077   .     S
C932   C934    1.390   .     A
C933   N955    1.433   .     S
C934   N958    1.434   .     S
C934   C190    1.410   1_556 S
H935   C758    1.080   1_655 S
C941   N967    1.433   .     S
C941   C1435   1.390   1_545 S
C941   C784    1.405   1_655 S
C942   N970    1.434   .     S
C942   C1190   1.390   .     S
C943   H945    1.083   .     S
C943   C947    1.397   .     A
C943   C1187   1.390   .     S
C944   C948    1.397   .     A
C944   H946    1.083   .     S
C944   C1434   1.390   1_545 S
C947   C778    1.405   1_655 S
C949   C951    1.419   .     A
C949   N973    1.430   .     S
C949   N954    1.369   .     A
C950   N953    1.367   .     A
C950   N976    1.430   .     S
C950   C952    1.419   .     A
C951   N979    1.429   .     S
C951   N953    1.384   .     A
C952   N954    1.384   .     A
C952   N982    1.428   .     S
N955   H957    1.045   .     S
N955   H956    1.043   .     S
N958   H959    1.045   .     S
N958   H960    1.046   .     S
N961   H962    1.045   .     S
N961   H963    1.044   .     S
N964   H966    1.044   .     S
N964   H965    1.045   .     S
N967   H969    1.046   .     S
N967   H968    1.046   .     S
N970   H971    1.046   .     S
N970   H972    1.046   .     S
N973   O975    1.301   .     A
N973   O974    1.299   .     A
N976   O978    1.301   .     A
N976   O977    1.300   .     A
N979   H980    1.039   .     S
N979   H981    1.043   .     S
N982   H983    1.037   .     S
N982   H984    1.043   .     S
O985   C989    1.301   .     A
O985   Cu997   1.956   .     S
O986   C990    1.301   .     A
O986   Cu998   1.956   .     S
O987   Cu998   1.951   .     S
O987   C1071   1.297   .     S
O988   Cu997   1.951   .     S
O988   C1154   1.296   1_455 S
C989   C1030   1.443   .     S
C989   O1151   1.297   1_455 S
C990   C1029   1.442   .     S
C990   O1070   1.296   .     S
O991   Cu997   1.946   .     S
O991   C1159   1.313   1_455 S
O992   Cu998   1.946   .     S
O992   C1078   1.308   .     S
O993   Cu998   1.935   .     S
O993   C995    1.305   .     A
O994   C996    1.301   .     A
O994   Cu997   1.935   .     S
C995   C999    1.483   .     S
C995   O1073   1.313   .     S
C996   C1000   1.467   .     S
C996   O1156   1.308   1_455 S
Cu997  N1035   2.037   .     S
Cu997  Cu1162  2.711   1_455 S
Cu998  N1036   2.037   .     S
Cu998  Cu1079  2.711   .     S
C999   C1003   1.399   .     A
C999   C1005   1.418   .     A
C1000  C1004   1.395   .     A
C1000  C1006   1.404   .     A
C1001  C1009   1.405   .     A
C1001  C1003   1.388   .     A
C1001  H1101   1.082   .     S
C1002  C1010   1.406   .     A
C1002  C1004   1.387   .     A
C1002  H1020   1.082   .     S
C1003  H1100   1.083   .     S
C1004  H1181   1.080   1_455 S
C1005  N1046   1.439   .     S
C1005  C1007   1.427   .     A
C1006  N1043   1.440   .     S
C1006  C1008   1.425   .     A
C1007  C1011   1.425   .     A
C1007  C1009   1.422   .     A
C1008  C1010   1.425   .     A
C1008  C1012   1.425   .     A
C1009  C277    1.412   1_556 S
C1011  C1014   1.406   .     A
C1011  C274    1.412   1_556 S
C1012  C1013   1.407   .     A
C1013  C1015   1.392   .     A
C1013  H1021   1.077   .     S
C1014  H1022   1.077   .     S
C1014  C1016   1.390   .     A
C1015  N1037   1.433   .     S
C1016  N1040   1.434   .     S
C1016  C272    1.410   1_556 S
H1017  C1086   1.080   .     S
H1018  C1167   1.083   1_455 S
H1019  C1165   1.082   1_455 S
C1023  N1049   1.433   .     S
C1023  C1112   1.405   .     S
C1024  N1052   1.434   .     S
C1024  C1272   1.390   .     S
C1024  C1193   1.405   1_455 S
C1025  H1027   1.083   .     S
C1025  C1029   1.397   .     A
C1025  C1269   1.390   .     S
C1026  C1030   1.397   .     A
C1026  H1028   1.083   .     S
C1029  C1106   1.405   .     S
C1030  C1187   1.405   1_455 S
C1031  C1033   1.419   .     A
C1031  N1055   1.430   .     S
C1031  N1036   1.369   .     A
C1032  N1035   1.367   .     A
C1032  N1058   1.430   .     S
C1032  C1034   1.419   .     A
C1033  N1061   1.429   .     S
C1033  N1035   1.384   .     A
C1034  N1036   1.384   .     A
C1034  N1064   1.428   .     S
N1037  H1039   1.045   .     S
N1037  H1038   1.043   .     S
N1040  H1041   1.045   .     S
N1040  H1042   1.046   .     S
N1043  H1044   1.045   .     S
N1043  H1045   1.044   .     S
N1046  H1048   1.044   .     S
N1046  H1047   1.045   .     S
N1049  H1051   1.046   .     S
N1049  H1050   1.046   .     S
N1052  H1053   1.046   .     S
N1052  H1054   1.046   .     S
N1055  O1057   1.301   .     A
N1055  O1056   1.299   .     A
N1058  O1060   1.301   .     A
N1058  O1059   1.300   .     A
N1061  H1062   1.039   .     S
N1061  H1063   1.043   .     S
N1064  H1065   1.037   .     S
N1064  H1066   1.043   .     S
O1067  C1071   1.301   .     A
O1067  Cu1079  1.956   .     S
O1068  C1072   1.301   .     A
O1068  Cu1080  1.956   .     S
O1069  Cu1080  1.951   .     S
O1069  C1153   1.297   .     S
O1070  Cu1079  1.951   .     S
C1071  C1112   1.443   .     S
C1072  C1111   1.442   .     S
C1072  O1152   1.296   .     S
O1073  Cu1079  1.946   .     S
O1074  Cu1080  1.946   .     S
O1074  C1160   1.308   .     S
O1075  Cu1080  1.935   .     S
O1075  C1077   1.305   .     A
O1076  C1078   1.301   .     A
O1076  Cu1079  1.935   .     S
C1077  C1081   1.483   .     S
C1077  O1155   1.313   .     S
C1078  C1082   1.467   .     S
Cu1079 N1117   2.037   .     S
Cu1080 N1118   2.037   .     S
Cu1080 Cu1161  2.711   .     S
C1081  C1085   1.399   .     A
C1081  C1087   1.418   .     A
C1082  C1086   1.395   .     A
C1082  C1088   1.404   .     A
C1083  C1091   1.405   .     A
C1083  C1085   1.388   .     A
C1083  H1183   1.082   .     S
C1084  C1092   1.406   .     A
C1084  C1086   1.387   .     A
C1084  H1102   1.082   .     S
C1085  H1182   1.083   .     S
C1087  N1128   1.439   .     S
C1087  C1089   1.427   .     A
C1088  N1125   1.440   .     S
C1088  C1090   1.425   .     A
C1089  C1093   1.425   .     A
C1089  C1091   1.422   .     A
C1090  C1092   1.425   .     A
C1090  C1094   1.425   .     A
C1091  C359    1.412   1_556 S
C1093  C1096   1.406   .     A
C1093  C356    1.412   1_556 S
C1094  C1095   1.407   .     A
C1095  C1097   1.392   .     A
C1095  H1103   1.077   .     S
C1096  H1104   1.077   .     S
C1096  C1098   1.390   .     A
C1097  N1119   1.433   .     S
C1098  N1122   1.434   .     S
C1098  C354    1.410   1_556 S
H1099  C1168   1.080   .     S
C1105  N1131   1.433   .     S
C1105  C1194   1.405   .     S
C1106  N1134   1.434   .     S
C1106  C1354   1.390   .     S
C1107  H1109   1.083   .     S
C1107  C1111   1.397   .     A
C1107  C1351   1.390   .     S
C1108  C1112   1.397   .     A
C1108  H1110   1.083   .     S
C1111  C1188   1.405   .     S
C1113  C1115   1.419   .     A
C1113  N1137   1.430   .     S
C1113  N1118   1.369   .     A
C1114  N1117   1.367   .     A
C1114  N1140   1.430   .     S
C1114  C1116   1.419   .     A
C1115  N1143   1.429   .     S
C1115  N1117   1.384   .     A
C1116  N1118   1.384   .     A
C1116  N1146   1.428   .     S
N1119  H1121   1.045   .     S
N1119  H1120   1.043   .     S
N1122  H1123   1.045   .     S
N1122  H1124   1.046   .     S
N1125  H1126   1.045   .     S
N1125  H1127   1.044   .     S
N1128  H1130   1.044   .     S
N1128  H1129   1.045   .     S
N1131  H1133   1.046   .     S
N1131  H1132   1.046   .     S
N1134  H1135   1.046   .     S
N1134  H1136   1.046   .     S
N1137  O1139   1.301   .     A
N1137  O1138   1.299   .     A
N1140  O1142   1.301   .     A
N1140  O1141   1.300   .     A
N1143  H1144   1.039   .     S
N1143  H1145   1.043   .     S
N1146  H1147   1.037   .     S
N1146  H1148   1.043   .     S
O1149  C1153   1.301   .     A
O1149  Cu1161  1.956   .     S
O1150  C1154   1.301   .     A
O1150  Cu1162  1.956   .     S
O1151  Cu1162  1.951   .     S
O1151  C989    1.297   1_655 S
O1152  Cu1161  1.951   .     S
C1153  C1194   1.443   .     S
C1154  C1193   1.442   .     S
C1154  O988    1.296   1_655 S
O1155  Cu1161  1.946   .     S
O1156  Cu1162  1.946   .     S
O1156  C996    1.308   1_655 S
O1157  Cu1162  1.935   .     S
O1157  C1159   1.305   .     A
O1158  C1160   1.301   .     A
O1158  Cu1161  1.935   .     S
C1159  C1163   1.483   .     S
C1159  O991    1.313   1_655 S
C1160  C1164   1.467   .     S
Cu1161 N1199   2.037   .     S
Cu1162 N1200   2.037   .     S
Cu1162 Cu997   2.711   1_655 S
C1163  C1167   1.399   .     A
C1163  C1169   1.418   .     A
C1164  C1168   1.395   .     A
C1164  C1170   1.404   .     A
C1165  C1173   1.405   .     A
C1165  C1167   1.388   .     A
C1165  H1019   1.082   1_655 S
C1166  C1174   1.406   .     A
C1166  C1168   1.387   .     A
C1166  H1184   1.082   .     S
C1167  H1018   1.083   1_655 S
C1169  N1210   1.439   .     S
C1169  C1171   1.427   .     A
C1170  N1207   1.440   .     S
C1170  C1172   1.425   .     A
C1171  C1175   1.425   .     A
C1171  C1173   1.422   .     A
C1172  C1174   1.425   .     A
C1172  C1176   1.425   .     A
C1173  C441    1.412   1_556 S
C1175  C1178   1.406   .     A
C1175  C438    1.412   1_556 S
C1176  C1177   1.407   .     A
C1177  C1179   1.392   .     A
C1177  H1185   1.077   .     S
C1178  H1186   1.077   .     S
C1178  C1180   1.390   .     A
C1179  N1201   1.433   .     S
C1180  N1204   1.434   .     S
C1180  C436    1.410   1_556 S
H1181  C1004   1.080   1_655 S
C1187  N1213   1.433   .     S
C1187  C1030   1.405   1_655 S
C1188  N1216   1.434   .     S
C1188  C1436   1.390   .     S
C1189  H1191   1.083   .     S
C1189  C1193   1.397   .     A
C1189  C1433   1.390   .     S
C1190  C1194   1.397   .     A
C1190  H1192   1.083   .     S
C1193  C1024   1.405   1_655 S
C1195  C1197   1.419   .     A
C1195  N1219   1.430   .     S
C1195  N1200   1.369   .     A
C1196  N1199   1.367   .     A
C1196  N1222   1.430   .     S
C1196  C1198   1.419   .     A
C1197  N1225   1.429   .     S
C1197  N1199   1.384   .     A
C1198  N1200   1.384   .     A
C1198  N1228   1.428   .     S
N1201  H1203   1.045   .     S
N1201  H1202   1.043   .     S
N1204  H1205   1.045   .     S
N1204  H1206   1.046   .     S
N1207  H1208   1.045   .     S
N1207  H1209   1.044   .     S
N1210  H1212   1.044   .     S
N1210  H1211   1.045   .     S
N1213  H1215   1.046   .     S
N1213  H1214   1.046   .     S
N1216  H1217   1.046   .     S
N1216  H1218   1.046   .     S
N1219  O1221   1.301   .     A
N1219  O1220   1.299   .     A
N1222  O1224   1.301   .     A
N1222  O1223   1.300   .     A
N1225  H1226   1.039   .     S
N1225  H1227   1.043   .     S
N1228  H1229   1.037   .     S
N1228  H1230   1.043   .     S
O1231  C1235   1.301   .     A
O1231  Cu1243  1.956   .     S
O1232  C1236   1.301   .     A
O1232  Cu1244  1.956   .     S
O1233  Cu1244  1.951   .     S
O1233  C1317   1.297   .     S
O1234  Cu1243  1.951   .     S
O1234  C1400   1.296   1_455 S
C1235  C1276   1.443   .     S
C1235  O1397   1.297   1_455 S
C1236  C1275   1.442   .     S
C1236  O1316   1.296   .     S
O1237  Cu1243  1.946   .     S
O1237  C1405   1.313   1_455 S
O1238  Cu1244  1.946   .     S
O1238  C1324   1.308   .     S
O1239  Cu1244  1.935   .     S
O1239  C1241   1.305   .     A
O1240  C1242   1.301   .     A
O1240  Cu1243  1.935   .     S
C1241  C1245   1.483   .     S
C1241  O1319   1.313   .     S
C1242  C1246   1.467   .     S
C1242  O1402   1.308   1_455 S
Cu1243 N1281   2.037   .     S
Cu1243 Cu1408  2.711   1_455 S
Cu1244 N1282   2.037   .     S
Cu1244 Cu1325  2.711   .     S
C1245  C1249   1.399   .     A
C1245  C1251   1.418   .     A
C1246  C1250   1.395   .     A
C1246  C1252   1.404   .     A
C1247  C1255   1.405   .     A
C1247  C1249   1.388   .     A
C1247  H1347   1.082   .     S
C1248  C1256   1.406   .     A
C1248  C1250   1.387   .     A
C1248  H1266   1.082   .     S
C1249  H1346   1.083   .     S
C1250  H1427   1.080   1_455 S
C1251  N1292   1.439   .     S
C1251  C1253   1.427   .     A
C1252  N1289   1.440   .     S
C1252  C1254   1.425   .     A
C1253  C1257   1.425   .     A
C1253  C1255   1.422   .     A
C1254  C1256   1.425   .     A
C1254  C1258   1.425   .     A
C1255  C523    1.412   1_556 S
C1257  C1260   1.406   .     A
C1257  C520    1.412   1_556 S
C1258  C1259   1.407   .     A
C1259  C1261   1.392   .     A
C1259  H1267   1.077   .     S
C1260  H1268   1.077   .     S
C1260  C1262   1.390   .     A
C1261  N1283   1.433   .     S
C1262  N1286   1.434   .     S
C1262  C518    1.410   1_556 S
H1263  C1332   1.080   .     S
H1264  C1413   1.083   1_455 S
H1265  C1411   1.082   1_455 S
C1269  N1295   1.433   .     S
C1269  C1358   1.405   .     S
C1270  N1298   1.434   .     S
C1270  C780    1.390   1_565 S
C1270  C1439   1.405   1_455 S
C1271  H1273   1.083   .     S
C1271  C1275   1.397   .     A
C1271  C777    1.390   1_565 S
C1272  C1276   1.397   .     A
C1272  H1274   1.083   .     S
C1275  C1352   1.405   .     S
C1276  C1433   1.405   1_455 S
C1277  C1279   1.419   .     A
C1277  N1301   1.430   .     S
C1277  N1282   1.369   .     A
C1278  N1281   1.367   .     A
C1278  N1304   1.430   .     S
C1278  C1280   1.419   .     A
C1279  N1307   1.429   .     S
C1279  N1281   1.384   .     A
C1280  N1282   1.384   .     A
C1280  N1310   1.428   .     S
N1283  H1285   1.045   .     S
N1283  H1284   1.043   .     S
N1286  H1287   1.045   .     S
N1286  H1288   1.046   .     S
N1289  H1290   1.045   .     S
N1289  H1291   1.044   .     S
N1292  H1294   1.044   .     S
N1292  H1293   1.045   .     S
N1295  H1297   1.046   .     S
N1295  H1296   1.046   .     S
N1298  H1299   1.046   .     S
N1298  H1300   1.046   .     S
N1301  O1303   1.301   .     A
N1301  O1302   1.299   .     A
N1304  O1306   1.301   .     A
N1304  O1305   1.300   .     A
N1307  H1308   1.039   .     S
N1307  H1309   1.043   .     S
N1310  H1311   1.037   .     S
N1310  H1312   1.043   .     S
O1313  C1317   1.301   .     A
O1313  Cu1325  1.956   .     S
O1314  C1318   1.301   .     A
O1314  Cu1326  1.956   .     S
O1315  Cu1326  1.951   .     S
O1315  C1399   1.297   .     S
O1316  Cu1325  1.951   .     S
C1317  C1358   1.443   .     S
C1318  C1357   1.442   .     S
C1318  O1398   1.296   .     S
O1319  Cu1325  1.946   .     S
O1320  Cu1326  1.946   .     S
O1320  C1406   1.308   .     S
O1321  Cu1326  1.935   .     S
O1321  C1323   1.305   .     A
O1322  C1324   1.301   .     A
O1322  Cu1325  1.935   .     S
C1323  C1327   1.483   .     S
C1323  O1401   1.313   .     S
C1324  C1328   1.467   .     S
Cu1325 N1363   2.037   .     S
Cu1326 N1364   2.037   .     S
Cu1326 Cu1407  2.711   .     S
C1327  C1331   1.399   .     A
C1327  C1333   1.418   .     A
C1328  C1332   1.395   .     A
C1328  C1334   1.404   .     A
C1329  C1337   1.405   .     A
C1329  C1331   1.388   .     A
C1329  H1429   1.082   .     S
C1330  C1338   1.406   .     A
C1330  C1332   1.387   .     A
C1330  H1348   1.082   .     S
C1331  H1428   1.083   .     S
C1333  N1374   1.439   .     S
C1333  C1335   1.427   .     A
C1334  N1371   1.440   .     S
C1334  C1336   1.425   .     A
C1335  C1339   1.425   .     A
C1335  C1337   1.422   .     A
C1336  C1338   1.425   .     A
C1336  C1340   1.425   .     A
C1337  C605    1.412   1_556 S
C1339  C1342   1.406   .     A
C1339  C602    1.412   1_556 S
C1340  C1341   1.407   .     A
C1341  C1343   1.392   .     A
C1341  H1349   1.077   .     S
C1342  H1350   1.077   .     S
C1342  C1344   1.390   .     A
C1343  N1365   1.433   .     S
C1344  N1368   1.434   .     S
C1344  C600    1.410   1_556 S
H1345  C1414   1.080   .     S
C1351  N1377   1.433   .     S
C1351  C1440   1.405   .     S
C1352  N1380   1.434   .     S
C1352  C862    1.390   1_565 S
C1353  H1355   1.083   .     S
C1353  C1357   1.397   .     A
C1353  C859    1.390   1_565 S
C1354  C1358   1.397   .     A
C1354  H1356   1.083   .     S
C1357  C1434   1.405   .     S
C1359  C1361   1.419   .     A
C1359  N1383   1.430   .     S
C1359  N1364   1.369   .     A
C1360  N1363   1.367   .     A
C1360  N1386   1.430   .     S
C1360  C1362   1.419   .     A
C1361  N1389   1.429   .     S
C1361  N1363   1.384   .     A
C1362  N1364   1.384   .     A
C1362  N1392   1.428   .     S
N1365  H1367   1.045   .     S
N1365  H1366   1.043   .     S
N1368  H1369   1.045   .     S
N1368  H1370   1.046   .     S
N1371  H1372   1.045   .     S
N1371  H1373   1.044   .     S
N1374  H1376   1.044   .     S
N1374  H1375   1.045   .     S
N1377  H1379   1.046   .     S
N1377  H1378   1.046   .     S
N1380  H1381   1.046   .     S
N1380  H1382   1.046   .     S
N1383  O1385   1.301   .     A
N1383  O1384   1.299   .     A
N1386  O1388   1.301   .     A
N1386  O1387   1.300   .     A
N1389  H1390   1.039   .     S
N1389  H1391   1.043   .     S
N1392  H1393   1.037   .     S
N1392  H1394   1.043   .     S
O1395  C1399   1.301   .     A
O1395  Cu1407  1.956   .     S
O1396  C1400   1.301   .     A
O1396  Cu1408  1.956   .     S
O1397  Cu1408  1.951   .     S
O1397  C1235   1.297   1_655 S
O1398  Cu1407  1.951   .     S
C1399  C1440   1.443   .     S
C1400  C1439   1.442   .     S
C1400  O1234   1.296   1_655 S
O1401  Cu1407  1.946   .     S
O1402  Cu1408  1.946   .     S
O1402  C1242   1.308   1_655 S
O1403  Cu1408  1.935   .     S
O1403  C1405   1.305   .     A
O1404  C1406   1.301   .     A
O1404  Cu1407  1.935   .     S
C1405  C1409   1.483   .     S
C1405  O1237   1.313   1_655 S
C1406  C1410   1.467   .     S
Cu1407 N1445   2.037   .     S
Cu1408 N1446   2.037   .     S
Cu1408 Cu1243  2.711   1_655 S
C1409  C1413   1.399   .     A
C1409  C1415   1.418   .     A
C1410  C1414   1.395   .     A
C1410  C1416   1.404   .     A
C1411  C1419   1.405   .     A
C1411  C1413   1.388   .     A
C1411  H1265   1.082   1_655 S
C1412  C1420   1.406   .     A
C1412  C1414   1.387   .     A
C1412  H1430   1.082   .     S
C1413  H1264   1.083   1_655 S
C1415  N1456   1.439   .     S
C1415  C1417   1.427   .     A
C1416  N1453   1.440   .     S
C1416  C1418   1.425   .     A
C1417  C1421   1.425   .     A
C1417  C1419   1.422   .     A
C1418  C1420   1.425   .     A
C1418  C1422   1.425   .     A
C1419  C687    1.412   1_556 S
C1421  C1424   1.406   .     A
C1421  C684    1.412   1_556 S
C1422  C1423   1.407   .     A
C1423  C1425   1.392   .     A
C1423  H1431   1.077   .     S
C1424  H1432   1.077   .     S
C1424  C1426   1.390   .     A
C1425  N1447   1.433   .     S
C1426  N1450   1.434   .     S
C1426  C682    1.410   1_556 S
H1427  C1250   1.080   1_655 S
C1433  N1459   1.433   .     S
C1433  C1276   1.405   1_655 S
C1434  N1462   1.434   .     S
C1434  C944    1.390   1_565 S
C1435  H1437   1.083   .     S
C1435  C1439   1.397   .     A
C1435  C941    1.390   1_565 S
C1436  C1440   1.397   .     A
C1436  H1438   1.083   .     S
C1439  C1270   1.405   1_655 S
C1441  C1443   1.419   .     A
C1441  N1465   1.430   .     S
C1441  N1446   1.369   .     A
C1442  N1445   1.367   .     A
C1442  N1468   1.430   .     S
C1442  C1444   1.419   .     A
C1443  N1471   1.429   .     S
C1443  N1445   1.384   .     A
C1444  N1446   1.384   .     A
C1444  N1474   1.428   .     S
N1447  H1449   1.045   .     S
N1447  H1448   1.043   .     S
N1450  H1451   1.045   .     S
N1450  H1452   1.046   .     S
N1453  H1454   1.045   .     S
N1453  H1455   1.044   .     S
N1456  H1458   1.044   .     S
N1456  H1457   1.045   .     S
N1459  H1461   1.046   .     S
N1459  H1460   1.046   .     S
N1462  H1463   1.046   .     S
N1462  H1464   1.046   .     S
N1465  O1467   1.301   .     A
N1465  O1466   1.299   .     A
N1468  O1470   1.301   .     A
N1468  O1469   1.300   .     A
N1471  H1472   1.039   .     S
N1471  H1473   1.043   .     S
N1474  H1475   1.037   .     S
N1474  H1476   1.043   .     S
