data_str_m2_o2_o5_pcu_sym.77
_audit_creation_date              2020-01-03
_audit_creation_method            'Materials Studio'
_symmetry_space_group_name_H-M    'P1'
_symmetry_Int_Tables_number       1
_symmetry_cell_setting            triclinic
loop_
_symmetry_equiv_pos_as_xyz
  x,y,z
_cell_length_a                    30.4296
_cell_length_b                    27.7440
_cell_length_c                    27.2939
_cell_angle_alpha                 89.4202
_cell_angle_beta                  90.9415
_cell_angle_gamma                 90.1408
loop_
_atom_site_label
_atom_site_type_symbol
_atom_site_fract_x
_atom_site_fract_y
_atom_site_fract_z
_atom_site_U_iso_or_equiv
_atom_site_adp_type
_atom_site_occupancy
Br1    Br    0.12538   0.31691   0.08212   0.00000  Uiso   1.00
Br2    Br    0.38174   0.14122   0.16490   0.00000  Uiso   1.00
Br3    Br    0.38352   0.34816   0.12028   0.00000  Uiso   1.00
Br4    Br    0.12372   0.18213   0.24780   0.00000  Uiso   1.00
C5     C     0.16519   0.24996   0.16641   0.00000  Uiso   1.00
C6     C     0.28939   0.44650   0.16706   0.00000  Uiso   1.00
C7     C     0.24990   0.25015   0.07350   0.00000  Uiso   1.00
C8     C     0.25000   0.24985   0.25983   0.00000  Uiso   1.00
C9     C     0.24952   0.02760   0.16738   0.00000  Uiso   1.00
C10    C     0.24963   0.47294   0.16731   0.00000  Uiso   1.00
C11    C     0.24989   0.25020   0.02182   0.00000  Uiso   1.00
C12    C     0.24992   0.24979   0.31151   0.00000  Uiso   1.00
C13    C     0.04892   0.27816   0.12827   0.00000  Uiso   1.00
C14    C     0.45375   0.20541   0.15736   0.00000  Uiso   1.00
C15    C     0.45301   0.29294   0.16058   0.00000  Uiso   1.00
C16    C     0.33521   0.24980   0.16371   0.00000  Uiso   1.00
C17    C     0.04817   0.22153   0.19777   0.00000  Uiso   1.00
C18    C     0.09475   0.27855   0.13022   0.00000  Uiso   1.00
C19    C     0.40789   0.20468   0.16072   0.00000  Uiso   1.00
C20    C     0.40774   0.29206   0.15225   0.00000  Uiso   1.00
C21    C     0.09404   0.22110   0.19854   0.00000  Uiso   1.00
C22    C     0.11735   0.24991   0.16513   0.00000  Uiso   1.00
C23    C     0.38388   0.24876   0.15894   0.00000  Uiso   1.00
C24    C     0.02524   0.24993   0.16242   0.00000  Uiso   1.00
C25    C     0.47665   0.24944   0.16078   0.00000  Uiso   1.00
C26    C     0.01273   0.28405   0.05438   0.00000  Uiso   1.00
C27    C     0.27595   0.10475   0.19930   0.00000  Uiso   1.00
C28    C     0.49356   0.32005   0.01750   0.00000  Uiso   1.00
C29    C     0.48517   0.15283   0.10499   0.00000  Uiso   1.00
C30    C     0.00387   0.10228   0.10107   0.00000  Uiso   1.00
C31    C     0.48124   0.34863   0.21278   0.00000  Uiso   1.00
C32    C     0.00207   0.39839   0.21590   0.00000  Uiso   1.00
C33    C     0.01044   0.21584   0.26920   0.00000  Uiso   1.00
C34    C     0.49014   0.18016   0.30495   0.00000  Uiso   1.00
C35    C     0.28290   0.01647   0.27513   0.00000  Uiso   1.00
C36    C     0.31576   0.49391   0.31109   0.00000  Uiso   1.00
C37    C     0.15956   0.47710   0.21951   0.00000  Uiso   1.00
C38    C     0.21118   0.39535   0.16563   0.00000  Uiso   1.00
C39    C     0.11397   0.49916   0.22201   0.00000  Uiso   1.00
C40    C     0.21606   0.01825   0.05964   0.00000  Uiso   1.00
C41    C     0.18387   0.49297   0.02523   0.00000  Uiso   1.00
C42    C     0.33983   0.48040   0.11682   0.00000  Uiso   1.00
C43    C     0.38705   0.49823   0.11443   0.00000  Uiso   1.00
C44    C     0.22335   0.10512   0.13481   0.00000  Uiso   1.00
C45    C     0.28832   0.39588   0.17038   0.00000  Uiso   1.00
C46    C     0.27621   0.05405   0.20088   0.00000  Uiso   1.00
C47    C     0.20999   0.44604   0.16832   0.00000  Uiso   1.00
C48    C     0.22282   0.05441   0.13378   0.00000  Uiso   1.00
Cu49   Cu    0.25000   0.29822   0.16667   0.00000  Uiso   1.00
Cu50   Cu    0.25000   0.20179   0.16667   0.00000  Uiso   1.00
H51    H     0.29673   0.12460   0.22456   0.00000  Uiso   1.00
H52    H     0.01000   0.17870   0.09084   0.00000  Uiso   1.00
H53    H     0.45476   0.15482   0.08169   0.00000  Uiso   1.00
H54    H     0.47966   0.07541   0.11452   0.00000  Uiso   1.00
H55    H     0.01127   0.09446   0.06226   0.00000  Uiso   1.00
H56    H     0.03465   0.09925   0.12334   0.00000  Uiso   1.00
H57    H     0.00409   0.32249   0.23090   0.00000  Uiso   1.00
H58    H     0.44961   0.34927   0.23281   0.00000  Uiso   1.00
H59    H     0.47994   0.42564   0.19857   0.00000  Uiso   1.00
H60    H     0.00788   0.40795   0.25489   0.00000  Uiso   1.00
H61    H     0.03401   0.39866   0.19674   0.00000  Uiso   1.00
H62    H     0.18035   0.37615   0.16440   0.00000  Uiso   1.00
H63    H     0.48440   0.24162   0.25748   0.00000  Uiso   1.00
H64    H     0.03752   0.23554   0.28832   0.00000  Uiso   1.00
H65    H     0.01590   0.15589   0.32045   0.00000  Uiso   1.00
H66    H     0.47444   0.19978   0.00183   0.00000  Uiso   1.00
H67    H     0.46462   0.15825   0.28589   0.00000  Uiso   1.00
H68    H     0.25780   0.48870   0.26595   0.00000  Uiso   1.00
H69    H     0.26692   0.04758   0.29313   0.00000  Uiso   1.00
H70    H     0.34005   0.02136   0.32341   0.00000  Uiso   1.00
H71    H     0.29839   0.47938   0.01010   0.00000  Uiso   1.00
H72    H     0.33331   0.46386   0.29334   0.00000  Uiso   1.00
H73    H     0.20226   0.12526   0.10976   0.00000  Uiso   1.00
H74    H     0.18335   0.00301   0.23606   0.00000  Uiso   1.00
H75    H     0.15968   0.44291   0.24134   0.00000  Uiso   1.00
H76    H     0.08918   0.47410   0.20610   0.00000  Uiso   1.00
H77    H     0.10570   0.00609   0.26078   0.00000  Uiso   1.00
H78    H     0.11301   0.03379   0.20122   0.00000  Uiso   1.00
H79    H     0.24298   0.49254   0.06884   0.00000  Uiso   1.00
H80    H     0.22976   0.05038   0.04037   0.00000  Uiso   1.00
H81    H     0.15765   0.01836   0.01298   0.00000  Uiso   1.00
H82    H     0.20132   0.47971   0.32605   0.00000  Uiso   1.00
H83    H     0.16866   0.46169   0.04428   0.00000  Uiso   1.00
H84    H     0.31859   0.37707   0.17638   0.00000  Uiso   1.00
H85    H     0.31797   0.00952   0.10240   0.00000  Uiso   1.00
H86    H     0.33660   0.44817   0.09293   0.00000  Uiso   1.00
H87    H     0.40986   0.46958   0.12774   0.00000  Uiso   1.00
H88    H     0.39514   0.00780   0.07601   0.00000  Uiso   1.00
H89    H     0.39140   0.03062   0.13759   0.00000  Uiso   1.00
H90    H     0.48621   0.25841   0.06434   0.00000  Uiso   1.00
H91    H     0.04002   0.26421   0.03695   0.00000  Uiso   1.00
H92    H     0.01990   0.34407   0.00356   0.00000  Uiso   1.00
H93    H     0.47807   0.30080   0.31964   0.00000  Uiso   1.00
H94    H     0.46803   0.34225   0.03513   0.00000  Uiso   1.00
N95    N     0.25000   0.12935   0.16667   0.00000  Uiso   1.00
N96    N     0.25000   0.37066   0.16667   0.00000  Uiso   1.00
O97    O     0.18573   0.29072   0.16667   0.00000  Uiso   1.00
O98    O     0.47621   0.16221   0.15455   0.00000  Uiso   1.00
O99    O     0.47432   0.33697   0.16306   0.00000  Uiso   1.00
O100   O     0.02628   0.19028   0.22885   0.00000  Uiso   1.00
O101   O     0.30536   0.03146   0.23289   0.00000  Uiso   1.00
O102   O     0.16959   0.46853   0.17007   0.00000  Uiso   1.00
O103   O     0.19366   0.03200   0.10202   0.00000  Uiso   1.00
O104   O     0.32982   0.46921   0.16597   0.00000  Uiso   1.00
O105   O     0.31427   0.20929   0.16666   0.00000  Uiso   1.00
O106   O     0.31427   0.29072   0.16666   0.00000  Uiso   1.00
O107   O     0.18573   0.20929   0.16667   0.00000  Uiso   1.00
O108   O     0.25000   0.29071   0.09613   0.00000  Uiso   1.00
O109   O     0.25000   0.20929   0.23720   0.00000  Uiso   1.00
O110   O     0.25000   0.29071   0.23720   0.00000  Uiso   1.00
O111   O     0.25000   0.20929   0.09613   0.00000  Uiso   1.00
O112   O     0.02787   0.30942   0.09580   0.00000  Uiso   1.00
Br113  Br    0.62538   0.31691   0.08212   0.00000  Uiso   1.00
Br114  Br    0.88174   0.14122   0.16490   0.00000  Uiso   1.00
Br115  Br    0.88352   0.34816   0.12028   0.00000  Uiso   1.00
Br116  Br    0.62372   0.18213   0.24780   0.00000  Uiso   1.00
C117   C     0.66519   0.24996   0.16641   0.00000  Uiso   1.00
C118   C     0.78939   0.44650   0.16706   0.00000  Uiso   1.00
C119   C     0.74990   0.25015   0.07350   0.00000  Uiso   1.00
C120   C     0.75000   0.24985   0.25983   0.00000  Uiso   1.00
C121   C     0.74952   0.02760   0.16738   0.00000  Uiso   1.00
C122   C     0.74963   0.47294   0.16731   0.00000  Uiso   1.00
C123   C     0.74989   0.25020   0.02182   0.00000  Uiso   1.00
C124   C     0.74992   0.24979   0.31151   0.00000  Uiso   1.00
C125   C     0.54892   0.27816   0.12827   0.00000  Uiso   1.00
C126   C     0.95375   0.20541   0.15736   0.00000  Uiso   1.00
C127   C     0.95301   0.29294   0.16058   0.00000  Uiso   1.00
C128   C     0.83521   0.24980   0.16371   0.00000  Uiso   1.00
C129   C     0.54817   0.22153   0.19777   0.00000  Uiso   1.00
C130   C     0.59475   0.27855   0.13022   0.00000  Uiso   1.00
C131   C     0.90789   0.20468   0.16072   0.00000  Uiso   1.00
C132   C     0.90774   0.29206   0.15225   0.00000  Uiso   1.00
C133   C     0.59404   0.22110   0.19854   0.00000  Uiso   1.00
C134   C     0.61735   0.24991   0.16513   0.00000  Uiso   1.00
C135   C     0.88388   0.24876   0.15894   0.00000  Uiso   1.00
C136   C     0.52524   0.24993   0.16242   0.00000  Uiso   1.00
C137   C     0.97665   0.24944   0.16078   0.00000  Uiso   1.00
C138   C     0.51273   0.28405   0.05438   0.00000  Uiso   1.00
C139   C     0.77595   0.10475   0.19930   0.00000  Uiso   1.00
C140   C     0.99356   0.32005   0.01750   0.00000  Uiso   1.00
C141   C     0.98517   0.15283   0.10499   0.00000  Uiso   1.00
C142   C     0.50387   0.10228   0.10107   0.00000  Uiso   1.00
C143   C     0.98124   0.34863   0.21278   0.00000  Uiso   1.00
C144   C     0.50207   0.39839   0.21590   0.00000  Uiso   1.00
C145   C     0.51044   0.21584   0.26920   0.00000  Uiso   1.00
C146   C     0.99014   0.18016   0.30495   0.00000  Uiso   1.00
C147   C     0.78290   0.01647   0.27513   0.00000  Uiso   1.00
C148   C     0.81576   0.49391   0.31109   0.00000  Uiso   1.00
C149   C     0.65956   0.47710   0.21951   0.00000  Uiso   1.00
C150   C     0.71118   0.39535   0.16563   0.00000  Uiso   1.00
C151   C     0.61397   0.49916   0.22201   0.00000  Uiso   1.00
C152   C     0.71606   0.01825   0.05964   0.00000  Uiso   1.00
C153   C     0.68387   0.49297   0.02523   0.00000  Uiso   1.00
C154   C     0.83983   0.48040   0.11682   0.00000  Uiso   1.00
C155   C     0.88705   0.49823   0.11443   0.00000  Uiso   1.00
C156   C     0.72335   0.10512   0.13481   0.00000  Uiso   1.00
C157   C     0.78832   0.39588   0.17038   0.00000  Uiso   1.00
C158   C     0.77621   0.05405   0.20088   0.00000  Uiso   1.00
C159   C     0.70999   0.44604   0.16832   0.00000  Uiso   1.00
C160   C     0.72282   0.05441   0.13378   0.00000  Uiso   1.00
Cu161  Cu    0.75000   0.29822   0.16667   0.00000  Uiso   1.00
Cu162  Cu    0.75000   0.20179   0.16667   0.00000  Uiso   1.00
H163   H     0.79673   0.12460   0.22456   0.00000  Uiso   1.00
H164   H     0.51000   0.17870   0.09084   0.00000  Uiso   1.00
H165   H     0.95476   0.15482   0.08169   0.00000  Uiso   1.00
H166   H     0.97966   0.07541   0.11452   0.00000  Uiso   1.00
H167   H     0.51127   0.09446   0.06226   0.00000  Uiso   1.00
H168   H     0.53465   0.09925   0.12334   0.00000  Uiso   1.00
H169   H     0.50409   0.32249   0.23090   0.00000  Uiso   1.00
H170   H     0.94961   0.34927   0.23281   0.00000  Uiso   1.00
H171   H     0.97994   0.42564   0.19857   0.00000  Uiso   1.00
H172   H     0.50788   0.40795   0.25489   0.00000  Uiso   1.00
H173   H     0.53401   0.39866   0.19674   0.00000  Uiso   1.00
H174   H     0.68035   0.37615   0.16440   0.00000  Uiso   1.00
H175   H     0.98440   0.24162   0.25748   0.00000  Uiso   1.00
H176   H     0.53752   0.23554   0.28832   0.00000  Uiso   1.00
H177   H     0.51590   0.15589   0.32045   0.00000  Uiso   1.00
H178   H     0.97444   0.19978   0.00183   0.00000  Uiso   1.00
H179   H     0.96462   0.15825   0.28589   0.00000  Uiso   1.00
H180   H     0.75780   0.48870   0.26595   0.00000  Uiso   1.00
H181   H     0.76692   0.04758   0.29313   0.00000  Uiso   1.00
H182   H     0.84005   0.02136   0.32341   0.00000  Uiso   1.00
H183   H     0.79839   0.47938   0.01010   0.00000  Uiso   1.00
H184   H     0.83331   0.46386   0.29334   0.00000  Uiso   1.00
H185   H     0.70226   0.12526   0.10976   0.00000  Uiso   1.00
H186   H     0.68335   0.00301   0.23606   0.00000  Uiso   1.00
H187   H     0.65968   0.44291   0.24134   0.00000  Uiso   1.00
H188   H     0.58918   0.47410   0.20610   0.00000  Uiso   1.00
H189   H     0.60570   0.00609   0.26078   0.00000  Uiso   1.00
H190   H     0.61301   0.03379   0.20122   0.00000  Uiso   1.00
H191   H     0.74298   0.49254   0.06884   0.00000  Uiso   1.00
H192   H     0.72976   0.05038   0.04037   0.00000  Uiso   1.00
H193   H     0.65765   0.01836   0.01298   0.00000  Uiso   1.00
H194   H     0.70132   0.47971   0.32605   0.00000  Uiso   1.00
H195   H     0.66866   0.46169   0.04428   0.00000  Uiso   1.00
H196   H     0.81859   0.37707   0.17638   0.00000  Uiso   1.00
H197   H     0.81797   0.00952   0.10240   0.00000  Uiso   1.00
H198   H     0.83660   0.44817   0.09293   0.00000  Uiso   1.00
H199   H     0.90986   0.46958   0.12774   0.00000  Uiso   1.00
H200   H     0.89514   0.00780   0.07601   0.00000  Uiso   1.00
H201   H     0.89140   0.03062   0.13759   0.00000  Uiso   1.00
H202   H     0.98621   0.25841   0.06434   0.00000  Uiso   1.00
H203   H     0.54002   0.26421   0.03695   0.00000  Uiso   1.00
H204   H     0.51990   0.34407   0.00356   0.00000  Uiso   1.00
H205   H     0.97807   0.30080   0.31964   0.00000  Uiso   1.00
H206   H     0.96803   0.34225   0.03513   0.00000  Uiso   1.00
N207   N     0.75000   0.12935   0.16667   0.00000  Uiso   1.00
N208   N     0.75000   0.37066   0.16667   0.00000  Uiso   1.00
O209   O     0.68573   0.29072   0.16667   0.00000  Uiso   1.00
O210   O     0.97621   0.16221   0.15455   0.00000  Uiso   1.00
O211   O     0.97432   0.33697   0.16306   0.00000  Uiso   1.00
O212   O     0.52628   0.19028   0.22885   0.00000  Uiso   1.00
O213   O     0.80536   0.03146   0.23289   0.00000  Uiso   1.00
O214   O     0.66959   0.46853   0.17007   0.00000  Uiso   1.00
O215   O     0.69366   0.03200   0.10202   0.00000  Uiso   1.00
O216   O     0.82982   0.46921   0.16597   0.00000  Uiso   1.00
O217   O     0.81427   0.20929   0.16666   0.00000  Uiso   1.00
O218   O     0.81427   0.29072   0.16666   0.00000  Uiso   1.00
O219   O     0.68573   0.20929   0.16667   0.00000  Uiso   1.00
O220   O     0.75000   0.29071   0.09613   0.00000  Uiso   1.00
O221   O     0.75000   0.20929   0.23720   0.00000  Uiso   1.00
O222   O     0.75000   0.29071   0.23720   0.00000  Uiso   1.00
O223   O     0.75000   0.20929   0.09613   0.00000  Uiso   1.00
O224   O     0.52787   0.30942   0.09580   0.00000  Uiso   1.00
Br225  Br    0.12538   0.81691   0.08212   0.00000  Uiso   1.00
Br226  Br    0.38174   0.64122   0.16490   0.00000  Uiso   1.00
Br227  Br    0.38352   0.84816   0.12028   0.00000  Uiso   1.00
Br228  Br    0.12372   0.68213   0.24780   0.00000  Uiso   1.00
C229   C     0.16519   0.74996   0.16641   0.00000  Uiso   1.00
C230   C     0.28939   0.94650   0.16706   0.00000  Uiso   1.00
C231   C     0.24990   0.75015   0.07350   0.00000  Uiso   1.00
C232   C     0.25000   0.74985   0.25983   0.00000  Uiso   1.00
C233   C     0.24952   0.52760   0.16738   0.00000  Uiso   1.00
C234   C     0.24963   0.97294   0.16731   0.00000  Uiso   1.00
C235   C     0.24989   0.75020   0.02182   0.00000  Uiso   1.00
C236   C     0.24992   0.74979   0.31151   0.00000  Uiso   1.00
C237   C     0.04892   0.77816   0.12827   0.00000  Uiso   1.00
C238   C     0.45375   0.70541   0.15736   0.00000  Uiso   1.00
C239   C     0.45301   0.79294   0.16058   0.00000  Uiso   1.00
C240   C     0.33521   0.74980   0.16371   0.00000  Uiso   1.00
C241   C     0.04817   0.72153   0.19777   0.00000  Uiso   1.00
C242   C     0.09475   0.77855   0.13022   0.00000  Uiso   1.00
C243   C     0.40789   0.70468   0.16072   0.00000  Uiso   1.00
C244   C     0.40774   0.79206   0.15225   0.00000  Uiso   1.00
C245   C     0.09404   0.72110   0.19854   0.00000  Uiso   1.00
C246   C     0.11735   0.74991   0.16513   0.00000  Uiso   1.00
C247   C     0.38388   0.74876   0.15894   0.00000  Uiso   1.00
C248   C     0.02524   0.74993   0.16242   0.00000  Uiso   1.00
C249   C     0.47665   0.74944   0.16078   0.00000  Uiso   1.00
C250   C     0.01273   0.78405   0.05438   0.00000  Uiso   1.00
C251   C     0.27595   0.60475   0.19930   0.00000  Uiso   1.00
C252   C     0.49356   0.82005   0.01750   0.00000  Uiso   1.00
C253   C     0.48517   0.65283   0.10499   0.00000  Uiso   1.00
C254   C     0.00387   0.60228   0.10107   0.00000  Uiso   1.00
C255   C     0.48124   0.84863   0.21278   0.00000  Uiso   1.00
C256   C     0.00207   0.89839   0.21590   0.00000  Uiso   1.00
C257   C     0.01044   0.71584   0.26920   0.00000  Uiso   1.00
C258   C     0.49014   0.68016   0.30495   0.00000  Uiso   1.00
C259   C     0.28290   0.51647   0.27513   0.00000  Uiso   1.00
C260   C     0.31576   0.99391   0.31109   0.00000  Uiso   1.00
C261   C     0.15956   0.97710   0.21951   0.00000  Uiso   1.00
C262   C     0.21118   0.89535   0.16563   0.00000  Uiso   1.00
C263   C     0.11397   0.99916   0.22201   0.00000  Uiso   1.00
C264   C     0.21606   0.51825   0.05964   0.00000  Uiso   1.00
C265   C     0.18387   0.99297   0.02523   0.00000  Uiso   1.00
C266   C     0.33983   0.98040   0.11682   0.00000  Uiso   1.00
C267   C     0.38705   0.99823   0.11443   0.00000  Uiso   1.00
C268   C     0.22335   0.60512   0.13481   0.00000  Uiso   1.00
C269   C     0.28832   0.89588   0.17038   0.00000  Uiso   1.00
C270   C     0.27621   0.55405   0.20088   0.00000  Uiso   1.00
C271   C     0.20999   0.94604   0.16832   0.00000  Uiso   1.00
C272   C     0.22282   0.55441   0.13378   0.00000  Uiso   1.00
Cu273  Cu    0.25000   0.79822   0.16667   0.00000  Uiso   1.00
Cu274  Cu    0.25000   0.70179   0.16667   0.00000  Uiso   1.00
H275   H     0.29673   0.62460   0.22456   0.00000  Uiso   1.00
H276   H     0.01000   0.67870   0.09084   0.00000  Uiso   1.00
H277   H     0.45476   0.65482   0.08169   0.00000  Uiso   1.00
H278   H     0.47966   0.57541   0.11452   0.00000  Uiso   1.00
H279   H     0.01127   0.59446   0.06226   0.00000  Uiso   1.00
H280   H     0.03465   0.59925   0.12334   0.00000  Uiso   1.00
H281   H     0.00409   0.82249   0.23090   0.00000  Uiso   1.00
H282   H     0.44961   0.84927   0.23281   0.00000  Uiso   1.00
H283   H     0.47994   0.92564   0.19857   0.00000  Uiso   1.00
H284   H     0.00788   0.90795   0.25489   0.00000  Uiso   1.00
H285   H     0.03401   0.89866   0.19674   0.00000  Uiso   1.00
H286   H     0.18035   0.87615   0.16440   0.00000  Uiso   1.00
H287   H     0.48440   0.74162   0.25748   0.00000  Uiso   1.00
H288   H     0.03752   0.73554   0.28832   0.00000  Uiso   1.00
H289   H     0.01590   0.65589   0.32045   0.00000  Uiso   1.00
H290   H     0.47444   0.69978   0.00183   0.00000  Uiso   1.00
H291   H     0.46462   0.65825   0.28589   0.00000  Uiso   1.00
H292   H     0.25780   0.98870   0.26595   0.00000  Uiso   1.00
H293   H     0.26692   0.54758   0.29313   0.00000  Uiso   1.00
H294   H     0.34005   0.52136   0.32341   0.00000  Uiso   1.00
H295   H     0.29839   0.97938   0.01010   0.00000  Uiso   1.00
H296   H     0.33331   0.96386   0.29334   0.00000  Uiso   1.00
H297   H     0.20226   0.62526   0.10976   0.00000  Uiso   1.00
H298   H     0.18335   0.50301   0.23606   0.00000  Uiso   1.00
H299   H     0.15968   0.94291   0.24134   0.00000  Uiso   1.00
H300   H     0.08918   0.97410   0.20610   0.00000  Uiso   1.00
H301   H     0.10570   0.50609   0.26078   0.00000  Uiso   1.00
H302   H     0.11301   0.53379   0.20122   0.00000  Uiso   1.00
H303   H     0.24298   0.99254   0.06884   0.00000  Uiso   1.00
H304   H     0.22976   0.55038   0.04037   0.00000  Uiso   1.00
H305   H     0.15765   0.51836   0.01298   0.00000  Uiso   1.00
H306   H     0.20132   0.97971   0.32605   0.00000  Uiso   1.00
H307   H     0.16866   0.96169   0.04428   0.00000  Uiso   1.00
H308   H     0.31859   0.87707   0.17638   0.00000  Uiso   1.00
H309   H     0.31797   0.50952   0.10240   0.00000  Uiso   1.00
H310   H     0.33660   0.94817   0.09293   0.00000  Uiso   1.00
H311   H     0.40986   0.96958   0.12774   0.00000  Uiso   1.00
H312   H     0.39514   0.50780   0.07601   0.00000  Uiso   1.00
H313   H     0.39140   0.53062   0.13759   0.00000  Uiso   1.00
H314   H     0.48621   0.75841   0.06434   0.00000  Uiso   1.00
H315   H     0.04002   0.76421   0.03695   0.00000  Uiso   1.00
H316   H     0.01990   0.84407   0.00356   0.00000  Uiso   1.00
H317   H     0.47807   0.80080   0.31964   0.00000  Uiso   1.00
H318   H     0.46803   0.84225   0.03513   0.00000  Uiso   1.00
N319   N     0.25000   0.62935   0.16667   0.00000  Uiso   1.00
N320   N     0.25000   0.87066   0.16667   0.00000  Uiso   1.00
O321   O     0.18573   0.79072   0.16667   0.00000  Uiso   1.00
O322   O     0.47621   0.66221   0.15455   0.00000  Uiso   1.00
O323   O     0.47432   0.83697   0.16306   0.00000  Uiso   1.00
O324   O     0.02628   0.69028   0.22885   0.00000  Uiso   1.00
O325   O     0.30536   0.53146   0.23289   0.00000  Uiso   1.00
O326   O     0.16959   0.96853   0.17007   0.00000  Uiso   1.00
O327   O     0.19366   0.53200   0.10202   0.00000  Uiso   1.00
O328   O     0.32982   0.96921   0.16597   0.00000  Uiso   1.00
O329   O     0.31427   0.70929   0.16666   0.00000  Uiso   1.00
O330   O     0.31427   0.79072   0.16666   0.00000  Uiso   1.00
O331   O     0.18573   0.70929   0.16667   0.00000  Uiso   1.00
O332   O     0.25000   0.79071   0.09613   0.00000  Uiso   1.00
O333   O     0.25000   0.70929   0.23720   0.00000  Uiso   1.00
O334   O     0.25000   0.79071   0.23720   0.00000  Uiso   1.00
O335   O     0.25000   0.70929   0.09613   0.00000  Uiso   1.00
O336   O     0.02787   0.80942   0.09580   0.00000  Uiso   1.00
Br337  Br    0.62538   0.81691   0.08212   0.00000  Uiso   1.00
Br338  Br    0.88174   0.64122   0.16490   0.00000  Uiso   1.00
Br339  Br    0.88352   0.84816   0.12028   0.00000  Uiso   1.00
Br340  Br    0.62372   0.68213   0.24780   0.00000  Uiso   1.00
C341   C     0.66519   0.74996   0.16641   0.00000  Uiso   1.00
C342   C     0.78939   0.94650   0.16706   0.00000  Uiso   1.00
C343   C     0.74990   0.75015   0.07350   0.00000  Uiso   1.00
C344   C     0.75000   0.74985   0.25983   0.00000  Uiso   1.00
C345   C     0.74952   0.52760   0.16738   0.00000  Uiso   1.00
C346   C     0.74963   0.97294   0.16731   0.00000  Uiso   1.00
C347   C     0.74989   0.75020   0.02182   0.00000  Uiso   1.00
C348   C     0.74992   0.74979   0.31151   0.00000  Uiso   1.00
C349   C     0.54892   0.77816   0.12827   0.00000  Uiso   1.00
C350   C     0.95375   0.70541   0.15736   0.00000  Uiso   1.00
C351   C     0.95301   0.79294   0.16058   0.00000  Uiso   1.00
C352   C     0.83521   0.74980   0.16371   0.00000  Uiso   1.00
C353   C     0.54817   0.72153   0.19777   0.00000  Uiso   1.00
C354   C     0.59475   0.77855   0.13022   0.00000  Uiso   1.00
C355   C     0.90789   0.70468   0.16072   0.00000  Uiso   1.00
C356   C     0.90774   0.79206   0.15225   0.00000  Uiso   1.00
C357   C     0.59404   0.72110   0.19854   0.00000  Uiso   1.00
C358   C     0.61735   0.74991   0.16513   0.00000  Uiso   1.00
C359   C     0.88388   0.74876   0.15894   0.00000  Uiso   1.00
C360   C     0.52524   0.74993   0.16242   0.00000  Uiso   1.00
C361   C     0.97665   0.74944   0.16078   0.00000  Uiso   1.00
C362   C     0.51273   0.78405   0.05438   0.00000  Uiso   1.00
C363   C     0.77595   0.60475   0.19930   0.00000  Uiso   1.00
C364   C     0.99356   0.82005   0.01750   0.00000  Uiso   1.00
C365   C     0.98517   0.65283   0.10499   0.00000  Uiso   1.00
C366   C     0.50387   0.60228   0.10107   0.00000  Uiso   1.00
C367   C     0.98124   0.84863   0.21278   0.00000  Uiso   1.00
C368   C     0.50207   0.89839   0.21590   0.00000  Uiso   1.00
C369   C     0.51044   0.71584   0.26920   0.00000  Uiso   1.00
C370   C     0.99014   0.68016   0.30495   0.00000  Uiso   1.00
C371   C     0.78290   0.51647   0.27513   0.00000  Uiso   1.00
C372   C     0.81576   0.99391   0.31109   0.00000  Uiso   1.00
C373   C     0.65956   0.97710   0.21951   0.00000  Uiso   1.00
C374   C     0.71118   0.89535   0.16563   0.00000  Uiso   1.00
C375   C     0.61397   0.99916   0.22201   0.00000  Uiso   1.00
C376   C     0.71606   0.51825   0.05964   0.00000  Uiso   1.00
C377   C     0.68387   0.99297   0.02523   0.00000  Uiso   1.00
C378   C     0.83983   0.98040   0.11682   0.00000  Uiso   1.00
C379   C     0.88705   0.99823   0.11443   0.00000  Uiso   1.00
C380   C     0.72335   0.60512   0.13481   0.00000  Uiso   1.00
C381   C     0.78832   0.89588   0.17038   0.00000  Uiso   1.00
C382   C     0.77621   0.55405   0.20088   0.00000  Uiso   1.00
C383   C     0.70999   0.94604   0.16832   0.00000  Uiso   1.00
C384   C     0.72282   0.55441   0.13378   0.00000  Uiso   1.00
Cu385  Cu    0.75000   0.79822   0.16667   0.00000  Uiso   1.00
Cu386  Cu    0.75000   0.70179   0.16667   0.00000  Uiso   1.00
H387   H     0.79673   0.62460   0.22456   0.00000  Uiso   1.00
H388   H     0.51000   0.67870   0.09084   0.00000  Uiso   1.00
H389   H     0.95476   0.65482   0.08169   0.00000  Uiso   1.00
H390   H     0.97966   0.57541   0.11452   0.00000  Uiso   1.00
H391   H     0.51127   0.59446   0.06226   0.00000  Uiso   1.00
H392   H     0.53465   0.59925   0.12334   0.00000  Uiso   1.00
H393   H     0.50409   0.82249   0.23090   0.00000  Uiso   1.00
H394   H     0.94961   0.84927   0.23281   0.00000  Uiso   1.00
H395   H     0.97994   0.92564   0.19857   0.00000  Uiso   1.00
H396   H     0.50788   0.90795   0.25489   0.00000  Uiso   1.00
H397   H     0.53401   0.89866   0.19674   0.00000  Uiso   1.00
H398   H     0.68035   0.87615   0.16440   0.00000  Uiso   1.00
H399   H     0.98440   0.74162   0.25748   0.00000  Uiso   1.00
H400   H     0.53752   0.73554   0.28832   0.00000  Uiso   1.00
H401   H     0.51590   0.65589   0.32045   0.00000  Uiso   1.00
H402   H     0.97444   0.69978   0.00183   0.00000  Uiso   1.00
H403   H     0.96462   0.65825   0.28589   0.00000  Uiso   1.00
H404   H     0.75780   0.98870   0.26595   0.00000  Uiso   1.00
H405   H     0.76692   0.54758   0.29313   0.00000  Uiso   1.00
H406   H     0.84005   0.52136   0.32341   0.00000  Uiso   1.00
H407   H     0.79839   0.97938   0.01010   0.00000  Uiso   1.00
H408   H     0.83331   0.96386   0.29334   0.00000  Uiso   1.00
H409   H     0.70226   0.62526   0.10976   0.00000  Uiso   1.00
H410   H     0.68335   0.50301   0.23606   0.00000  Uiso   1.00
H411   H     0.65968   0.94291   0.24134   0.00000  Uiso   1.00
H412   H     0.58918   0.97410   0.20610   0.00000  Uiso   1.00
H413   H     0.60570   0.50609   0.26078   0.00000  Uiso   1.00
H414   H     0.61301   0.53379   0.20122   0.00000  Uiso   1.00
H415   H     0.74298   0.99254   0.06884   0.00000  Uiso   1.00
H416   H     0.72976   0.55038   0.04037   0.00000  Uiso   1.00
H417   H     0.65765   0.51836   0.01298   0.00000  Uiso   1.00
H418   H     0.70132   0.97971   0.32605   0.00000  Uiso   1.00
H419   H     0.66866   0.96169   0.04428   0.00000  Uiso   1.00
H420   H     0.81859   0.87707   0.17638   0.00000  Uiso   1.00
H421   H     0.81797   0.50952   0.10240   0.00000  Uiso   1.00
H422   H     0.83660   0.94817   0.09293   0.00000  Uiso   1.00
H423   H     0.90986   0.96958   0.12774   0.00000  Uiso   1.00
H424   H     0.89514   0.50780   0.07601   0.00000  Uiso   1.00
H425   H     0.89140   0.53062   0.13759   0.00000  Uiso   1.00
H426   H     0.98621   0.75841   0.06434   0.00000  Uiso   1.00
H427   H     0.54002   0.76421   0.03695   0.00000  Uiso   1.00
H428   H     0.51990   0.84407   0.00356   0.00000  Uiso   1.00
H429   H     0.97807   0.80080   0.31964   0.00000  Uiso   1.00
H430   H     0.96803   0.84225   0.03513   0.00000  Uiso   1.00
N431   N     0.75000   0.62935   0.16667   0.00000  Uiso   1.00
N432   N     0.75000   0.87066   0.16667   0.00000  Uiso   1.00
O433   O     0.68573   0.79072   0.16667   0.00000  Uiso   1.00
O434   O     0.97621   0.66221   0.15455   0.00000  Uiso   1.00
O435   O     0.97432   0.83697   0.16306   0.00000  Uiso   1.00
O436   O     0.52628   0.69028   0.22885   0.00000  Uiso   1.00
O437   O     0.80536   0.53146   0.23289   0.00000  Uiso   1.00
O438   O     0.66959   0.96853   0.17007   0.00000  Uiso   1.00
O439   O     0.69366   0.53200   0.10202   0.00000  Uiso   1.00
O440   O     0.82982   0.96921   0.16597   0.00000  Uiso   1.00
O441   O     0.81427   0.70929   0.16666   0.00000  Uiso   1.00
O442   O     0.81427   0.79072   0.16666   0.00000  Uiso   1.00
O443   O     0.68573   0.70929   0.16667   0.00000  Uiso   1.00
O444   O     0.75000   0.79071   0.09613   0.00000  Uiso   1.00
O445   O     0.75000   0.70929   0.23720   0.00000  Uiso   1.00
O446   O     0.75000   0.79071   0.23720   0.00000  Uiso   1.00
O447   O     0.75000   0.70929   0.09613   0.00000  Uiso   1.00
O448   O     0.52787   0.80942   0.09580   0.00000  Uiso   1.00
Br449  Br    0.12538   0.31691   0.41546   0.00000  Uiso   1.00
Br450  Br    0.38174   0.14122   0.49824   0.00000  Uiso   1.00
Br451  Br    0.38352   0.34816   0.45361   0.00000  Uiso   1.00
Br452  Br    0.12372   0.18213   0.58113   0.00000  Uiso   1.00
C453   C     0.16519   0.24996   0.49975   0.00000  Uiso   1.00
C454   C     0.28939   0.44650   0.50040   0.00000  Uiso   1.00
C455   C     0.24990   0.25015   0.40683   0.00000  Uiso   1.00
C456   C     0.25000   0.24985   0.59316   0.00000  Uiso   1.00
C457   C     0.24952   0.02760   0.50071   0.00000  Uiso   1.00
C458   C     0.24963   0.47294   0.50064   0.00000  Uiso   1.00
C459   C     0.24989   0.25020   0.35516   0.00000  Uiso   1.00
C460   C     0.24992   0.24979   0.64484   0.00000  Uiso   1.00
C461   C     0.04892   0.27816   0.46161   0.00000  Uiso   1.00
C462   C     0.45375   0.20541   0.49069   0.00000  Uiso   1.00
C463   C     0.45301   0.29294   0.49391   0.00000  Uiso   1.00
C464   C     0.33521   0.24980   0.49704   0.00000  Uiso   1.00
C465   C     0.04817   0.22153   0.53110   0.00000  Uiso   1.00
C466   C     0.09475   0.27855   0.46355   0.00000  Uiso   1.00
C467   C     0.40789   0.20468   0.49406   0.00000  Uiso   1.00
C468   C     0.40774   0.29206   0.48558   0.00000  Uiso   1.00
C469   C     0.09404   0.22110   0.53187   0.00000  Uiso   1.00
C470   C     0.11735   0.24991   0.49846   0.00000  Uiso   1.00
C471   C     0.38388   0.24876   0.49227   0.00000  Uiso   1.00
C472   C     0.02524   0.24993   0.49576   0.00000  Uiso   1.00
C473   C     0.47665   0.24944   0.49411   0.00000  Uiso   1.00
C474   C     0.01273   0.28405   0.38771   0.00000  Uiso   1.00
C475   C     0.27595   0.10475   0.53264   0.00000  Uiso   1.00
C476   C     0.49356   0.32005   0.35084   0.00000  Uiso   1.00
C477   C     0.48517   0.15283   0.43832   0.00000  Uiso   1.00
C478   C     0.00387   0.10228   0.43441   0.00000  Uiso   1.00
C479   C     0.48124   0.34863   0.54611   0.00000  Uiso   1.00
C480   C     0.00207   0.39839   0.54923   0.00000  Uiso   1.00
C481   C     0.01044   0.21584   0.60253   0.00000  Uiso   1.00
C482   C     0.49014   0.18016   0.63828   0.00000  Uiso   1.00
C483   C     0.28290   0.01647   0.60846   0.00000  Uiso   1.00
C484   C     0.31576   0.49391   0.64443   0.00000  Uiso   1.00
C485   C     0.15956   0.47710   0.55284   0.00000  Uiso   1.00
C486   C     0.21118   0.39535   0.49897   0.00000  Uiso   1.00
C487   C     0.11397   0.49916   0.55534   0.00000  Uiso   1.00
C488   C     0.21606   0.01825   0.39297   0.00000  Uiso   1.00
C489   C     0.18387   0.49297   0.35857   0.00000  Uiso   1.00
C490   C     0.33983   0.48040   0.45016   0.00000  Uiso   1.00
C491   C     0.38705   0.49823   0.44777   0.00000  Uiso   1.00
C492   C     0.22335   0.10512   0.46814   0.00000  Uiso   1.00
C493   C     0.28832   0.39588   0.50372   0.00000  Uiso   1.00
C494   C     0.27621   0.05405   0.53422   0.00000  Uiso   1.00
C495   C     0.20999   0.44604   0.50165   0.00000  Uiso   1.00
C496   C     0.22282   0.05441   0.46711   0.00000  Uiso   1.00
Cu497  Cu    0.25000   0.29822   0.50000   0.00000  Uiso   1.00
Cu498  Cu    0.25000   0.20179   0.50000   0.00000  Uiso   1.00
H499   H     0.29673   0.12460   0.55789   0.00000  Uiso   1.00
H500   H     0.01000   0.17870   0.42418   0.00000  Uiso   1.00
H501   H     0.45476   0.15482   0.41502   0.00000  Uiso   1.00
H502   H     0.47966   0.07541   0.44785   0.00000  Uiso   1.00
H503   H     0.01127   0.09446   0.39559   0.00000  Uiso   1.00
H504   H     0.03465   0.09925   0.45667   0.00000  Uiso   1.00
H505   H     0.00409   0.32249   0.56424   0.00000  Uiso   1.00
H506   H     0.44961   0.34927   0.56614   0.00000  Uiso   1.00
H507   H     0.47994   0.42564   0.53190   0.00000  Uiso   1.00
H508   H     0.00788   0.40795   0.58822   0.00000  Uiso   1.00
H509   H     0.03401   0.39866   0.53008   0.00000  Uiso   1.00
H510   H     0.18035   0.37615   0.49774   0.00000  Uiso   1.00
H511   H     0.48440   0.24162   0.59082   0.00000  Uiso   1.00
H512   H     0.03752   0.23554   0.62165   0.00000  Uiso   1.00
H513   H     0.01590   0.15589   0.65378   0.00000  Uiso   1.00
H514   H     0.47444   0.19978   0.33516   0.00000  Uiso   1.00
H515   H     0.46462   0.15825   0.61922   0.00000  Uiso   1.00
H516   H     0.25780   0.48870   0.59928   0.00000  Uiso   1.00
H517   H     0.26692   0.04758   0.62647   0.00000  Uiso   1.00
H518   H     0.34005   0.02136   0.65674   0.00000  Uiso   1.00
H519   H     0.29839   0.47938   0.34344   0.00000  Uiso   1.00
H520   H     0.33331   0.46386   0.62667   0.00000  Uiso   1.00
H521   H     0.20226   0.12526   0.44309   0.00000  Uiso   1.00
H522   H     0.18335   0.00301   0.56939   0.00000  Uiso   1.00
H523   H     0.15968   0.44291   0.57468   0.00000  Uiso   1.00
H524   H     0.08918   0.47410   0.53944   0.00000  Uiso   1.00
H525   H     0.10570   0.00609   0.59411   0.00000  Uiso   1.00
H526   H     0.11301   0.03379   0.53455   0.00000  Uiso   1.00
H527   H     0.24298   0.49254   0.40218   0.00000  Uiso   1.00
H528   H     0.22976   0.05038   0.37371   0.00000  Uiso   1.00
H529   H     0.15765   0.01836   0.34631   0.00000  Uiso   1.00
H530   H     0.20132   0.47971   0.65938   0.00000  Uiso   1.00
H531   H     0.16866   0.46169   0.37761   0.00000  Uiso   1.00
H532   H     0.31859   0.37707   0.50972   0.00000  Uiso   1.00
H533   H     0.31797   0.00952   0.43573   0.00000  Uiso   1.00
H534   H     0.33660   0.44817   0.42627   0.00000  Uiso   1.00
H535   H     0.40986   0.46958   0.46107   0.00000  Uiso   1.00
H536   H     0.39514   0.00780   0.40935   0.00000  Uiso   1.00
H537   H     0.39140   0.03062   0.47092   0.00000  Uiso   1.00
H538   H     0.48621   0.25841   0.39768   0.00000  Uiso   1.00
H539   H     0.04002   0.26421   0.37028   0.00000  Uiso   1.00
H540   H     0.01990   0.34407   0.33689   0.00000  Uiso   1.00
H541   H     0.47807   0.30080   0.65298   0.00000  Uiso   1.00
H542   H     0.46803   0.34225   0.36846   0.00000  Uiso   1.00
N543   N     0.25000   0.12935   0.50000   0.00000  Uiso   1.00
N544   N     0.25000   0.37066   0.50000   0.00000  Uiso   1.00
O545   O     0.18573   0.29072   0.50000   0.00000  Uiso   1.00
O546   O     0.47621   0.16221   0.48788   0.00000  Uiso   1.00
O547   O     0.47432   0.33697   0.49639   0.00000  Uiso   1.00
O548   O     0.02628   0.19028   0.56218   0.00000  Uiso   1.00
O549   O     0.30536   0.03146   0.56622   0.00000  Uiso   1.00
O550   O     0.16959   0.46853   0.50341   0.00000  Uiso   1.00
O551   O     0.19366   0.03200   0.43535   0.00000  Uiso   1.00
O552   O     0.32982   0.46921   0.49930   0.00000  Uiso   1.00
O553   O     0.31427   0.20929   0.50000   0.00000  Uiso   1.00
O554   O     0.31427   0.29072   0.50000   0.00000  Uiso   1.00
O555   O     0.18573   0.20929   0.50000   0.00000  Uiso   1.00
O556   O     0.25000   0.29071   0.42946   0.00000  Uiso   1.00
O557   O     0.25000   0.20929   0.57054   0.00000  Uiso   1.00
O558   O     0.25000   0.29071   0.57054   0.00000  Uiso   1.00
O559   O     0.25000   0.20929   0.42946   0.00000  Uiso   1.00
O560   O     0.02787   0.30942   0.42913   0.00000  Uiso   1.00
Br561  Br    0.62538   0.31691   0.41546   0.00000  Uiso   1.00
Br562  Br    0.88174   0.14122   0.49824   0.00000  Uiso   1.00
Br563  Br    0.88352   0.34816   0.45361   0.00000  Uiso   1.00
Br564  Br    0.62372   0.18213   0.58113   0.00000  Uiso   1.00
C565   C     0.66519   0.24996   0.49975   0.00000  Uiso   1.00
C566   C     0.78939   0.44650   0.50040   0.00000  Uiso   1.00
C567   C     0.74990   0.25015   0.40683   0.00000  Uiso   1.00
C568   C     0.75000   0.24985   0.59316   0.00000  Uiso   1.00
C569   C     0.74952   0.02760   0.50071   0.00000  Uiso   1.00
C570   C     0.74963   0.47294   0.50064   0.00000  Uiso   1.00
C571   C     0.74989   0.25020   0.35516   0.00000  Uiso   1.00
C572   C     0.74992   0.24979   0.64484   0.00000  Uiso   1.00
C573   C     0.54892   0.27816   0.46161   0.00000  Uiso   1.00
C574   C     0.95375   0.20541   0.49069   0.00000  Uiso   1.00
C575   C     0.95301   0.29294   0.49391   0.00000  Uiso   1.00
C576   C     0.83521   0.24980   0.49704   0.00000  Uiso   1.00
C577   C     0.54817   0.22153   0.53110   0.00000  Uiso   1.00
C578   C     0.59475   0.27855   0.46355   0.00000  Uiso   1.00
C579   C     0.90789   0.20468   0.49406   0.00000  Uiso   1.00
C580   C     0.90774   0.29206   0.48558   0.00000  Uiso   1.00
C581   C     0.59404   0.22110   0.53187   0.00000  Uiso   1.00
C582   C     0.61735   0.24991   0.49846   0.00000  Uiso   1.00
C583   C     0.88388   0.24876   0.49227   0.00000  Uiso   1.00
C584   C     0.52524   0.24993   0.49576   0.00000  Uiso   1.00
C585   C     0.97665   0.24944   0.49411   0.00000  Uiso   1.00
C586   C     0.51273   0.28405   0.38771   0.00000  Uiso   1.00
C587   C     0.77595   0.10475   0.53264   0.00000  Uiso   1.00
C588   C     0.99356   0.32005   0.35084   0.00000  Uiso   1.00
C589   C     0.98517   0.15283   0.43832   0.00000  Uiso   1.00
C590   C     0.50387   0.10228   0.43441   0.00000  Uiso   1.00
C591   C     0.98124   0.34863   0.54611   0.00000  Uiso   1.00
C592   C     0.50207   0.39839   0.54923   0.00000  Uiso   1.00
C593   C     0.51044   0.21584   0.60253   0.00000  Uiso   1.00
C594   C     0.99014   0.18016   0.63828   0.00000  Uiso   1.00
C595   C     0.78290   0.01647   0.60846   0.00000  Uiso   1.00
C596   C     0.81576   0.49391   0.64443   0.00000  Uiso   1.00
C597   C     0.65956   0.47710   0.55284   0.00000  Uiso   1.00
C598   C     0.71118   0.39535   0.49897   0.00000  Uiso   1.00
C599   C     0.61397   0.49916   0.55534   0.00000  Uiso   1.00
C600   C     0.71606   0.01825   0.39297   0.00000  Uiso   1.00
C601   C     0.68387   0.49297   0.35857   0.00000  Uiso   1.00
C602   C     0.83983   0.48040   0.45016   0.00000  Uiso   1.00
C603   C     0.88705   0.49823   0.44777   0.00000  Uiso   1.00
C604   C     0.72335   0.10512   0.46814   0.00000  Uiso   1.00
C605   C     0.78832   0.39588   0.50372   0.00000  Uiso   1.00
C606   C     0.77621   0.05405   0.53422   0.00000  Uiso   1.00
C607   C     0.70999   0.44604   0.50165   0.00000  Uiso   1.00
C608   C     0.72282   0.05441   0.46711   0.00000  Uiso   1.00
Cu609  Cu    0.75000   0.29822   0.50000   0.00000  Uiso   1.00
Cu610  Cu    0.75000   0.20179   0.50000   0.00000  Uiso   1.00
H611   H     0.79673   0.12460   0.55789   0.00000  Uiso   1.00
H612   H     0.51000   0.17870   0.42418   0.00000  Uiso   1.00
H613   H     0.95476   0.15482   0.41502   0.00000  Uiso   1.00
H614   H     0.97966   0.07541   0.44785   0.00000  Uiso   1.00
H615   H     0.51127   0.09446   0.39559   0.00000  Uiso   1.00
H616   H     0.53465   0.09925   0.45667   0.00000  Uiso   1.00
H617   H     0.50409   0.32249   0.56424   0.00000  Uiso   1.00
H618   H     0.94961   0.34927   0.56614   0.00000  Uiso   1.00
H619   H     0.97994   0.42564   0.53190   0.00000  Uiso   1.00
H620   H     0.50788   0.40795   0.58822   0.00000  Uiso   1.00
H621   H     0.53401   0.39866   0.53008   0.00000  Uiso   1.00
H622   H     0.68035   0.37615   0.49774   0.00000  Uiso   1.00
H623   H     0.98440   0.24162   0.59082   0.00000  Uiso   1.00
H624   H     0.53752   0.23554   0.62165   0.00000  Uiso   1.00
H625   H     0.51590   0.15589   0.65378   0.00000  Uiso   1.00
H626   H     0.97444   0.19978   0.33516   0.00000  Uiso   1.00
H627   H     0.96462   0.15825   0.61922   0.00000  Uiso   1.00
H628   H     0.75780   0.48870   0.59928   0.00000  Uiso   1.00
H629   H     0.76692   0.04758   0.62647   0.00000  Uiso   1.00
H630   H     0.84005   0.02136   0.65674   0.00000  Uiso   1.00
H631   H     0.79839   0.47938   0.34344   0.00000  Uiso   1.00
H632   H     0.83331   0.46386   0.62667   0.00000  Uiso   1.00
H633   H     0.70226   0.12526   0.44309   0.00000  Uiso   1.00
H634   H     0.68335   0.00301   0.56939   0.00000  Uiso   1.00
H635   H     0.65968   0.44291   0.57468   0.00000  Uiso   1.00
H636   H     0.58918   0.47410   0.53944   0.00000  Uiso   1.00
H637   H     0.60570   0.00609   0.59411   0.00000  Uiso   1.00
H638   H     0.61301   0.03379   0.53455   0.00000  Uiso   1.00
H639   H     0.74298   0.49254   0.40218   0.00000  Uiso   1.00
H640   H     0.72976   0.05038   0.37371   0.00000  Uiso   1.00
H641   H     0.65765   0.01836   0.34631   0.00000  Uiso   1.00
H642   H     0.70132   0.47971   0.65938   0.00000  Uiso   1.00
H643   H     0.66866   0.46169   0.37761   0.00000  Uiso   1.00
H644   H     0.81859   0.37707   0.50972   0.00000  Uiso   1.00
H645   H     0.81797   0.00952   0.43573   0.00000  Uiso   1.00
H646   H     0.83660   0.44817   0.42627   0.00000  Uiso   1.00
H647   H     0.90986   0.46958   0.46107   0.00000  Uiso   1.00
H648   H     0.89514   0.00780   0.40935   0.00000  Uiso   1.00
H649   H     0.89140   0.03062   0.47092   0.00000  Uiso   1.00
H650   H     0.98621   0.25841   0.39768   0.00000  Uiso   1.00
H651   H     0.54002   0.26421   0.37028   0.00000  Uiso   1.00
H652   H     0.51990   0.34407   0.33689   0.00000  Uiso   1.00
H653   H     0.97807   0.30080   0.65298   0.00000  Uiso   1.00
H654   H     0.96803   0.34225   0.36846   0.00000  Uiso   1.00
N655   N     0.75000   0.12935   0.50000   0.00000  Uiso   1.00
N656   N     0.75000   0.37066   0.50000   0.00000  Uiso   1.00
O657   O     0.68573   0.29072   0.50000   0.00000  Uiso   1.00
O658   O     0.97621   0.16221   0.48788   0.00000  Uiso   1.00
O659   O     0.97432   0.33697   0.49639   0.00000  Uiso   1.00
O660   O     0.52628   0.19028   0.56218   0.00000  Uiso   1.00
O661   O     0.80536   0.03146   0.56622   0.00000  Uiso   1.00
O662   O     0.66959   0.46853   0.50341   0.00000  Uiso   1.00
O663   O     0.69366   0.03200   0.43535   0.00000  Uiso   1.00
O664   O     0.82982   0.46921   0.49930   0.00000  Uiso   1.00
O665   O     0.81427   0.20929   0.50000   0.00000  Uiso   1.00
O666   O     0.81427   0.29072   0.50000   0.00000  Uiso   1.00
O667   O     0.68573   0.20929   0.50000   0.00000  Uiso   1.00
O668   O     0.75000   0.29071   0.42946   0.00000  Uiso   1.00
O669   O     0.75000   0.20929   0.57054   0.00000  Uiso   1.00
O670   O     0.75000   0.29071   0.57054   0.00000  Uiso   1.00
O671   O     0.75000   0.20929   0.42946   0.00000  Uiso   1.00
O672   O     0.52787   0.30942   0.42913   0.00000  Uiso   1.00
Br673  Br    0.12538   0.81691   0.41546   0.00000  Uiso   1.00
Br674  Br    0.38174   0.64122   0.49824   0.00000  Uiso   1.00
Br675  Br    0.38352   0.84816   0.45361   0.00000  Uiso   1.00
Br676  Br    0.12372   0.68213   0.58113   0.00000  Uiso   1.00
C677   C     0.16519   0.74996   0.49975   0.00000  Uiso   1.00
C678   C     0.28939   0.94650   0.50040   0.00000  Uiso   1.00
C679   C     0.24990   0.75015   0.40683   0.00000  Uiso   1.00
C680   C     0.25000   0.74985   0.59316   0.00000  Uiso   1.00
C681   C     0.24952   0.52760   0.50071   0.00000  Uiso   1.00
C682   C     0.24963   0.97294   0.50064   0.00000  Uiso   1.00
C683   C     0.24989   0.75020   0.35516   0.00000  Uiso   1.00
C684   C     0.24992   0.74979   0.64484   0.00000  Uiso   1.00
C685   C     0.04892   0.77816   0.46161   0.00000  Uiso   1.00
C686   C     0.45375   0.70541   0.49069   0.00000  Uiso   1.00
C687   C     0.45301   0.79294   0.49391   0.00000  Uiso   1.00
C688   C     0.33521   0.74980   0.49704   0.00000  Uiso   1.00
C689   C     0.04817   0.72153   0.53110   0.00000  Uiso   1.00
C690   C     0.09475   0.77855   0.46355   0.00000  Uiso   1.00
C691   C     0.40789   0.70468   0.49406   0.00000  Uiso   1.00
C692   C     0.40774   0.79206   0.48558   0.00000  Uiso   1.00
C693   C     0.09404   0.72110   0.53187   0.00000  Uiso   1.00
C694   C     0.11735   0.74991   0.49846   0.00000  Uiso   1.00
C695   C     0.38388   0.74876   0.49227   0.00000  Uiso   1.00
C696   C     0.02524   0.74993   0.49576   0.00000  Uiso   1.00
C697   C     0.47665   0.74944   0.49411   0.00000  Uiso   1.00
C698   C     0.01273   0.78405   0.38771   0.00000  Uiso   1.00
C699   C     0.27595   0.60475   0.53264   0.00000  Uiso   1.00
C700   C     0.49356   0.82005   0.35084   0.00000  Uiso   1.00
C701   C     0.48517   0.65283   0.43832   0.00000  Uiso   1.00
C702   C     0.00387   0.60228   0.43441   0.00000  Uiso   1.00
C703   C     0.48124   0.84863   0.54611   0.00000  Uiso   1.00
C704   C     0.00207   0.89839   0.54923   0.00000  Uiso   1.00
C705   C     0.01044   0.71584   0.60253   0.00000  Uiso   1.00
C706   C     0.49014   0.68016   0.63828   0.00000  Uiso   1.00
C707   C     0.28290   0.51647   0.60846   0.00000  Uiso   1.00
C708   C     0.31576   0.99391   0.64443   0.00000  Uiso   1.00
C709   C     0.15956   0.97710   0.55284   0.00000  Uiso   1.00
C710   C     0.21118   0.89535   0.49897   0.00000  Uiso   1.00
C711   C     0.11397   0.99916   0.55534   0.00000  Uiso   1.00
C712   C     0.21606   0.51825   0.39297   0.00000  Uiso   1.00
C713   C     0.18387   0.99297   0.35857   0.00000  Uiso   1.00
C714   C     0.33983   0.98040   0.45016   0.00000  Uiso   1.00
C715   C     0.38705   0.99823   0.44777   0.00000  Uiso   1.00
C716   C     0.22335   0.60512   0.46814   0.00000  Uiso   1.00
C717   C     0.28832   0.89588   0.50372   0.00000  Uiso   1.00
C718   C     0.27621   0.55405   0.53422   0.00000  Uiso   1.00
C719   C     0.20999   0.94604   0.50165   0.00000  Uiso   1.00
C720   C     0.22282   0.55441   0.46711   0.00000  Uiso   1.00
Cu721  Cu    0.25000   0.79822   0.50000   0.00000  Uiso   1.00
Cu722  Cu    0.25000   0.70179   0.50000   0.00000  Uiso   1.00
H723   H     0.29673   0.62460   0.55789   0.00000  Uiso   1.00
H724   H     0.01000   0.67870   0.42418   0.00000  Uiso   1.00
H725   H     0.45476   0.65482   0.41502   0.00000  Uiso   1.00
H726   H     0.47966   0.57541   0.44785   0.00000  Uiso   1.00
H727   H     0.01127   0.59446   0.39559   0.00000  Uiso   1.00
H728   H     0.03465   0.59925   0.45667   0.00000  Uiso   1.00
H729   H     0.00409   0.82249   0.56424   0.00000  Uiso   1.00
H730   H     0.44961   0.84927   0.56614   0.00000  Uiso   1.00
H731   H     0.47994   0.92564   0.53190   0.00000  Uiso   1.00
H732   H     0.00788   0.90795   0.58822   0.00000  Uiso   1.00
H733   H     0.03401   0.89866   0.53008   0.00000  Uiso   1.00
H734   H     0.18035   0.87615   0.49774   0.00000  Uiso   1.00
H735   H     0.48440   0.74162   0.59082   0.00000  Uiso   1.00
H736   H     0.03752   0.73554   0.62165   0.00000  Uiso   1.00
H737   H     0.01590   0.65589   0.65378   0.00000  Uiso   1.00
H738   H     0.47444   0.69978   0.33516   0.00000  Uiso   1.00
H739   H     0.46462   0.65825   0.61922   0.00000  Uiso   1.00
H740   H     0.25780   0.98870   0.59928   0.00000  Uiso   1.00
H741   H     0.26692   0.54758   0.62647   0.00000  Uiso   1.00
H742   H     0.34005   0.52136   0.65674   0.00000  Uiso   1.00
H743   H     0.29839   0.97938   0.34344   0.00000  Uiso   1.00
H744   H     0.33331   0.96386   0.62667   0.00000  Uiso   1.00
H745   H     0.20226   0.62526   0.44309   0.00000  Uiso   1.00
H746   H     0.18335   0.50301   0.56939   0.00000  Uiso   1.00
H747   H     0.15968   0.94291   0.57468   0.00000  Uiso   1.00
H748   H     0.08918   0.97410   0.53944   0.00000  Uiso   1.00
H749   H     0.10570   0.50609   0.59411   0.00000  Uiso   1.00
H750   H     0.11301   0.53379   0.53455   0.00000  Uiso   1.00
H751   H     0.24298   0.99254   0.40218   0.00000  Uiso   1.00
H752   H     0.22976   0.55038   0.37371   0.00000  Uiso   1.00
H753   H     0.15765   0.51836   0.34631   0.00000  Uiso   1.00
H754   H     0.20132   0.97971   0.65938   0.00000  Uiso   1.00
H755   H     0.16866   0.96169   0.37761   0.00000  Uiso   1.00
H756   H     0.31859   0.87707   0.50972   0.00000  Uiso   1.00
H757   H     0.31797   0.50952   0.43573   0.00000  Uiso   1.00
H758   H     0.33660   0.94817   0.42627   0.00000  Uiso   1.00
H759   H     0.40986   0.96958   0.46107   0.00000  Uiso   1.00
H760   H     0.39514   0.50780   0.40935   0.00000  Uiso   1.00
H761   H     0.39140   0.53062   0.47092   0.00000  Uiso   1.00
H762   H     0.48621   0.75841   0.39768   0.00000  Uiso   1.00
H763   H     0.04002   0.76421   0.37028   0.00000  Uiso   1.00
H764   H     0.01990   0.84407   0.33689   0.00000  Uiso   1.00
H765   H     0.47807   0.80080   0.65298   0.00000  Uiso   1.00
H766   H     0.46803   0.84225   0.36846   0.00000  Uiso   1.00
N767   N     0.25000   0.62935   0.50000   0.00000  Uiso   1.00
N768   N     0.25000   0.87066   0.50000   0.00000  Uiso   1.00
O769   O     0.18573   0.79072   0.50000   0.00000  Uiso   1.00
O770   O     0.47621   0.66221   0.48788   0.00000  Uiso   1.00
O771   O     0.47432   0.83697   0.49639   0.00000  Uiso   1.00
O772   O     0.02628   0.69028   0.56218   0.00000  Uiso   1.00
O773   O     0.30536   0.53146   0.56622   0.00000  Uiso   1.00
O774   O     0.16959   0.96853   0.50341   0.00000  Uiso   1.00
O775   O     0.19366   0.53200   0.43535   0.00000  Uiso   1.00
O776   O     0.32982   0.96921   0.49930   0.00000  Uiso   1.00
O777   O     0.31427   0.70929   0.50000   0.00000  Uiso   1.00
O778   O     0.31427   0.79072   0.50000   0.00000  Uiso   1.00
O779   O     0.18573   0.70929   0.50000   0.00000  Uiso   1.00
O780   O     0.25000   0.79071   0.42946   0.00000  Uiso   1.00
O781   O     0.25000   0.70929   0.57054   0.00000  Uiso   1.00
O782   O     0.25000   0.79071   0.57054   0.00000  Uiso   1.00
O783   O     0.25000   0.70929   0.42946   0.00000  Uiso   1.00
O784   O     0.02787   0.80942   0.42913   0.00000  Uiso   1.00
Br785  Br    0.62538   0.81691   0.41546   0.00000  Uiso   1.00
Br786  Br    0.88174   0.64122   0.49824   0.00000  Uiso   1.00
Br787  Br    0.88352   0.84816   0.45361   0.00000  Uiso   1.00
Br788  Br    0.62372   0.68213   0.58113   0.00000  Uiso   1.00
C789   C     0.66519   0.74996   0.49975   0.00000  Uiso   1.00
C790   C     0.78939   0.94650   0.50040   0.00000  Uiso   1.00
C791   C     0.74990   0.75015   0.40683   0.00000  Uiso   1.00
C792   C     0.75000   0.74985   0.59316   0.00000  Uiso   1.00
C793   C     0.74952   0.52760   0.50071   0.00000  Uiso   1.00
C794   C     0.74963   0.97294   0.50064   0.00000  Uiso   1.00
C795   C     0.74989   0.75020   0.35516   0.00000  Uiso   1.00
C796   C     0.74992   0.74979   0.64484   0.00000  Uiso   1.00
C797   C     0.54892   0.77816   0.46161   0.00000  Uiso   1.00
C798   C     0.95375   0.70541   0.49069   0.00000  Uiso   1.00
C799   C     0.95301   0.79294   0.49391   0.00000  Uiso   1.00
C800   C     0.83521   0.74980   0.49704   0.00000  Uiso   1.00
C801   C     0.54817   0.72153   0.53110   0.00000  Uiso   1.00
C802   C     0.59475   0.77855   0.46355   0.00000  Uiso   1.00
C803   C     0.90789   0.70468   0.49406   0.00000  Uiso   1.00
C804   C     0.90774   0.79206   0.48558   0.00000  Uiso   1.00
C805   C     0.59404   0.72110   0.53187   0.00000  Uiso   1.00
C806   C     0.61735   0.74991   0.49846   0.00000  Uiso   1.00
C807   C     0.88388   0.74876   0.49227   0.00000  Uiso   1.00
C808   C     0.52524   0.74993   0.49576   0.00000  Uiso   1.00
C809   C     0.97665   0.74944   0.49411   0.00000  Uiso   1.00
C810   C     0.51273   0.78405   0.38771   0.00000  Uiso   1.00
C811   C     0.77595   0.60475   0.53264   0.00000  Uiso   1.00
C812   C     0.99356   0.82005   0.35084   0.00000  Uiso   1.00
C813   C     0.98517   0.65283   0.43832   0.00000  Uiso   1.00
C814   C     0.50387   0.60228   0.43441   0.00000  Uiso   1.00
C815   C     0.98124   0.84863   0.54611   0.00000  Uiso   1.00
C816   C     0.50207   0.89839   0.54923   0.00000  Uiso   1.00
C817   C     0.51044   0.71584   0.60253   0.00000  Uiso   1.00
C818   C     0.99014   0.68016   0.63828   0.00000  Uiso   1.00
C819   C     0.78290   0.51647   0.60846   0.00000  Uiso   1.00
C820   C     0.81576   0.99391   0.64443   0.00000  Uiso   1.00
C821   C     0.65956   0.97710   0.55284   0.00000  Uiso   1.00
C822   C     0.71118   0.89535   0.49897   0.00000  Uiso   1.00
C823   C     0.61397   0.99916   0.55534   0.00000  Uiso   1.00
C824   C     0.71606   0.51825   0.39297   0.00000  Uiso   1.00
C825   C     0.68387   0.99297   0.35857   0.00000  Uiso   1.00
C826   C     0.83983   0.98040   0.45016   0.00000  Uiso   1.00
C827   C     0.88705   0.99823   0.44777   0.00000  Uiso   1.00
C828   C     0.72335   0.60512   0.46814   0.00000  Uiso   1.00
C829   C     0.78832   0.89588   0.50372   0.00000  Uiso   1.00
C830   C     0.77621   0.55405   0.53422   0.00000  Uiso   1.00
C831   C     0.70999   0.94604   0.50165   0.00000  Uiso   1.00
C832   C     0.72282   0.55441   0.46711   0.00000  Uiso   1.00
Cu833  Cu    0.75000   0.79822   0.50000   0.00000  Uiso   1.00
Cu834  Cu    0.75000   0.70179   0.50000   0.00000  Uiso   1.00
H835   H     0.79673   0.62460   0.55789   0.00000  Uiso   1.00
H836   H     0.51000   0.67870   0.42418   0.00000  Uiso   1.00
H837   H     0.95476   0.65482   0.41502   0.00000  Uiso   1.00
H838   H     0.97966   0.57541   0.44785   0.00000  Uiso   1.00
H839   H     0.51127   0.59446   0.39559   0.00000  Uiso   1.00
H840   H     0.53465   0.59925   0.45667   0.00000  Uiso   1.00
H841   H     0.50409   0.82249   0.56424   0.00000  Uiso   1.00
H842   H     0.94961   0.84927   0.56614   0.00000  Uiso   1.00
H843   H     0.97994   0.92564   0.53190   0.00000  Uiso   1.00
H844   H     0.50788   0.90795   0.58822   0.00000  Uiso   1.00
H845   H     0.53401   0.89866   0.53008   0.00000  Uiso   1.00
H846   H     0.68035   0.87615   0.49774   0.00000  Uiso   1.00
H847   H     0.98440   0.74162   0.59082   0.00000  Uiso   1.00
H848   H     0.53752   0.73554   0.62165   0.00000  Uiso   1.00
H849   H     0.51590   0.65589   0.65378   0.00000  Uiso   1.00
H850   H     0.97444   0.69978   0.33516   0.00000  Uiso   1.00
H851   H     0.96462   0.65825   0.61922   0.00000  Uiso   1.00
H852   H     0.75780   0.98870   0.59928   0.00000  Uiso   1.00
H853   H     0.76692   0.54758   0.62647   0.00000  Uiso   1.00
H854   H     0.84005   0.52136   0.65674   0.00000  Uiso   1.00
H855   H     0.79839   0.97938   0.34344   0.00000  Uiso   1.00
H856   H     0.83331   0.96386   0.62667   0.00000  Uiso   1.00
H857   H     0.70226   0.62526   0.44309   0.00000  Uiso   1.00
H858   H     0.68335   0.50301   0.56939   0.00000  Uiso   1.00
H859   H     0.65968   0.94291   0.57468   0.00000  Uiso   1.00
H860   H     0.58918   0.97410   0.53944   0.00000  Uiso   1.00
H861   H     0.60570   0.50609   0.59411   0.00000  Uiso   1.00
H862   H     0.61301   0.53379   0.53455   0.00000  Uiso   1.00
H863   H     0.74298   0.99254   0.40218   0.00000  Uiso   1.00
H864   H     0.72976   0.55038   0.37371   0.00000  Uiso   1.00
H865   H     0.65765   0.51836   0.34631   0.00000  Uiso   1.00
H866   H     0.70132   0.97971   0.65938   0.00000  Uiso   1.00
H867   H     0.66866   0.96169   0.37761   0.00000  Uiso   1.00
H868   H     0.81859   0.87707   0.50972   0.00000  Uiso   1.00
H869   H     0.81797   0.50952   0.43573   0.00000  Uiso   1.00
H870   H     0.83660   0.94817   0.42627   0.00000  Uiso   1.00
H871   H     0.90986   0.96958   0.46107   0.00000  Uiso   1.00
H872   H     0.89514   0.50780   0.40935   0.00000  Uiso   1.00
H873   H     0.89140   0.53062   0.47092   0.00000  Uiso   1.00
H874   H     0.98621   0.75841   0.39768   0.00000  Uiso   1.00
H875   H     0.54002   0.76421   0.37028   0.00000  Uiso   1.00
H876   H     0.51990   0.84407   0.33689   0.00000  Uiso   1.00
H877   H     0.97807   0.80080   0.65298   0.00000  Uiso   1.00
H878   H     0.96803   0.84225   0.36846   0.00000  Uiso   1.00
N879   N     0.75000   0.62935   0.50000   0.00000  Uiso   1.00
N880   N     0.75000   0.87066   0.50000   0.00000  Uiso   1.00
O881   O     0.68573   0.79072   0.50000   0.00000  Uiso   1.00
O882   O     0.97621   0.66221   0.48788   0.00000  Uiso   1.00
O883   O     0.97432   0.83697   0.49639   0.00000  Uiso   1.00
O884   O     0.52628   0.69028   0.56218   0.00000  Uiso   1.00
O885   O     0.80536   0.53146   0.56622   0.00000  Uiso   1.00
O886   O     0.66959   0.96853   0.50341   0.00000  Uiso   1.00
O887   O     0.69366   0.53200   0.43535   0.00000  Uiso   1.00
O888   O     0.82982   0.96921   0.49930   0.00000  Uiso   1.00
O889   O     0.81427   0.70929   0.50000   0.00000  Uiso   1.00
O890   O     0.81427   0.79072   0.50000   0.00000  Uiso   1.00
O891   O     0.68573   0.70929   0.50000   0.00000  Uiso   1.00
O892   O     0.75000   0.79071   0.42946   0.00000  Uiso   1.00
O893   O     0.75000   0.70929   0.57054   0.00000  Uiso   1.00
O894   O     0.75000   0.79071   0.57054   0.00000  Uiso   1.00
O895   O     0.75000   0.70929   0.42946   0.00000  Uiso   1.00
O896   O     0.52787   0.80942   0.42913   0.00000  Uiso   1.00
Br897  Br    0.12538   0.31691   0.74879   0.00000  Uiso   1.00
Br898  Br    0.38174   0.14122   0.83157   0.00000  Uiso   1.00
Br899  Br    0.38352   0.34816   0.78695   0.00000  Uiso   1.00
Br900  Br    0.12372   0.18213   0.91447   0.00000  Uiso   1.00
C901   C     0.16519   0.24996   0.83308   0.00000  Uiso   1.00
C902   C     0.28939   0.44650   0.83373   0.00000  Uiso   1.00
C903   C     0.24990   0.25015   0.74017   0.00000  Uiso   1.00
C904   C     0.25000   0.24985   0.92650   0.00000  Uiso   1.00
C905   C     0.24952   0.02760   0.83404   0.00000  Uiso   1.00
C906   C     0.24963   0.47294   0.83398   0.00000  Uiso   1.00
C907   C     0.24989   0.25020   0.68849   0.00000  Uiso   1.00
C908   C     0.24992   0.24979   0.97818   0.00000  Uiso   1.00
C909   C     0.04892   0.27816   0.79494   0.00000  Uiso   1.00
C910   C     0.45375   0.20541   0.82403   0.00000  Uiso   1.00
C911   C     0.45301   0.29294   0.82724   0.00000  Uiso   1.00
C912   C     0.33521   0.24980   0.83037   0.00000  Uiso   1.00
C913   C     0.04817   0.22153   0.86444   0.00000  Uiso   1.00
C914   C     0.09475   0.27855   0.79688   0.00000  Uiso   1.00
C915   C     0.40789   0.20468   0.82739   0.00000  Uiso   1.00
C916   C     0.40774   0.29206   0.81892   0.00000  Uiso   1.00
C917   C     0.09404   0.22110   0.86520   0.00000  Uiso   1.00
C918   C     0.11735   0.24991   0.83180   0.00000  Uiso   1.00
C919   C     0.38388   0.24876   0.82561   0.00000  Uiso   1.00
C920   C     0.02524   0.24993   0.82909   0.00000  Uiso   1.00
C921   C     0.47665   0.24944   0.82744   0.00000  Uiso   1.00
C922   C     0.01273   0.28405   0.72104   0.00000  Uiso   1.00
C923   C     0.27595   0.10475   0.86597   0.00000  Uiso   1.00
C924   C     0.49356   0.32005   0.68417   0.00000  Uiso   1.00
C925   C     0.48517   0.15283   0.77165   0.00000  Uiso   1.00
C926   C     0.00387   0.10228   0.76774   0.00000  Uiso   1.00
C927   C     0.48124   0.34863   0.87945   0.00000  Uiso   1.00
C928   C     0.00207   0.39839   0.88257   0.00000  Uiso   1.00
C929   C     0.01044   0.21584   0.93587   0.00000  Uiso   1.00
C930   C     0.49014   0.18016   0.97162   0.00000  Uiso   1.00
C931   C     0.28290   0.01647   0.94179   0.00000  Uiso   1.00
C932   C     0.31576   0.49391   0.97776   0.00000  Uiso   1.00
C933   C     0.15956   0.47710   0.88618   0.00000  Uiso   1.00
C934   C     0.21118   0.39535   0.83230   0.00000  Uiso   1.00
C935   C     0.11397   0.49916   0.88868   0.00000  Uiso   1.00
C936   C     0.21606   0.01825   0.72630   0.00000  Uiso   1.00
C937   C     0.18387   0.49297   0.69190   0.00000  Uiso   1.00
C938   C     0.33983   0.48040   0.78349   0.00000  Uiso   1.00
C939   C     0.38705   0.49823   0.78110   0.00000  Uiso   1.00
C940   C     0.22335   0.10512   0.80148   0.00000  Uiso   1.00
C941   C     0.28832   0.39588   0.83705   0.00000  Uiso   1.00
C942   C     0.27621   0.05405   0.86755   0.00000  Uiso   1.00
C943   C     0.20999   0.44604   0.83498   0.00000  Uiso   1.00
C944   C     0.22282   0.05441   0.80045   0.00000  Uiso   1.00
Cu945  Cu    0.25000   0.29822   0.83333   0.00000  Uiso   1.00
Cu946  Cu    0.25000   0.20179   0.83333   0.00000  Uiso   1.00
H947   H     0.29673   0.12460   0.89123   0.00000  Uiso   1.00
H948   H     0.01000   0.17870   0.75751   0.00000  Uiso   1.00
H949   H     0.45476   0.15482   0.74835   0.00000  Uiso   1.00
H950   H     0.47966   0.07541   0.78119   0.00000  Uiso   1.00
H951   H     0.01127   0.09446   0.72893   0.00000  Uiso   1.00
H952   H     0.03465   0.09925   0.79001   0.00000  Uiso   1.00
H953   H     0.00409   0.32249   0.89757   0.00000  Uiso   1.00
H954   H     0.44961   0.34927   0.89947   0.00000  Uiso   1.00
H955   H     0.47994   0.42564   0.86524   0.00000  Uiso   1.00
H956   H     0.00788   0.40795   0.92155   0.00000  Uiso   1.00
H957   H     0.03401   0.39866   0.86341   0.00000  Uiso   1.00
H958   H     0.18035   0.37615   0.83107   0.00000  Uiso   1.00
H959   H     0.48440   0.24162   0.92415   0.00000  Uiso   1.00
H960   H     0.03752   0.23554   0.95499   0.00000  Uiso   1.00
H961   H     0.01590   0.15589   0.98712   0.00000  Uiso   1.00
H962   H     0.47444   0.19978   0.66849   0.00000  Uiso   1.00
H963   H     0.46462   0.15825   0.95256   0.00000  Uiso   1.00
H964   H     0.25780   0.48870   0.93262   0.00000  Uiso   1.00
H965   H     0.26692   0.04758   0.95980   0.00000  Uiso   1.00
H966   H     0.34005   0.02136   0.99008   0.00000  Uiso   1.00
H967   H     0.29839   0.47938   0.67677   0.00000  Uiso   1.00
H968   H     0.33331   0.46386   0.96000   0.00000  Uiso   1.00
H969   H     0.20226   0.12526   0.77643   0.00000  Uiso   1.00
H970   H     0.18335   0.00301   0.90273   0.00000  Uiso   1.00
H971   H     0.15968   0.44291   0.90801   0.00000  Uiso   1.00
H972   H     0.08918   0.47410   0.87277   0.00000  Uiso   1.00
H973   H     0.10570   0.00609   0.92745   0.00000  Uiso   1.00
H974   H     0.11301   0.03379   0.86789   0.00000  Uiso   1.00
H975   H     0.24298   0.49254   0.73551   0.00000  Uiso   1.00
H976   H     0.22976   0.05038   0.70704   0.00000  Uiso   1.00
H977   H     0.15765   0.01836   0.67964   0.00000  Uiso   1.00
H978   H     0.20132   0.47971   0.99271   0.00000  Uiso   1.00
H979   H     0.16866   0.46169   0.71094   0.00000  Uiso   1.00
H980   H     0.31859   0.37707   0.84305   0.00000  Uiso   1.00
H981   H     0.31797   0.00952   0.76906   0.00000  Uiso   1.00
H982   H     0.33660   0.44817   0.75960   0.00000  Uiso   1.00
H983   H     0.40986   0.46958   0.79441   0.00000  Uiso   1.00
H984   H     0.39514   0.00780   0.74268   0.00000  Uiso   1.00
H985   H     0.39140   0.03062   0.80425   0.00000  Uiso   1.00
H986   H     0.48621   0.25841   0.73101   0.00000  Uiso   1.00
H987   H     0.04002   0.26421   0.70361   0.00000  Uiso   1.00
H988   H     0.01990   0.34407   0.67023   0.00000  Uiso   1.00
H989   H     0.47807   0.30080   0.98631   0.00000  Uiso   1.00
H990   H     0.46803   0.34225   0.70179   0.00000  Uiso   1.00
N991   N     0.25000   0.12935   0.83333   0.00000  Uiso   1.00
N992   N     0.25000   0.37066   0.83333   0.00000  Uiso   1.00
O993   O     0.18573   0.29072   0.83334   0.00000  Uiso   1.00
O994   O     0.47621   0.16221   0.82121   0.00000  Uiso   1.00
O995   O     0.47432   0.33697   0.82973   0.00000  Uiso   1.00
O996   O     0.02628   0.19028   0.89551   0.00000  Uiso   1.00
O997   O     0.30536   0.03146   0.89955   0.00000  Uiso   1.00
O998   O     0.16959   0.46853   0.83674   0.00000  Uiso   1.00
O999   O     0.19366   0.03200   0.76869   0.00000  Uiso   1.00
O1000  O     0.32982   0.46921   0.83264   0.00000  Uiso   1.00
O1001  O     0.31427   0.20929   0.83333   0.00000  Uiso   1.00
O1002  O     0.31427   0.29072   0.83333   0.00000  Uiso   1.00
O1003  O     0.18573   0.20929   0.83334   0.00000  Uiso   1.00
O1004  O     0.25000   0.29071   0.76280   0.00000  Uiso   1.00
O1005  O     0.25000   0.20929   0.90387   0.00000  Uiso   1.00
O1006  O     0.25000   0.29071   0.90387   0.00000  Uiso   1.00
O1007  O     0.25000   0.20929   0.76280   0.00000  Uiso   1.00
O1008  O     0.02787   0.30942   0.76247   0.00000  Uiso   1.00
Br1009 Br    0.62538   0.31691   0.74879   0.00000  Uiso   1.00
Br1010 Br    0.88174   0.14122   0.83157   0.00000  Uiso   1.00
Br1011 Br    0.88352   0.34816   0.78695   0.00000  Uiso   1.00
Br1012 Br    0.62372   0.18213   0.91447   0.00000  Uiso   1.00
C1013  C     0.66519   0.24996   0.83308   0.00000  Uiso   1.00
C1014  C     0.78939   0.44650   0.83373   0.00000  Uiso   1.00
C1015  C     0.74990   0.25015   0.74017   0.00000  Uiso   1.00
C1016  C     0.75000   0.24985   0.92650   0.00000  Uiso   1.00
C1017  C     0.74952   0.02760   0.83404   0.00000  Uiso   1.00
C1018  C     0.74963   0.47294   0.83398   0.00000  Uiso   1.00
C1019  C     0.74989   0.25020   0.68849   0.00000  Uiso   1.00
C1020  C     0.74992   0.24979   0.97818   0.00000  Uiso   1.00
C1021  C     0.54892   0.27816   0.79494   0.00000  Uiso   1.00
C1022  C     0.95375   0.20541   0.82403   0.00000  Uiso   1.00
C1023  C     0.95301   0.29294   0.82724   0.00000  Uiso   1.00
C1024  C     0.83521   0.24980   0.83037   0.00000  Uiso   1.00
C1025  C     0.54817   0.22153   0.86444   0.00000  Uiso   1.00
C1026  C     0.59475   0.27855   0.79688   0.00000  Uiso   1.00
C1027  C     0.90789   0.20468   0.82739   0.00000  Uiso   1.00
C1028  C     0.90774   0.29206   0.81892   0.00000  Uiso   1.00
C1029  C     0.59404   0.22110   0.86520   0.00000  Uiso   1.00
C1030  C     0.61735   0.24991   0.83180   0.00000  Uiso   1.00
C1031  C     0.88388   0.24876   0.82561   0.00000  Uiso   1.00
C1032  C     0.52524   0.24993   0.82909   0.00000  Uiso   1.00
C1033  C     0.97665   0.24944   0.82744   0.00000  Uiso   1.00
C1034  C     0.51273   0.28405   0.72104   0.00000  Uiso   1.00
C1035  C     0.77595   0.10475   0.86597   0.00000  Uiso   1.00
C1036  C     0.99356   0.32005   0.68417   0.00000  Uiso   1.00
C1037  C     0.98517   0.15283   0.77165   0.00000  Uiso   1.00
C1038  C     0.50387   0.10228   0.76774   0.00000  Uiso   1.00
C1039  C     0.98124   0.34863   0.87945   0.00000  Uiso   1.00
C1040  C     0.50207   0.39839   0.88257   0.00000  Uiso   1.00
C1041  C     0.51044   0.21584   0.93587   0.00000  Uiso   1.00
C1042  C     0.99014   0.18016   0.97162   0.00000  Uiso   1.00
C1043  C     0.78290   0.01647   0.94179   0.00000  Uiso   1.00
C1044  C     0.81576   0.49391   0.97776   0.00000  Uiso   1.00
C1045  C     0.65956   0.47710   0.88618   0.00000  Uiso   1.00
C1046  C     0.71118   0.39535   0.83230   0.00000  Uiso   1.00
C1047  C     0.61397   0.49916   0.88868   0.00000  Uiso   1.00
C1048  C     0.71606   0.01825   0.72630   0.00000  Uiso   1.00
C1049  C     0.68387   0.49297   0.69190   0.00000  Uiso   1.00
C1050  C     0.83983   0.48040   0.78349   0.00000  Uiso   1.00
C1051  C     0.88705   0.49823   0.78110   0.00000  Uiso   1.00
C1052  C     0.72335   0.10512   0.80148   0.00000  Uiso   1.00
C1053  C     0.78832   0.39588   0.83705   0.00000  Uiso   1.00
C1054  C     0.77621   0.05405   0.86755   0.00000  Uiso   1.00
C1055  C     0.70999   0.44604   0.83498   0.00000  Uiso   1.00
C1056  C     0.72282   0.05441   0.80045   0.00000  Uiso   1.00
Cu1057 Cu    0.75000   0.29822   0.83333   0.00000  Uiso   1.00
Cu1058 Cu    0.75000   0.20179   0.83333   0.00000  Uiso   1.00
H1059  H     0.79673   0.12460   0.89123   0.00000  Uiso   1.00
H1060  H     0.51000   0.17870   0.75751   0.00000  Uiso   1.00
H1061  H     0.95476   0.15482   0.74835   0.00000  Uiso   1.00
H1062  H     0.97966   0.07541   0.78119   0.00000  Uiso   1.00
H1063  H     0.51127   0.09446   0.72893   0.00000  Uiso   1.00
H1064  H     0.53465   0.09925   0.79001   0.00000  Uiso   1.00
H1065  H     0.50409   0.32249   0.89757   0.00000  Uiso   1.00
H1066  H     0.94961   0.34927   0.89947   0.00000  Uiso   1.00
H1067  H     0.97994   0.42564   0.86524   0.00000  Uiso   1.00
H1068  H     0.50788   0.40795   0.92155   0.00000  Uiso   1.00
H1069  H     0.53401   0.39866   0.86341   0.00000  Uiso   1.00
H1070  H     0.68035   0.37615   0.83107   0.00000  Uiso   1.00
H1071  H     0.98440   0.24162   0.92415   0.00000  Uiso   1.00
H1072  H     0.53752   0.23554   0.95499   0.00000  Uiso   1.00
H1073  H     0.51590   0.15589   0.98712   0.00000  Uiso   1.00
H1074  H     0.97444   0.19978   0.66849   0.00000  Uiso   1.00
H1075  H     0.96462   0.15825   0.95256   0.00000  Uiso   1.00
H1076  H     0.75780   0.48870   0.93262   0.00000  Uiso   1.00
H1077  H     0.76692   0.04758   0.95980   0.00000  Uiso   1.00
H1078  H     0.84005   0.02136   0.99008   0.00000  Uiso   1.00
H1079  H     0.79839   0.47938   0.67677   0.00000  Uiso   1.00
H1080  H     0.83331   0.46386   0.96000   0.00000  Uiso   1.00
H1081  H     0.70226   0.12526   0.77643   0.00000  Uiso   1.00
H1082  H     0.68335   0.00301   0.90273   0.00000  Uiso   1.00
H1083  H     0.65968   0.44291   0.90801   0.00000  Uiso   1.00
H1084  H     0.58918   0.47410   0.87277   0.00000  Uiso   1.00
H1085  H     0.60570   0.00609   0.92745   0.00000  Uiso   1.00
H1086  H     0.61301   0.03379   0.86789   0.00000  Uiso   1.00
H1087  H     0.74298   0.49254   0.73551   0.00000  Uiso   1.00
H1088  H     0.72976   0.05038   0.70704   0.00000  Uiso   1.00
H1089  H     0.65765   0.01836   0.67964   0.00000  Uiso   1.00
H1090  H     0.70132   0.47971   0.99271   0.00000  Uiso   1.00
H1091  H     0.66866   0.46169   0.71094   0.00000  Uiso   1.00
H1092  H     0.81859   0.37707   0.84305   0.00000  Uiso   1.00
H1093  H     0.81797   0.00952   0.76906   0.00000  Uiso   1.00
H1094  H     0.83660   0.44817   0.75960   0.00000  Uiso   1.00
H1095  H     0.90986   0.46958   0.79441   0.00000  Uiso   1.00
H1096  H     0.89514   0.00780   0.74268   0.00000  Uiso   1.00
H1097  H     0.89140   0.03062   0.80425   0.00000  Uiso   1.00
H1098  H     0.98621   0.25841   0.73101   0.00000  Uiso   1.00
H1099  H     0.54002   0.26421   0.70361   0.00000  Uiso   1.00
H1100  H     0.51990   0.34407   0.67023   0.00000  Uiso   1.00
H1101  H     0.97807   0.30080   0.98631   0.00000  Uiso   1.00
H1102  H     0.96803   0.34225   0.70179   0.00000  Uiso   1.00
N1103  N     0.75000   0.12935   0.83333   0.00000  Uiso   1.00
N1104  N     0.75000   0.37066   0.83333   0.00000  Uiso   1.00
O1105  O     0.68573   0.29072   0.83334   0.00000  Uiso   1.00
O1106  O     0.97621   0.16221   0.82121   0.00000  Uiso   1.00
O1107  O     0.97432   0.33697   0.82973   0.00000  Uiso   1.00
O1108  O     0.52628   0.19028   0.89551   0.00000  Uiso   1.00
O1109  O     0.80536   0.03146   0.89955   0.00000  Uiso   1.00
O1110  O     0.66959   0.46853   0.83674   0.00000  Uiso   1.00
O1111  O     0.69366   0.03200   0.76869   0.00000  Uiso   1.00
O1112  O     0.82982   0.46921   0.83264   0.00000  Uiso   1.00
O1113  O     0.81427   0.20929   0.83333   0.00000  Uiso   1.00
O1114  O     0.81427   0.29072   0.83333   0.00000  Uiso   1.00
O1115  O     0.68573   0.20929   0.83334   0.00000  Uiso   1.00
O1116  O     0.75000   0.29071   0.76280   0.00000  Uiso   1.00
O1117  O     0.75000   0.20929   0.90387   0.00000  Uiso   1.00
O1118  O     0.75000   0.29071   0.90387   0.00000  Uiso   1.00
O1119  O     0.75000   0.20929   0.76280   0.00000  Uiso   1.00
O1120  O     0.52787   0.30942   0.76247   0.00000  Uiso   1.00
Br1121 Br    0.12538   0.81691   0.74879   0.00000  Uiso   1.00
Br1122 Br    0.38174   0.64122   0.83157   0.00000  Uiso   1.00
Br1123 Br    0.38352   0.84816   0.78695   0.00000  Uiso   1.00
Br1124 Br    0.12372   0.68213   0.91447   0.00000  Uiso   1.00
C1125  C     0.16519   0.74996   0.83308   0.00000  Uiso   1.00
C1126  C     0.28939   0.94650   0.83373   0.00000  Uiso   1.00
C1127  C     0.24990   0.75015   0.74017   0.00000  Uiso   1.00
C1128  C     0.25000   0.74985   0.92650   0.00000  Uiso   1.00
C1129  C     0.24952   0.52760   0.83404   0.00000  Uiso   1.00
C1130  C     0.24963   0.97294   0.83398   0.00000  Uiso   1.00
C1131  C     0.24989   0.75020   0.68849   0.00000  Uiso   1.00
C1132  C     0.24992   0.74979   0.97818   0.00000  Uiso   1.00
C1133  C     0.04892   0.77816   0.79494   0.00000  Uiso   1.00
C1134  C     0.45375   0.70541   0.82403   0.00000  Uiso   1.00
C1135  C     0.45301   0.79294   0.82724   0.00000  Uiso   1.00
C1136  C     0.33521   0.74980   0.83037   0.00000  Uiso   1.00
C1137  C     0.04817   0.72153   0.86444   0.00000  Uiso   1.00
C1138  C     0.09475   0.77855   0.79688   0.00000  Uiso   1.00
C1139  C     0.40789   0.70468   0.82739   0.00000  Uiso   1.00
C1140  C     0.40774   0.79206   0.81892   0.00000  Uiso   1.00
C1141  C     0.09404   0.72110   0.86520   0.00000  Uiso   1.00
C1142  C     0.11735   0.74991   0.83180   0.00000  Uiso   1.00
C1143  C     0.38388   0.74876   0.82561   0.00000  Uiso   1.00
C1144  C     0.02524   0.74993   0.82909   0.00000  Uiso   1.00
C1145  C     0.47665   0.74944   0.82744   0.00000  Uiso   1.00
C1146  C     0.01273   0.78405   0.72104   0.00000  Uiso   1.00
C1147  C     0.27595   0.60475   0.86597   0.00000  Uiso   1.00
C1148  C     0.49356   0.82005   0.68417   0.00000  Uiso   1.00
C1149  C     0.48517   0.65283   0.77165   0.00000  Uiso   1.00
C1150  C     0.00387   0.60228   0.76774   0.00000  Uiso   1.00
C1151  C     0.48124   0.84863   0.87945   0.00000  Uiso   1.00
C1152  C     0.00207   0.89839   0.88257   0.00000  Uiso   1.00
C1153  C     0.01044   0.71584   0.93587   0.00000  Uiso   1.00
C1154  C     0.49014   0.68016   0.97162   0.00000  Uiso   1.00
C1155  C     0.28290   0.51647   0.94179   0.00000  Uiso   1.00
C1156  C     0.31576   0.99391   0.97776   0.00000  Uiso   1.00
C1157  C     0.15956   0.97710   0.88618   0.00000  Uiso   1.00
C1158  C     0.21118   0.89535   0.83230   0.00000  Uiso   1.00
C1159  C     0.11397   0.99916   0.88868   0.00000  Uiso   1.00
C1160  C     0.21606   0.51825   0.72630   0.00000  Uiso   1.00
C1161  C     0.18387   0.99297   0.69190   0.00000  Uiso   1.00
C1162  C     0.33983   0.98040   0.78349   0.00000  Uiso   1.00
C1163  C     0.38705   0.99823   0.78110   0.00000  Uiso   1.00
C1164  C     0.22335   0.60512   0.80148   0.00000  Uiso   1.00
C1165  C     0.28832   0.89588   0.83705   0.00000  Uiso   1.00
C1166  C     0.27621   0.55405   0.86755   0.00000  Uiso   1.00
C1167  C     0.20999   0.94604   0.83498   0.00000  Uiso   1.00
C1168  C     0.22282   0.55441   0.80045   0.00000  Uiso   1.00
Cu1169 Cu    0.25000   0.79822   0.83333   0.00000  Uiso   1.00
Cu1170 Cu    0.25000   0.70179   0.83333   0.00000  Uiso   1.00
H1171  H     0.29673   0.62460   0.89123   0.00000  Uiso   1.00
H1172  H     0.01000   0.67870   0.75751   0.00000  Uiso   1.00
H1173  H     0.45476   0.65482   0.74835   0.00000  Uiso   1.00
H1174  H     0.47966   0.57541   0.78119   0.00000  Uiso   1.00
H1175  H     0.01127   0.59446   0.72893   0.00000  Uiso   1.00
H1176  H     0.03465   0.59925   0.79001   0.00000  Uiso   1.00
H1177  H     0.00409   0.82249   0.89757   0.00000  Uiso   1.00
H1178  H     0.44961   0.84927   0.89947   0.00000  Uiso   1.00
H1179  H     0.47994   0.92564   0.86524   0.00000  Uiso   1.00
H1180  H     0.00788   0.90795   0.92155   0.00000  Uiso   1.00
H1181  H     0.03401   0.89866   0.86341   0.00000  Uiso   1.00
H1182  H     0.18035   0.87615   0.83107   0.00000  Uiso   1.00
H1183  H     0.48440   0.74162   0.92415   0.00000  Uiso   1.00
H1184  H     0.03752   0.73554   0.95499   0.00000  Uiso   1.00
H1185  H     0.01590   0.65589   0.98712   0.00000  Uiso   1.00
H1186  H     0.47444   0.69978   0.66849   0.00000  Uiso   1.00
H1187  H     0.46462   0.65825   0.95256   0.00000  Uiso   1.00
H1188  H     0.25780   0.98870   0.93262   0.00000  Uiso   1.00
H1189  H     0.26692   0.54758   0.95980   0.00000  Uiso   1.00
H1190  H     0.34005   0.52136   0.99008   0.00000  Uiso   1.00
H1191  H     0.29839   0.97938   0.67677   0.00000  Uiso   1.00
H1192  H     0.33331   0.96386   0.96000   0.00000  Uiso   1.00
H1193  H     0.20226   0.62526   0.77643   0.00000  Uiso   1.00
H1194  H     0.18335   0.50301   0.90273   0.00000  Uiso   1.00
H1195  H     0.15968   0.94291   0.90801   0.00000  Uiso   1.00
H1196  H     0.08918   0.97410   0.87277   0.00000  Uiso   1.00
H1197  H     0.10570   0.50609   0.92745   0.00000  Uiso   1.00
H1198  H     0.11301   0.53379   0.86789   0.00000  Uiso   1.00
H1199  H     0.24298   0.99254   0.73551   0.00000  Uiso   1.00
H1200  H     0.22976   0.55038   0.70704   0.00000  Uiso   1.00
H1201  H     0.15765   0.51836   0.67964   0.00000  Uiso   1.00
H1202  H     0.20132   0.97971   0.99271   0.00000  Uiso   1.00
H1203  H     0.16866   0.96169   0.71094   0.00000  Uiso   1.00
H1204  H     0.31859   0.87707   0.84305   0.00000  Uiso   1.00
H1205  H     0.31797   0.50952   0.76906   0.00000  Uiso   1.00
H1206  H     0.33660   0.94817   0.75960   0.00000  Uiso   1.00
H1207  H     0.40986   0.96958   0.79441   0.00000  Uiso   1.00
H1208  H     0.39514   0.50780   0.74268   0.00000  Uiso   1.00
H1209  H     0.39140   0.53062   0.80425   0.00000  Uiso   1.00
H1210  H     0.48621   0.75841   0.73101   0.00000  Uiso   1.00
H1211  H     0.04002   0.76421   0.70361   0.00000  Uiso   1.00
H1212  H     0.01990   0.84407   0.67023   0.00000  Uiso   1.00
H1213  H     0.47807   0.80080   0.98631   0.00000  Uiso   1.00
H1214  H     0.46803   0.84225   0.70179   0.00000  Uiso   1.00
N1215  N     0.25000   0.62935   0.83333   0.00000  Uiso   1.00
N1216  N     0.25000   0.87066   0.83333   0.00000  Uiso   1.00
O1217  O     0.18573   0.79072   0.83334   0.00000  Uiso   1.00
O1218  O     0.47621   0.66221   0.82121   0.00000  Uiso   1.00
O1219  O     0.47432   0.83697   0.82973   0.00000  Uiso   1.00
O1220  O     0.02628   0.69028   0.89551   0.00000  Uiso   1.00
O1221  O     0.30536   0.53146   0.89955   0.00000  Uiso   1.00
O1222  O     0.16959   0.96853   0.83674   0.00000  Uiso   1.00
O1223  O     0.19366   0.53200   0.76869   0.00000  Uiso   1.00
O1224  O     0.32982   0.96921   0.83264   0.00000  Uiso   1.00
O1225  O     0.31427   0.70929   0.83333   0.00000  Uiso   1.00
O1226  O     0.31427   0.79072   0.83333   0.00000  Uiso   1.00
O1227  O     0.18573   0.70929   0.83334   0.00000  Uiso   1.00
O1228  O     0.25000   0.79071   0.76280   0.00000  Uiso   1.00
O1229  O     0.25000   0.70929   0.90387   0.00000  Uiso   1.00
O1230  O     0.25000   0.79071   0.90387   0.00000  Uiso   1.00
O1231  O     0.25000   0.70929   0.76280   0.00000  Uiso   1.00
O1232  O     0.02787   0.80942   0.76247   0.00000  Uiso   1.00
Br1233 Br    0.62538   0.81691   0.74879   0.00000  Uiso   1.00
Br1234 Br    0.88174   0.64122   0.83157   0.00000  Uiso   1.00
Br1235 Br    0.88352   0.84816   0.78695   0.00000  Uiso   1.00
Br1236 Br    0.62372   0.68213   0.91447   0.00000  Uiso   1.00
C1237  C     0.66519   0.74996   0.83308   0.00000  Uiso   1.00
C1238  C     0.78939   0.94650   0.83373   0.00000  Uiso   1.00
C1239  C     0.74990   0.75015   0.74017   0.00000  Uiso   1.00
C1240  C     0.75000   0.74985   0.92650   0.00000  Uiso   1.00
C1241  C     0.74952   0.52760   0.83404   0.00000  Uiso   1.00
C1242  C     0.74963   0.97294   0.83398   0.00000  Uiso   1.00
C1243  C     0.74989   0.75020   0.68849   0.00000  Uiso   1.00
C1244  C     0.74992   0.74979   0.97818   0.00000  Uiso   1.00
C1245  C     0.54892   0.77816   0.79494   0.00000  Uiso   1.00
C1246  C     0.95375   0.70541   0.82403   0.00000  Uiso   1.00
C1247  C     0.95301   0.79294   0.82724   0.00000  Uiso   1.00
C1248  C     0.83521   0.74980   0.83037   0.00000  Uiso   1.00
C1249  C     0.54817   0.72153   0.86444   0.00000  Uiso   1.00
C1250  C     0.59475   0.77855   0.79688   0.00000  Uiso   1.00
C1251  C     0.90789   0.70468   0.82739   0.00000  Uiso   1.00
C1252  C     0.90774   0.79206   0.81892   0.00000  Uiso   1.00
C1253  C     0.59404   0.72110   0.86520   0.00000  Uiso   1.00
C1254  C     0.61735   0.74991   0.83180   0.00000  Uiso   1.00
C1255  C     0.88388   0.74876   0.82561   0.00000  Uiso   1.00
C1256  C     0.52524   0.74993   0.82909   0.00000  Uiso   1.00
C1257  C     0.97665   0.74944   0.82744   0.00000  Uiso   1.00
C1258  C     0.51273   0.78405   0.72104   0.00000  Uiso   1.00
C1259  C     0.77595   0.60475   0.86597   0.00000  Uiso   1.00
C1260  C     0.99356   0.82005   0.68417   0.00000  Uiso   1.00
C1261  C     0.98517   0.65283   0.77165   0.00000  Uiso   1.00
C1262  C     0.50387   0.60228   0.76774   0.00000  Uiso   1.00
C1263  C     0.98124   0.84863   0.87945   0.00000  Uiso   1.00
C1264  C     0.50207   0.89839   0.88257   0.00000  Uiso   1.00
C1265  C     0.51044   0.71584   0.93587   0.00000  Uiso   1.00
C1266  C     0.99014   0.68016   0.97162   0.00000  Uiso   1.00
C1267  C     0.78290   0.51647   0.94179   0.00000  Uiso   1.00
C1268  C     0.81576   0.99391   0.97776   0.00000  Uiso   1.00
C1269  C     0.65956   0.97710   0.88618   0.00000  Uiso   1.00
C1270  C     0.71118   0.89535   0.83230   0.00000  Uiso   1.00
C1271  C     0.61397   0.99916   0.88868   0.00000  Uiso   1.00
C1272  C     0.71606   0.51825   0.72630   0.00000  Uiso   1.00
C1273  C     0.68387   0.99297   0.69190   0.00000  Uiso   1.00
C1274  C     0.83983   0.98040   0.78349   0.00000  Uiso   1.00
C1275  C     0.88705   0.99823   0.78110   0.00000  Uiso   1.00
C1276  C     0.72335   0.60512   0.80148   0.00000  Uiso   1.00
C1277  C     0.78832   0.89588   0.83705   0.00000  Uiso   1.00
C1278  C     0.77621   0.55405   0.86755   0.00000  Uiso   1.00
C1279  C     0.70999   0.94604   0.83498   0.00000  Uiso   1.00
C1280  C     0.72282   0.55441   0.80045   0.00000  Uiso   1.00
Cu1281 Cu    0.75000   0.79822   0.83333   0.00000  Uiso   1.00
Cu1282 Cu    0.75000   0.70179   0.83333   0.00000  Uiso   1.00
H1283  H     0.79673   0.62460   0.89123   0.00000  Uiso   1.00
H1284  H     0.51000   0.67870   0.75751   0.00000  Uiso   1.00
H1285  H     0.95476   0.65482   0.74835   0.00000  Uiso   1.00
H1286  H     0.97966   0.57541   0.78119   0.00000  Uiso   1.00
H1287  H     0.51127   0.59446   0.72893   0.00000  Uiso   1.00
H1288  H     0.53465   0.59925   0.79001   0.00000  Uiso   1.00
H1289  H     0.50409   0.82249   0.89757   0.00000  Uiso   1.00
H1290  H     0.94961   0.84927   0.89947   0.00000  Uiso   1.00
H1291  H     0.97994   0.92564   0.86524   0.00000  Uiso   1.00
H1292  H     0.50788   0.90795   0.92155   0.00000  Uiso   1.00
H1293  H     0.53401   0.89866   0.86341   0.00000  Uiso   1.00
H1294  H     0.68035   0.87615   0.83107   0.00000  Uiso   1.00
H1295  H     0.98440   0.74162   0.92415   0.00000  Uiso   1.00
H1296  H     0.53752   0.73554   0.95499   0.00000  Uiso   1.00
H1297  H     0.51590   0.65589   0.98712   0.00000  Uiso   1.00
H1298  H     0.97444   0.69978   0.66849   0.00000  Uiso   1.00
H1299  H     0.96462   0.65825   0.95256   0.00000  Uiso   1.00
H1300  H     0.75780   0.98870   0.93262   0.00000  Uiso   1.00
H1301  H     0.76692   0.54758   0.95980   0.00000  Uiso   1.00
H1302  H     0.84005   0.52136   0.99008   0.00000  Uiso   1.00
H1303  H     0.79839   0.97938   0.67677   0.00000  Uiso   1.00
H1304  H     0.83331   0.96386   0.96000   0.00000  Uiso   1.00
H1305  H     0.70226   0.62526   0.77643   0.00000  Uiso   1.00
H1306  H     0.68335   0.50301   0.90273   0.00000  Uiso   1.00
H1307  H     0.65968   0.94291   0.90801   0.00000  Uiso   1.00
H1308  H     0.58918   0.97410   0.87277   0.00000  Uiso   1.00
H1309  H     0.60570   0.50609   0.92745   0.00000  Uiso   1.00
H1310  H     0.61301   0.53379   0.86789   0.00000  Uiso   1.00
H1311  H     0.74298   0.99254   0.73551   0.00000  Uiso   1.00
H1312  H     0.72976   0.55038   0.70704   0.00000  Uiso   1.00
H1313  H     0.65765   0.51836   0.67964   0.00000  Uiso   1.00
H1314  H     0.70132   0.97971   0.99271   0.00000  Uiso   1.00
H1315  H     0.66866   0.96169   0.71094   0.00000  Uiso   1.00
H1316  H     0.81859   0.87707   0.84305   0.00000  Uiso   1.00
H1317  H     0.81797   0.50952   0.76906   0.00000  Uiso   1.00
H1318  H     0.83660   0.94817   0.75960   0.00000  Uiso   1.00
H1319  H     0.90986   0.96958   0.79441   0.00000  Uiso   1.00
H1320  H     0.89514   0.50780   0.74268   0.00000  Uiso   1.00
H1321  H     0.89140   0.53062   0.80425   0.00000  Uiso   1.00
H1322  H     0.98621   0.75841   0.73101   0.00000  Uiso   1.00
H1323  H     0.54002   0.76421   0.70361   0.00000  Uiso   1.00
H1324  H     0.51990   0.84407   0.67023   0.00000  Uiso   1.00
H1325  H     0.97807   0.80080   0.98631   0.00000  Uiso   1.00
H1326  H     0.96803   0.84225   0.70179   0.00000  Uiso   1.00
N1327  N     0.75000   0.62935   0.83333   0.00000  Uiso   1.00
N1328  N     0.75000   0.87066   0.83333   0.00000  Uiso   1.00
O1329  O     0.68573   0.79072   0.83334   0.00000  Uiso   1.00
O1330  O     0.97621   0.66221   0.82121   0.00000  Uiso   1.00
O1331  O     0.97432   0.83697   0.82973   0.00000  Uiso   1.00
O1332  O     0.52628   0.69028   0.89551   0.00000  Uiso   1.00
O1333  O     0.80536   0.53146   0.89955   0.00000  Uiso   1.00
O1334  O     0.66959   0.96853   0.83674   0.00000  Uiso   1.00
O1335  O     0.69366   0.53200   0.76869   0.00000  Uiso   1.00
O1336  O     0.82982   0.96921   0.83264   0.00000  Uiso   1.00
O1337  O     0.81427   0.70929   0.83333   0.00000  Uiso   1.00
O1338  O     0.81427   0.79072   0.83333   0.00000  Uiso   1.00
O1339  O     0.68573   0.70929   0.83334   0.00000  Uiso   1.00
O1340  O     0.75000   0.79071   0.76280   0.00000  Uiso   1.00
O1341  O     0.75000   0.70929   0.90387   0.00000  Uiso   1.00
O1342  O     0.75000   0.79071   0.90387   0.00000  Uiso   1.00
O1343  O     0.75000   0.70929   0.76280   0.00000  Uiso   1.00
O1344  O     0.52787   0.80942   0.76247   0.00000  Uiso   1.00
loop_
_geom_bond_atom_site_label_1
_geom_bond_atom_site_label_2
_geom_bond_distance
_geom_bond_site_symmetry_2
_ccdc_geom_bond_type
Br1    C18     1.932   .     S
Br2    C19     1.933   .     S
Br3    C20     1.919   .     S
Br4    C21     1.931   .     S
C5     C22     1.455   .     S
C5     O97     1.291   .     A
C5     O107    1.291   .     A
C6     C45     1.407   .     A
C6     O104    1.382   .     S
C6     C10     1.416   .     A
C7     C11     1.411   .     S
C7     O111    1.285   .     A
C7     O108    1.289   .     A
C8     C12     1.411   .     S
C8     O110    1.285   .     A
C8     O109    1.289   .     A
C9     C46     1.421   .     A
C9     C48     1.421   .     A
C9     C234    1.516   1_545 S
C10    C47     1.417   .     A
C10    C233    1.516   .     S
C11    C908    1.191   1_554 S
C12    C459    1.191   .     S
C13    O112    1.384   .     S
C13    C24     1.416   .     A
C13    C18     1.395   .     A
C14    O98     1.385   .     S
C14    C19     1.400   .     A
C14    C25     1.408   .     A
C15    C25     1.406   .     A
C15    C20     1.393   .     A
C15    O99     1.383   .     S
C16    O105    1.293   .     A
C16    C23     1.489   .     S
C16    O106    1.307   .     A
C17    C24     1.416   .     A
C17    C21     1.396   .     A
C17    O100    1.384   .     S
C18    C22     1.407   .     A
C19    C23     1.426   .     A
C20    C23     1.414   .     A
C21    C22     1.406   .     A
C24    C137    1.478   1_455 S
C25    C136    1.478   .     S
C26    H91     1.113   .     S
C26    O112    1.408   .     S
C26    C140    1.521   1_455 S
C26    H202    1.110   1_455 S
C27    N95     1.360   .     A
C27    H51     1.082   .     S
C27    C46     1.407   .     A
C28    H94     1.111   .     S
C28    C138    1.521   .     S
C28    H204    1.111   .     S
C28    H989    1.108   1_554 S
C29    O98     1.411   .     S
C29    H53     1.115   .     S
C29    C142    1.520   .     S
C29    H164    1.112   .     S
C30    H56     1.111   .     S
C30    H55     1.110   .     S
C30    C141    1.520   1_455 S
C30    H166    1.111   1_455 S
C31    H58     1.115   .     S
C31    O99     1.411   .     S
C31    C144    1.520   .     S
C31    H169    1.113   .     S
C32    H61     1.111   .     S
C32    H60     1.111   .     S
C32    C143    1.520   1_455 S
C32    H171    1.111   1_455 S
C33    O100    1.408   .     S
C33    H64     1.113   .     S
C33    C146    1.520   1_455 S
C33    H175    1.110   1_455 S
C34    H67     1.111   .     S
C34    C145    1.520   .     S
C34    H177    1.110   .     S
C34    H514    1.108   .     S
C35    O101    1.409   .     S
C35    H69     1.114   .     S
C35    C260    1.521   1_545 S
C35    H292    1.111   1_545 S
C36    H72     1.111   .     S
C36    C259    1.521   .     S
C36    H294    1.111   .     S
C36    H519    1.108   .     S
C37    O102    1.411   .     S
C37    H75     1.115   .     S
C37    C39     1.521   .     S
C37    H298    1.113   .     S
C38    C47     1.410   .     A
C38    N96     1.367   .     A
C38    H62     1.078   .     S
C39    H76     1.111   .     S
C39    H301    1.111   .     S
C39    H302    1.111   .     S
C40    H80     1.114   .     S
C40    O103    1.409   .     S
C40    C265    1.521   1_545 S
C40    H303    1.112   1_545 S
C41    H83     1.111   .     S
C41    C264    1.521   .     S
C41    H305    1.111   .     S
C41    H978    1.108   1_554 S
C42    H86     1.115   .     S
C42    C43     1.521   .     S
C42    O104    1.412   .     S
C42    H309    1.112   .     S
C43    H87     1.111   .     S
C43    H312    1.111   .     S
C43    H313    1.110   .     S
C44    N95     1.361   .     A
C44    H73     1.082   .     S
C44    C48     1.408   .     A
C45    H84     1.069   .     S
C45    N96     1.361   .     A
C46    O101    1.382   .     S
C47    O102    1.382   .     S
C48    O103    1.381   .     S
Cu49   N96     2.010   .     S
Cu49   O108    1.939   .     S
Cu49   O106    1.967   .     S
Cu49   O97     1.966   .     S
Cu49   Cu50    2.675   .     S
Cu49   O110    1.934   .     S
Cu50   N95     2.010   .     S
Cu50   O105    1.966   .     S
Cu50   O109    1.939   .     S
Cu50   O107    1.967   .     S
Cu50   O111    1.934   .     S
H52    C141    1.112   1_455 S
H54    C142    1.111   .     S
H57    C143    1.113   1_455 S
H59    C144    1.111   .     S
H63    C145    1.110   .     S
H65    C146    1.110   1_455 S
H66    C930    1.108   1_554 S
H68    C259    1.111   .     S
H70    C260    1.111   1_545 S
H71    C932    1.108   1_554 S
H74    C261    1.113   1_545 S
H77    C263    1.111   1_545 S
H78    C263    1.111   1_545 S
H79    C264    1.112   .     S
H81    C265    1.111   1_545 S
H82    C489    1.108   .     S
H85    C266    1.112   1_545 S
H88    C267    1.111   1_545 S
H89    C267    1.110   1_545 S
H90    C138    1.110   .     S
H92    C140    1.111   1_455 S
H93    C476    1.108   .     S
Br113  C130    1.932   .     S
Br114  C131    1.933   .     S
Br115  C132    1.919   .     S
Br116  C133    1.931   .     S
C117   C134    1.455   .     S
C117   O209    1.291   .     A
C117   O219    1.291   .     A
C118   C157    1.407   .     A
C118   O216    1.382   .     S
C118   C122    1.416   .     A
C119   C123    1.411   .     S
C119   O223    1.285   .     A
C119   O220    1.289   .     A
C120   C124    1.411   .     S
C120   O222    1.285   .     A
C120   O221    1.289   .     A
C121   C158    1.421   .     A
C121   C160    1.421   .     A
C121   C346    1.516   1_545 S
C122   C159    1.417   .     A
C122   C345    1.516   .     S
C123   C1020   1.191   1_554 S
C124   C571    1.191   .     S
C125   O224    1.384   .     S
C125   C136    1.416   .     A
C125   C130    1.395   .     A
C126   O210    1.385   .     S
C126   C131    1.400   .     A
C126   C137    1.408   .     A
C127   C137    1.406   .     A
C127   C132    1.393   .     A
C127   O211    1.383   .     S
C128   O217    1.293   .     A
C128   C135    1.489   .     S
C128   O218    1.307   .     A
C129   C136    1.416   .     A
C129   C133    1.396   .     A
C129   O212    1.384   .     S
C130   C134    1.407   .     A
C131   C135    1.426   .     A
C132   C135    1.414   .     A
C133   C134    1.406   .     A
C137   C24     1.478   1_655 S
C138   H203    1.113   .     S
C138   O224    1.408   .     S
C139   N207    1.360   .     A
C139   H163    1.082   .     S
C139   C158    1.407   .     A
C140   H206    1.111   .     S
C140   C26     1.521   1_655 S
C140   H92     1.111   1_655 S
C140   H1101   1.108   1_554 S
C141   O210    1.411   .     S
C141   H165    1.115   .     S
C141   C30     1.520   1_655 S
C141   H52     1.112   1_655 S
C142   H168    1.111   .     S
C142   H167    1.110   .     S
C143   H170    1.115   .     S
C143   O211    1.411   .     S
C143   C32     1.520   1_655 S
C143   H57     1.113   1_655 S
C144   H173    1.111   .     S
C144   H172    1.111   .     S
C145   O212    1.408   .     S
C145   H176    1.113   .     S
C146   H179    1.111   .     S
C146   C33     1.520   1_655 S
C146   H65     1.110   1_655 S
C146   H626    1.108   .     S
C147   O213    1.409   .     S
C147   H181    1.114   .     S
C147   C372    1.521   1_545 S
C147   H404    1.111   1_545 S
C148   H184    1.111   .     S
C148   C371    1.521   .     S
C148   H406    1.111   .     S
C148   H631    1.108   .     S
C149   O214    1.411   .     S
C149   H187    1.115   .     S
C149   C151    1.521   .     S
C149   H410    1.113   .     S
C150   C159    1.410   .     A
C150   N208    1.367   .     A
C150   H174    1.078   .     S
C151   H188    1.111   .     S
C151   H413    1.111   .     S
C151   H414    1.111   .     S
C152   H192    1.114   .     S
C152   O215    1.409   .     S
C152   C377    1.521   1_545 S
C152   H415    1.112   1_545 S
C153   H195    1.111   .     S
C153   C376    1.521   .     S
C153   H417    1.111   .     S
C153   H1090   1.108   1_554 S
C154   H198    1.115   .     S
C154   C155    1.521   .     S
C154   O216    1.412   .     S
C154   H421    1.112   .     S
C155   H199    1.111   .     S
C155   H424    1.111   .     S
C155   H425    1.110   .     S
C156   N207    1.361   .     A
C156   H185    1.082   .     S
C156   C160    1.408   .     A
C157   H196    1.069   .     S
C157   N208    1.361   .     A
C158   O213    1.382   .     S
C159   O214    1.382   .     S
C160   O215    1.381   .     S
Cu161  N208    2.010   .     S
Cu161  O220    1.939   .     S
Cu161  O218    1.967   .     S
Cu161  O209    1.966   .     S
Cu161  Cu162   2.675   .     S
Cu161  O222    1.934   .     S
Cu162  N207    2.010   .     S
Cu162  O217    1.966   .     S
Cu162  O221    1.939   .     S
Cu162  O219    1.967   .     S
Cu162  O223    1.934   .     S
H166   C30     1.111   1_655 S
H171   C32     1.111   1_655 S
H175   C33     1.110   1_655 S
H178   C1042   1.108   1_554 S
H180   C371    1.111   .     S
H182   C372    1.111   1_545 S
H183   C1044   1.108   1_554 S
H186   C373    1.113   1_545 S
H189   C375    1.111   1_545 S
H190   C375    1.111   1_545 S
H191   C376    1.112   .     S
H193   C377    1.111   1_545 S
H194   C601    1.108   .     S
H197   C378    1.112   1_545 S
H200   C379    1.111   1_545 S
H201   C379    1.110   1_545 S
H202   C26     1.110   1_655 S
H205   C588    1.108   .     S
Br225  C242    1.932   .     S
Br226  C243    1.933   .     S
Br227  C244    1.919   .     S
Br228  C245    1.931   .     S
C229   C246    1.455   .     S
C229   O321    1.291   .     A
C229   O331    1.291   .     A
C230   C269    1.407   .     A
C230   O328    1.382   .     S
C230   C234    1.416   .     A
C231   C235    1.411   .     S
C231   O335    1.285   .     A
C231   O332    1.289   .     A
C232   C236    1.411   .     S
C232   O334    1.285   .     A
C232   O333    1.289   .     A
C233   C270    1.421   .     A
C233   C272    1.421   .     A
C234   C271    1.417   .     A
C234   C9      1.516   1_565 S
C235   C1132   1.191   1_554 S
C236   C683    1.191   .     S
C237   O336    1.384   .     S
C237   C248    1.416   .     A
C237   C242    1.395   .     A
C238   O322    1.385   .     S
C238   C243    1.400   .     A
C238   C249    1.408   .     A
C239   C249    1.406   .     A
C239   C244    1.393   .     A
C239   O323    1.383   .     S
C240   O329    1.293   .     A
C240   C247    1.489   .     S
C240   O330    1.307   .     A
C241   C248    1.416   .     A
C241   C245    1.396   .     A
C241   O324    1.384   .     S
C242   C246    1.407   .     A
C243   C247    1.426   .     A
C244   C247    1.414   .     A
C245   C246    1.406   .     A
C248   C361    1.478   1_455 S
C249   C360    1.478   .     S
C250   H315    1.113   .     S
C250   O336    1.408   .     S
C250   C364    1.521   1_455 S
C250   H426    1.110   1_455 S
C251   N319    1.360   .     A
C251   H275    1.082   .     S
C251   C270    1.407   .     A
C252   H318    1.111   .     S
C252   C362    1.521   .     S
C252   H428    1.111   .     S
C252   H1213   1.108   1_554 S
C253   O322    1.411   .     S
C253   H277    1.115   .     S
C253   C366    1.520   .     S
C253   H388    1.112   .     S
C254   H280    1.111   .     S
C254   H279    1.110   .     S
C254   C365    1.520   1_455 S
C254   H390    1.111   1_455 S
C255   H282    1.115   .     S
C255   O323    1.411   .     S
C255   C368    1.520   .     S
C255   H393    1.113   .     S
C256   H285    1.111   .     S
C256   H284    1.111   .     S
C256   C367    1.520   1_455 S
C256   H395    1.111   1_455 S
C257   O324    1.408   .     S
C257   H288    1.113   .     S
C257   C370    1.520   1_455 S
C257   H399    1.110   1_455 S
C258   H291    1.111   .     S
C258   C369    1.520   .     S
C258   H401    1.110   .     S
C258   H738    1.108   .     S
C259   O325    1.409   .     S
C259   H293    1.114   .     S
C260   H296    1.111   .     S
C260   C35     1.521   1_565 S
C260   H70     1.111   1_565 S
C260   H743    1.108   .     S
C261   O326    1.411   .     S
C261   H299    1.115   .     S
C261   C263    1.521   .     S
C261   H74     1.113   1_565 S
C262   C271    1.410   .     A
C262   N320    1.367   .     A
C262   H286    1.078   .     S
C263   H300    1.111   .     S
C263   H77     1.111   1_565 S
C263   H78     1.111   1_565 S
C264   H304    1.114   .     S
C264   O327    1.409   .     S
C265   H307    1.111   .     S
C265   C40     1.521   1_565 S
C265   H81     1.111   1_565 S
C265   H1202   1.108   1_554 S
C266   H310    1.115   .     S
C266   C267    1.521   .     S
C266   O328    1.412   .     S
C266   H85     1.112   1_565 S
C267   H311    1.111   .     S
C267   H88     1.111   1_565 S
C267   H89     1.110   1_565 S
C268   N319    1.361   .     A
C268   H297    1.082   .     S
C268   C272    1.408   .     A
C269   H308    1.069   .     S
C269   N320    1.361   .     A
C270   O325    1.382   .     S
C271   O326    1.382   .     S
C272   O327    1.381   .     S
Cu273  N320    2.010   .     S
Cu273  O332    1.939   .     S
Cu273  O330    1.967   .     S
Cu273  O321    1.966   .     S
Cu273  Cu274   2.675   .     S
Cu273  O334    1.934   .     S
Cu274  N319    2.010   .     S
Cu274  O329    1.966   .     S
Cu274  O333    1.939   .     S
Cu274  O331    1.967   .     S
Cu274  O335    1.934   .     S
H276   C365    1.112   1_455 S
H278   C366    1.111   .     S
H281   C367    1.113   1_455 S
H283   C368    1.111   .     S
H287   C369    1.110   .     S
H289   C370    1.110   1_455 S
H290   C1154   1.108   1_554 S
H292   C35     1.111   1_565 S
H295   C1156   1.108   1_554 S
H303   C40     1.112   1_565 S
H306   C713    1.108   .     S
H314   C362    1.110   .     S
H316   C364    1.111   1_455 S
H317   C700    1.108   .     S
Br337  C354    1.932   .     S
Br338  C355    1.933   .     S
Br339  C356    1.919   .     S
Br340  C357    1.931   .     S
C341   C358    1.455   .     S
C341   O433    1.291   .     A
C341   O443    1.291   .     A
C342   C381    1.407   .     A
C342   O440    1.382   .     S
C342   C346    1.416   .     A
C343   C347    1.411   .     S
C343   O447    1.285   .     A
C343   O444    1.289   .     A
C344   C348    1.411   .     S
C344   O446    1.285   .     A
C344   O445    1.289   .     A
C345   C382    1.421   .     A
C345   C384    1.421   .     A
C346   C383    1.417   .     A
C346   C121    1.516   1_565 S
C347   C1244   1.191   1_554 S
C348   C795    1.191   .     S
C349   O448    1.384   .     S
C349   C360    1.416   .     A
C349   C354    1.395   .     A
C350   O434    1.385   .     S
C350   C355    1.400   .     A
C350   C361    1.408   .     A
C351   C361    1.406   .     A
C351   C356    1.393   .     A
C351   O435    1.383   .     S
C352   O441    1.293   .     A
C352   C359    1.489   .     S
C352   O442    1.307   .     A
C353   C360    1.416   .     A
C353   C357    1.396   .     A
C353   O436    1.384   .     S
C354   C358    1.407   .     A
C355   C359    1.426   .     A
C356   C359    1.414   .     A
C357   C358    1.406   .     A
C361   C248    1.478   1_655 S
C362   H427    1.113   .     S
C362   O448    1.408   .     S
C363   N431    1.360   .     A
C363   H387    1.082   .     S
C363   C382    1.407   .     A
C364   H430    1.111   .     S
C364   C250    1.521   1_655 S
C364   H316    1.111   1_655 S
C364   H1325   1.108   1_554 S
C365   O434    1.411   .     S
C365   H389    1.115   .     S
C365   C254    1.520   1_655 S
C365   H276    1.112   1_655 S
C366   H392    1.111   .     S
C366   H391    1.110   .     S
C367   H394    1.115   .     S
C367   O435    1.411   .     S
C367   C256    1.520   1_655 S
C367   H281    1.113   1_655 S
C368   H397    1.111   .     S
C368   H396    1.111   .     S
C369   O436    1.408   .     S
C369   H400    1.113   .     S
C370   H403    1.111   .     S
C370   C257    1.520   1_655 S
C370   H289    1.110   1_655 S
C370   H850    1.108   .     S
C371   O437    1.409   .     S
C371   H405    1.114   .     S
C372   H408    1.111   .     S
C372   C147    1.521   1_565 S
C372   H182    1.111   1_565 S
C372   H855    1.108   .     S
C373   O438    1.411   .     S
C373   H411    1.115   .     S
C373   C375    1.521   .     S
C373   H186    1.113   1_565 S
C374   C383    1.410   .     A
C374   N432    1.367   .     A
C374   H398    1.078   .     S
C375   H412    1.111   .     S
C375   H189    1.111   1_565 S
C375   H190    1.111   1_565 S
C376   H416    1.114   .     S
C376   O439    1.409   .     S
C377   H419    1.111   .     S
C377   C152    1.521   1_565 S
C377   H193    1.111   1_565 S
C377   H1314   1.108   1_554 S
C378   H422    1.115   .     S
C378   C379    1.521   .     S
C378   O440    1.412   .     S
C378   H197    1.112   1_565 S
C379   H423    1.111   .     S
C379   H200    1.111   1_565 S
C379   H201    1.110   1_565 S
C380   N431    1.361   .     A
C380   H409    1.082   .     S
C380   C384    1.408   .     A
C381   H420    1.069   .     S
C381   N432    1.361   .     A
C382   O437    1.382   .     S
C383   O438    1.382   .     S
C384   O439    1.381   .     S
Cu385  N432    2.010   .     S
Cu385  O444    1.939   .     S
Cu385  O442    1.967   .     S
Cu385  O433    1.966   .     S
Cu385  Cu386   2.675   .     S
Cu385  O446    1.934   .     S
Cu386  N431    2.010   .     S
Cu386  O441    1.966   .     S
Cu386  O445    1.939   .     S
Cu386  O443    1.967   .     S
Cu386  O447    1.934   .     S
H390   C254    1.111   1_655 S
H395   C256    1.111   1_655 S
H399   C257    1.110   1_655 S
H402   C1266   1.108   1_554 S
H404   C147    1.111   1_565 S
H407   C1268   1.108   1_554 S
H415   C152    1.112   1_565 S
H418   C825    1.108   .     S
H426   C250    1.110   1_655 S
H429   C812    1.108   .     S
Br449  C466    1.932   .     S
Br450  C467    1.933   .     S
Br451  C468    1.919   .     S
Br452  C469    1.931   .     S
C453   C470    1.455   .     S
C453   O545    1.291   .     A
C453   O555    1.291   .     A
C454   C493    1.407   .     A
C454   O552    1.382   .     S
C454   C458    1.416   .     A
C455   C459    1.411   .     S
C455   O559    1.285   .     A
C455   O556    1.289   .     A
C456   C460    1.411   .     S
C456   O558    1.285   .     A
C456   O557    1.289   .     A
C457   C494    1.421   .     A
C457   C496    1.421   .     A
C457   C682    1.516   1_545 S
C458   C495    1.417   .     A
C458   C681    1.516   .     S
C460   C907    1.191   .     S
C461   O560    1.384   .     S
C461   C472    1.416   .     A
C461   C466    1.395   .     A
C462   O546    1.385   .     S
C462   C467    1.400   .     A
C462   C473    1.408   .     A
C463   C473    1.406   .     A
C463   C468    1.393   .     A
C463   O547    1.383   .     S
C464   O553    1.293   .     A
C464   C471    1.489   .     S
C464   O554    1.307   .     A
C465   C472    1.416   .     A
C465   C469    1.396   .     A
C465   O548    1.384   .     S
C466   C470    1.407   .     A
C467   C471    1.426   .     A
C468   C471    1.414   .     A
C469   C470    1.406   .     A
C472   C585    1.478   1_455 S
C473   C584    1.478   .     S
C474   H539    1.113   .     S
C474   O560    1.408   .     S
C474   C588    1.521   1_455 S
C474   H650    1.110   1_455 S
C475   N543    1.360   .     A
C475   H499    1.082   .     S
C475   C494    1.407   .     A
C476   H542    1.111   .     S
C476   C586    1.521   .     S
C476   H652    1.111   .     S
C477   O546    1.411   .     S
C477   H501    1.115   .     S
C477   C590    1.520   .     S
C477   H612    1.112   .     S
C478   H504    1.111   .     S
C478   H503    1.110   .     S
C478   C589    1.520   1_455 S
C478   H614    1.111   1_455 S
C479   H506    1.115   .     S
C479   O547    1.411   .     S
C479   C592    1.520   .     S
C479   H617    1.113   .     S
C480   H509    1.111   .     S
C480   H508    1.111   .     S
C480   C591    1.520   1_455 S
C480   H619    1.111   1_455 S
C481   O548    1.408   .     S
C481   H512    1.113   .     S
C481   C594    1.520   1_455 S
C481   H623    1.110   1_455 S
C482   H515    1.111   .     S
C482   C593    1.520   .     S
C482   H625    1.110   .     S
C482   H962    1.108   .     S
C483   O549    1.409   .     S
C483   H517    1.114   .     S
C483   C708    1.521   1_545 S
C483   H740    1.111   1_545 S
C484   H520    1.111   .     S
C484   C707    1.521   .     S
C484   H742    1.111   .     S
C484   H967    1.108   .     S
C485   O550    1.411   .     S
C485   H523    1.115   .     S
C485   C487    1.521   .     S
C485   H746    1.113   .     S
C486   C495    1.410   .     A
C486   N544    1.367   .     A
C486   H510    1.078   .     S
C487   H524    1.111   .     S
C487   H749    1.111   .     S
C487   H750    1.111   .     S
C488   H528    1.114   .     S
C488   O551    1.409   .     S
C488   C713    1.521   1_545 S
C488   H751    1.112   1_545 S
C489   H531    1.111   .     S
C489   C712    1.521   .     S
C489   H753    1.111   .     S
C490   H534    1.115   .     S
C490   C491    1.521   .     S
C490   O552    1.412   .     S
C490   H757    1.112   .     S
C491   H535    1.111   .     S
C491   H760    1.111   .     S
C491   H761    1.110   .     S
C492   N543    1.361   .     A
C492   H521    1.082   .     S
C492   C496    1.408   .     A
C493   H532    1.069   .     S
C493   N544    1.361   .     A
C494   O549    1.382   .     S
C495   O550    1.382   .     S
C496   O551    1.381   .     S
Cu497  N544    2.010   .     S
Cu497  O556    1.939   .     S
Cu497  O554    1.967   .     S
Cu497  O545    1.966   .     S
Cu497  Cu498   2.675   .     S
Cu497  O558    1.934   .     S
Cu498  N543    2.010   .     S
Cu498  O553    1.966   .     S
Cu498  O557    1.939   .     S
Cu498  O555    1.967   .     S
Cu498  O559    1.934   .     S
H500   C589    1.112   1_455 S
H502   C590    1.111   .     S
H505   C591    1.113   1_455 S
H507   C592    1.111   .     S
H511   C593    1.110   .     S
H513   C594    1.110   1_455 S
H516   C707    1.111   .     S
H518   C708    1.111   1_545 S
H522   C709    1.113   1_545 S
H525   C711    1.111   1_545 S
H526   C711    1.111   1_545 S
H527   C712    1.112   .     S
H529   C713    1.111   1_545 S
H530   C937    1.108   .     S
H533   C714    1.112   1_545 S
H536   C715    1.111   1_545 S
H537   C715    1.110   1_545 S
H538   C586    1.110   .     S
H540   C588    1.111   1_455 S
H541   C924    1.108   .     S
Br561  C578    1.932   .     S
Br562  C579    1.933   .     S
Br563  C580    1.919   .     S
Br564  C581    1.931   .     S
C565   C582    1.455   .     S
C565   O657    1.291   .     A
C565   O667    1.291   .     A
C566   C605    1.407   .     A
C566   O664    1.382   .     S
C566   C570    1.416   .     A
C567   C571    1.411   .     S
C567   O671    1.285   .     A
C567   O668    1.289   .     A
C568   C572    1.411   .     S
C568   O670    1.285   .     A
C568   O669    1.289   .     A
C569   C606    1.421   .     A
C569   C608    1.421   .     A
C569   C794    1.516   1_545 S
C570   C607    1.417   .     A
C570   C793    1.516   .     S
C572   C1019   1.191   .     S
C573   O672    1.384   .     S
C573   C584    1.416   .     A
C573   C578    1.395   .     A
C574   O658    1.385   .     S
C574   C579    1.400   .     A
C574   C585    1.408   .     A
C575   C585    1.406   .     A
C575   C580    1.393   .     A
C575   O659    1.383   .     S
C576   O665    1.293   .     A
C576   C583    1.489   .     S
C576   O666    1.307   .     A
C577   C584    1.416   .     A
C577   C581    1.396   .     A
C577   O660    1.384   .     S
C578   C582    1.407   .     A
C579   C583    1.426   .     A
C580   C583    1.414   .     A
C581   C582    1.406   .     A
C585   C472    1.478   1_655 S
C586   H651    1.113   .     S
C586   O672    1.408   .     S
C587   N655    1.360   .     A
C587   H611    1.082   .     S
C587   C606    1.407   .     A
C588   H654    1.111   .     S
C588   C474    1.521   1_655 S
C588   H540    1.111   1_655 S
C589   O658    1.411   .     S
C589   H613    1.115   .     S
C589   C478    1.520   1_655 S
C589   H500    1.112   1_655 S
C590   H616    1.111   .     S
C590   H615    1.110   .     S
C591   H618    1.115   .     S
C591   O659    1.411   .     S
C591   C480    1.520   1_655 S
C591   H505    1.113   1_655 S
C592   H621    1.111   .     S
C592   H620    1.111   .     S
C593   O660    1.408   .     S
C593   H624    1.113   .     S
C594   H627    1.111   .     S
C594   C481    1.520   1_655 S
C594   H513    1.110   1_655 S
C594   H1074   1.108   .     S
C595   O661    1.409   .     S
C595   H629    1.114   .     S
C595   C820    1.521   1_545 S
C595   H852    1.111   1_545 S
C596   H632    1.111   .     S
C596   C819    1.521   .     S
C596   H854    1.111   .     S
C596   H1079   1.108   .     S
C597   O662    1.411   .     S
C597   H635    1.115   .     S
C597   C599    1.521   .     S
C597   H858    1.113   .     S
C598   C607    1.410   .     A
C598   N656    1.367   .     A
C598   H622    1.078   .     S
C599   H636    1.111   .     S
C599   H861    1.111   .     S
C599   H862    1.111   .     S
C600   H640    1.114   .     S
C600   O663    1.409   .     S
C600   C825    1.521   1_545 S
C600   H863    1.112   1_545 S
C601   H643    1.111   .     S
C601   C824    1.521   .     S
C601   H865    1.111   .     S
C602   H646    1.115   .     S
C602   C603    1.521   .     S
C602   O664    1.412   .     S
C602   H869    1.112   .     S
C603   H647    1.111   .     S
C603   H872    1.111   .     S
C603   H873    1.110   .     S
C604   N655    1.361   .     A
C604   H633    1.082   .     S
C604   C608    1.408   .     A
C605   H644    1.069   .     S
C605   N656    1.361   .     A
C606   O661    1.382   .     S
C607   O662    1.382   .     S
C608   O663    1.381   .     S
Cu609  N656    2.010   .     S
Cu609  O668    1.939   .     S
Cu609  O666    1.967   .     S
Cu609  O657    1.966   .     S
Cu609  Cu610   2.675   .     S
Cu609  O670    1.934   .     S
Cu610  N655    2.010   .     S
Cu610  O665    1.966   .     S
Cu610  O669    1.939   .     S
Cu610  O667    1.967   .     S
Cu610  O671    1.934   .     S
H614   C478    1.111   1_655 S
H619   C480    1.111   1_655 S
H623   C481    1.110   1_655 S
H628   C819    1.111   .     S
H630   C820    1.111   1_545 S
H634   C821    1.113   1_545 S
H637   C823    1.111   1_545 S
H638   C823    1.111   1_545 S
H639   C824    1.112   .     S
H641   C825    1.111   1_545 S
H642   C1049   1.108   .     S
H645   C826    1.112   1_545 S
H648   C827    1.111   1_545 S
H649   C827    1.110   1_545 S
H650   C474    1.110   1_655 S
H653   C1036   1.108   .     S
Br673  C690    1.932   .     S
Br674  C691    1.933   .     S
Br675  C692    1.919   .     S
Br676  C693    1.931   .     S
C677   C694    1.455   .     S
C677   O769    1.291   .     A
C677   O779    1.291   .     A
C678   C717    1.407   .     A
C678   O776    1.382   .     S
C678   C682    1.416   .     A
C679   C683    1.411   .     S
C679   O783    1.285   .     A
C679   O780    1.289   .     A
C680   C684    1.411   .     S
C680   O782    1.285   .     A
C680   O781    1.289   .     A
C681   C718    1.421   .     A
C681   C720    1.421   .     A
C682   C719    1.417   .     A
C682   C457    1.516   1_565 S
C684   C1131   1.191   .     S
C685   O784    1.384   .     S
C685   C696    1.416   .     A
C685   C690    1.395   .     A
C686   O770    1.385   .     S
C686   C691    1.400   .     A
C686   C697    1.408   .     A
C687   C697    1.406   .     A
C687   C692    1.393   .     A
C687   O771    1.383   .     S
C688   O777    1.293   .     A
C688   C695    1.489   .     S
C688   O778    1.307   .     A
C689   C696    1.416   .     A
C689   C693    1.396   .     A
C689   O772    1.384   .     S
C690   C694    1.407   .     A
C691   C695    1.426   .     A
C692   C695    1.414   .     A
C693   C694    1.406   .     A
C696   C809    1.478   1_455 S
C697   C808    1.478   .     S
C698   H763    1.113   .     S
C698   O784    1.408   .     S
C698   C812    1.521   1_455 S
C698   H874    1.110   1_455 S
C699   N767    1.360   .     A
C699   H723    1.082   .     S
C699   C718    1.407   .     A
C700   H766    1.111   .     S
C700   C810    1.521   .     S
C700   H876    1.111   .     S
C701   O770    1.411   .     S
C701   H725    1.115   .     S
C701   C814    1.520   .     S
C701   H836    1.112   .     S
C702   H728    1.111   .     S
C702   H727    1.110   .     S
C702   C813    1.520   1_455 S
C702   H838    1.111   1_455 S
C703   H730    1.115   .     S
C703   O771    1.411   .     S
C703   C816    1.520   .     S
C703   H841    1.113   .     S
C704   H733    1.111   .     S
C704   H732    1.111   .     S
C704   C815    1.520   1_455 S
C704   H843    1.111   1_455 S
C705   O772    1.408   .     S
C705   H736    1.113   .     S
C705   C818    1.520   1_455 S
C705   H847    1.110   1_455 S
C706   H739    1.111   .     S
C706   C817    1.520   .     S
C706   H849    1.110   .     S
C706   H1186   1.108   .     S
C707   O773    1.409   .     S
C707   H741    1.114   .     S
C708   H744    1.111   .     S
C708   C483    1.521   1_565 S
C708   H518    1.111   1_565 S
C708   H1191   1.108   .     S
C709   O774    1.411   .     S
C709   H747    1.115   .     S
C709   C711    1.521   .     S
C709   H522    1.113   1_565 S
C710   C719    1.410   .     A
C710   N768    1.367   .     A
C710   H734    1.078   .     S
C711   H748    1.111   .     S
C711   H525    1.111   1_565 S
C711   H526    1.111   1_565 S
C712   H752    1.114   .     S
C712   O775    1.409   .     S
C713   H755    1.111   .     S
C713   C488    1.521   1_565 S
C713   H529    1.111   1_565 S
C714   H758    1.115   .     S
C714   C715    1.521   .     S
C714   O776    1.412   .     S
C714   H533    1.112   1_565 S
C715   H759    1.111   .     S
C715   H536    1.111   1_565 S
C715   H537    1.110   1_565 S
C716   N767    1.361   .     A
C716   H745    1.082   .     S
C716   C720    1.408   .     A
C717   H756    1.069   .     S
C717   N768    1.361   .     A
C718   O773    1.382   .     S
C719   O774    1.382   .     S
C720   O775    1.381   .     S
Cu721  N768    2.010   .     S
Cu721  O780    1.939   .     S
Cu721  O778    1.967   .     S
Cu721  O769    1.966   .     S
Cu721  Cu722   2.675   .     S
Cu721  O782    1.934   .     S
Cu722  N767    2.010   .     S
Cu722  O777    1.966   .     S
Cu722  O781    1.939   .     S
Cu722  O779    1.967   .     S
Cu722  O783    1.934   .     S
H724   C813    1.112   1_455 S
H726   C814    1.111   .     S
H729   C815    1.113   1_455 S
H731   C816    1.111   .     S
H735   C817    1.110   .     S
H737   C818    1.110   1_455 S
H740   C483    1.111   1_565 S
H751   C488    1.112   1_565 S
H754   C1161   1.108   .     S
H762   C810    1.110   .     S
H764   C812    1.111   1_455 S
H765   C1148   1.108   .     S
Br785  C802    1.932   .     S
Br786  C803    1.933   .     S
Br787  C804    1.919   .     S
Br788  C805    1.931   .     S
C789   C806    1.455   .     S
C789   O881    1.291   .     A
C789   O891    1.291   .     A
C790   C829    1.407   .     A
C790   O888    1.382   .     S
C790   C794    1.416   .     A
C791   C795    1.411   .     S
C791   O895    1.285   .     A
C791   O892    1.289   .     A
C792   C796    1.411   .     S
C792   O894    1.285   .     A
C792   O893    1.289   .     A
C793   C830    1.421   .     A
C793   C832    1.421   .     A
C794   C831    1.417   .     A
C794   C569    1.516   1_565 S
C796   C1243   1.191   .     S
C797   O896    1.384   .     S
C797   C808    1.416   .     A
C797   C802    1.395   .     A
C798   O882    1.385   .     S
C798   C803    1.400   .     A
C798   C809    1.408   .     A
C799   C809    1.406   .     A
C799   C804    1.393   .     A
C799   O883    1.383   .     S
C800   O889    1.293   .     A
C800   C807    1.489   .     S
C800   O890    1.307   .     A
C801   C808    1.416   .     A
C801   C805    1.396   .     A
C801   O884    1.384   .     S
C802   C806    1.407   .     A
C803   C807    1.426   .     A
C804   C807    1.414   .     A
C805   C806    1.406   .     A
C809   C696    1.478   1_655 S
C810   H875    1.113   .     S
C810   O896    1.408   .     S
C811   N879    1.360   .     A
C811   H835    1.082   .     S
C811   C830    1.407   .     A
C812   H878    1.111   .     S
C812   C698    1.521   1_655 S
C812   H764    1.111   1_655 S
C813   O882    1.411   .     S
C813   H837    1.115   .     S
C813   C702    1.520   1_655 S
C813   H724    1.112   1_655 S
C814   H840    1.111   .     S
C814   H839    1.110   .     S
C815   H842    1.115   .     S
C815   O883    1.411   .     S
C815   C704    1.520   1_655 S
C815   H729    1.113   1_655 S
C816   H845    1.111   .     S
C816   H844    1.111   .     S
C817   O884    1.408   .     S
C817   H848    1.113   .     S
C818   H851    1.111   .     S
C818   C705    1.520   1_655 S
C818   H737    1.110   1_655 S
C818   H1298   1.108   .     S
C819   O885    1.409   .     S
C819   H853    1.114   .     S
C820   H856    1.111   .     S
C820   C595    1.521   1_565 S
C820   H630    1.111   1_565 S
C820   H1303   1.108   .     S
C821   O886    1.411   .     S
C821   H859    1.115   .     S
C821   C823    1.521   .     S
C821   H634    1.113   1_565 S
C822   C831    1.410   .     A
C822   N880    1.367   .     A
C822   H846    1.078   .     S
C823   H860    1.111   .     S
C823   H637    1.111   1_565 S
C823   H638    1.111   1_565 S
C824   H864    1.114   .     S
C824   O887    1.409   .     S
C825   H867    1.111   .     S
C825   C600    1.521   1_565 S
C825   H641    1.111   1_565 S
C826   H870    1.115   .     S
C826   C827    1.521   .     S
C826   O888    1.412   .     S
C826   H645    1.112   1_565 S
C827   H871    1.111   .     S
C827   H648    1.111   1_565 S
C827   H649    1.110   1_565 S
C828   N879    1.361   .     A
C828   H857    1.082   .     S
C828   C832    1.408   .     A
C829   H868    1.069   .     S
C829   N880    1.361   .     A
C830   O885    1.382   .     S
C831   O886    1.382   .     S
C832   O887    1.381   .     S
Cu833  N880    2.010   .     S
Cu833  O892    1.939   .     S
Cu833  O890    1.967   .     S
Cu833  O881    1.966   .     S
Cu833  Cu834   2.675   .     S
Cu833  O894    1.934   .     S
Cu834  N879    2.010   .     S
Cu834  O889    1.966   .     S
Cu834  O893    1.939   .     S
Cu834  O891    1.967   .     S
Cu834  O895    1.934   .     S
H838   C702    1.111   1_655 S
H843   C704    1.111   1_655 S
H847   C705    1.110   1_655 S
H852   C595    1.111   1_565 S
H863   C600    1.112   1_565 S
H866   C1273   1.108   .     S
H874   C698    1.110   1_655 S
H877   C1260   1.108   .     S
Br897  C914    1.932   .     S
Br898  C915    1.933   .     S
Br899  C916    1.919   .     S
Br900  C917    1.931   .     S
C901   C918    1.455   .     S
C901   O993    1.291   .     A
C901   O1003   1.291   .     A
C902   C941    1.407   .     A
C902   O1000   1.382   .     S
C902   C906    1.416   .     A
C903   C907    1.411   .     S
C903   O1007   1.285   .     A
C903   O1004   1.289   .     A
C904   C908    1.411   .     S
C904   O1006   1.285   .     A
C904   O1005   1.289   .     A
C905   C942    1.421   .     A
C905   C944    1.421   .     A
C905   C1130   1.516   1_545 S
C906   C943    1.417   .     A
C906   C1129   1.516   .     S
C908   C11     1.191   1_556 S
C909   O1008   1.384   .     S
C909   C920    1.416   .     A
C909   C914    1.395   .     A
C910   O994    1.385   .     S
C910   C915    1.400   .     A
C910   C921    1.408   .     A
C911   C921    1.406   .     A
C911   C916    1.393   .     A
C911   O995    1.383   .     S
C912   O1001   1.293   .     A
C912   C919    1.489   .     S
C912   O1002   1.307   .     A
C913   C920    1.416   .     A
C913   C917    1.396   .     A
C913   O996    1.384   .     S
C914   C918    1.407   .     A
C915   C919    1.426   .     A
C916   C919    1.414   .     A
C917   C918    1.406   .     A
C920   C1033   1.478   1_455 S
C921   C1032   1.478   .     S
C922   H987    1.113   .     S
C922   O1008   1.408   .     S
C922   C1036   1.521   1_455 S
C922   H1098   1.110   1_455 S
C923   N991    1.360   .     A
C923   H947    1.082   .     S
C923   C942    1.407   .     A
C924   H990    1.111   .     S
C924   C1034   1.521   .     S
C924   H1100   1.111   .     S
C925   O994    1.411   .     S
C925   H949    1.115   .     S
C925   C1038   1.520   .     S
C925   H1060   1.112   .     S
C926   H952    1.111   .     S
C926   H951    1.110   .     S
C926   C1037   1.520   1_455 S
C926   H1062   1.111   1_455 S
C927   H954    1.115   .     S
C927   O995    1.411   .     S
C927   C1040   1.520   .     S
C927   H1065   1.113   .     S
C928   H957    1.111   .     S
C928   H956    1.111   .     S
C928   C1039   1.520   1_455 S
C928   H1067   1.111   1_455 S
C929   O996    1.408   .     S
C929   H960    1.113   .     S
C929   C1042   1.520   1_455 S
C929   H1071   1.110   1_455 S
C930   H963    1.111   .     S
C930   C1041   1.520   .     S
C930   H1073   1.110   .     S
C930   H66     1.108   1_556 S
C931   O997    1.409   .     S
C931   H965    1.114   .     S
C931   C1156   1.521   1_545 S
C931   H1188   1.111   1_545 S
C932   H968    1.111   .     S
C932   C1155   1.521   .     S
C932   H1190   1.111   .     S
C932   H71     1.108   1_556 S
C933   O998    1.411   .     S
C933   H971    1.115   .     S
C933   C935    1.521   .     S
C933   H1194   1.113   .     S
C934   C943    1.410   .     A
C934   N992    1.367   .     A
C934   H958    1.078   .     S
C935   H972    1.111   .     S
C935   H1197   1.111   .     S
C935   H1198   1.111   .     S
C936   H976    1.114   .     S
C936   O999    1.409   .     S
C936   C1161   1.521   1_545 S
C936   H1199   1.112   1_545 S
C937   H979    1.111   .     S
C937   C1160   1.521   .     S
C937   H1201   1.111   .     S
C938   H982    1.115   .     S
C938   C939    1.521   .     S
C938   O1000   1.412   .     S
C938   H1205   1.112   .     S
C939   H983    1.111   .     S
C939   H1208   1.111   .     S
C939   H1209   1.110   .     S
C940   N991    1.361   .     A
C940   H969    1.082   .     S
C940   C944    1.408   .     A
C941   H980    1.069   .     S
C941   N992    1.361   .     A
C942   O997    1.382   .     S
C943   O998    1.382   .     S
C944   O999    1.381   .     S
Cu945  N992    2.010   .     S
Cu945  O1004   1.939   .     S
Cu945  O1002   1.967   .     S
Cu945  O993    1.966   .     S
Cu945  Cu946   2.675   .     S
Cu945  O1006   1.934   .     S
Cu946  N991    2.010   .     S
Cu946  O1001   1.966   .     S
Cu946  O1005   1.939   .     S
Cu946  O1003   1.967   .     S
Cu946  O1007   1.934   .     S
H948   C1037   1.112   1_455 S
H950   C1038   1.111   .     S
H953   C1039   1.113   1_455 S
H955   C1040   1.111   .     S
H959   C1041   1.110   .     S
H961   C1042   1.110   1_455 S
H964   C1155   1.111   .     S
H966   C1156   1.111   1_545 S
H970   C1157   1.113   1_545 S
H973   C1159   1.111   1_545 S
H974   C1159   1.111   1_545 S
H975   C1160   1.112   .     S
H977   C1161   1.111   1_545 S
H978   C41     1.108   1_556 S
H981   C1162   1.112   1_545 S
H984   C1163   1.111   1_545 S
H985   C1163   1.110   1_545 S
H986   C1034   1.110   .     S
H988   C1036   1.111   1_455 S
H989   C28     1.108   1_556 S
Br1009 C1026   1.932   .     S
Br1010 C1027   1.933   .     S
Br1011 C1028   1.919   .     S
Br1012 C1029   1.931   .     S
C1013  C1030   1.455   .     S
C1013  O1105   1.291   .     A
C1013  O1115   1.291   .     A
C1014  C1053   1.407   .     A
C1014  O1112   1.382   .     S
C1014  C1018   1.416   .     A
C1015  C1019   1.411   .     S
C1015  O1119   1.285   .     A
C1015  O1116   1.289   .     A
C1016  C1020   1.411   .     S
C1016  O1118   1.285   .     A
C1016  O1117   1.289   .     A
C1017  C1054   1.421   .     A
C1017  C1056   1.421   .     A
C1017  C1242   1.516   1_545 S
C1018  C1055   1.417   .     A
C1018  C1241   1.516   .     S
C1020  C123    1.191   1_556 S
C1021  O1120   1.384   .     S
C1021  C1032   1.416   .     A
C1021  C1026   1.395   .     A
C1022  O1106   1.385   .     S
C1022  C1027   1.400   .     A
C1022  C1033   1.408   .     A
C1023  C1033   1.406   .     A
C1023  C1028   1.393   .     A
C1023  O1107   1.383   .     S
C1024  O1113   1.293   .     A
C1024  C1031   1.489   .     S
C1024  O1114   1.307   .     A
C1025  C1032   1.416   .     A
C1025  C1029   1.396   .     A
C1025  O1108   1.384   .     S
C1026  C1030   1.407   .     A
C1027  C1031   1.426   .     A
C1028  C1031   1.414   .     A
C1029  C1030   1.406   .     A
C1033  C920    1.478   1_655 S
C1034  H1099   1.113   .     S
C1034  O1120   1.408   .     S
C1035  N1103   1.360   .     A
C1035  H1059   1.082   .     S
C1035  C1054   1.407   .     A
C1036  H1102   1.111   .     S
C1036  C922    1.521   1_655 S
C1036  H988    1.111   1_655 S
C1037  O1106   1.411   .     S
C1037  H1061   1.115   .     S
C1037  C926    1.520   1_655 S
C1037  H948    1.112   1_655 S
C1038  H1064   1.111   .     S
C1038  H1063   1.110   .     S
C1039  H1066   1.115   .     S
C1039  O1107   1.411   .     S
C1039  C928    1.520   1_655 S
C1039  H953    1.113   1_655 S
C1040  H1069   1.111   .     S
C1040  H1068   1.111   .     S
C1041  O1108   1.408   .     S
C1041  H1072   1.113   .     S
C1042  H1075   1.111   .     S
C1042  C929    1.520   1_655 S
C1042  H961    1.110   1_655 S
C1042  H178    1.108   1_556 S
C1043  O1109   1.409   .     S
C1043  H1077   1.114   .     S
C1043  C1268   1.521   1_545 S
C1043  H1300   1.111   1_545 S
C1044  H1080   1.111   .     S
C1044  C1267   1.521   .     S
C1044  H1302   1.111   .     S
C1044  H183    1.108   1_556 S
C1045  O1110   1.411   .     S
C1045  H1083   1.115   .     S
C1045  C1047   1.521   .     S
C1045  H1306   1.113   .     S
C1046  C1055   1.410   .     A
C1046  N1104   1.367   .     A
C1046  H1070   1.078   .     S
C1047  H1084   1.111   .     S
C1047  H1309   1.111   .     S
C1047  H1310   1.111   .     S
C1048  H1088   1.114   .     S
C1048  O1111   1.409   .     S
C1048  C1273   1.521   1_545 S
C1048  H1311   1.112   1_545 S
C1049  H1091   1.111   .     S
C1049  C1272   1.521   .     S
C1049  H1313   1.111   .     S
C1050  H1094   1.115   .     S
C1050  C1051   1.521   .     S
C1050  O1112   1.412   .     S
C1050  H1317   1.112   .     S
C1051  H1095   1.111   .     S
C1051  H1320   1.111   .     S
C1051  H1321   1.110   .     S
C1052  N1103   1.361   .     A
C1052  H1081   1.082   .     S
C1052  C1056   1.408   .     A
C1053  H1092   1.069   .     S
C1053  N1104   1.361   .     A
C1054  O1109   1.382   .     S
C1055  O1110   1.382   .     S
C1056  O1111   1.381   .     S
Cu1057 N1104   2.010   .     S
Cu1057 O1116   1.939   .     S
Cu1057 O1114   1.967   .     S
Cu1057 O1105   1.966   .     S
Cu1057 Cu1058  2.675   .     S
Cu1057 O1118   1.934   .     S
Cu1058 N1103   2.010   .     S
Cu1058 O1113   1.966   .     S
Cu1058 O1117   1.939   .     S
Cu1058 O1115   1.967   .     S
Cu1058 O1119   1.934   .     S
H1062  C926    1.111   1_655 S
H1067  C928    1.111   1_655 S
H1071  C929    1.110   1_655 S
H1076  C1267   1.111   .     S
H1078  C1268   1.111   1_545 S
H1082  C1269   1.113   1_545 S
H1085  C1271   1.111   1_545 S
H1086  C1271   1.111   1_545 S
H1087  C1272   1.112   .     S
H1089  C1273   1.111   1_545 S
H1090  C153    1.108   1_556 S
H1093  C1274   1.112   1_545 S
H1096  C1275   1.111   1_545 S
H1097  C1275   1.110   1_545 S
H1098  C922    1.110   1_655 S
H1101  C140    1.108   1_556 S
Br1121 C1138   1.932   .     S
Br1122 C1139   1.933   .     S
Br1123 C1140   1.919   .     S
Br1124 C1141   1.931   .     S
C1125  C1142   1.455   .     S
C1125  O1217   1.291   .     A
C1125  O1227   1.291   .     A
C1126  C1165   1.407   .     A
C1126  O1224   1.382   .     S
C1126  C1130   1.416   .     A
C1127  C1131   1.411   .     S
C1127  O1231   1.285   .     A
C1127  O1228   1.289   .     A
C1128  C1132   1.411   .     S
C1128  O1230   1.285   .     A
C1128  O1229   1.289   .     A
C1129  C1166   1.421   .     A
C1129  C1168   1.421   .     A
C1130  C1167   1.417   .     A
C1130  C905    1.516   1_565 S
C1132  C235    1.191   1_556 S
C1133  O1232   1.384   .     S
C1133  C1144   1.416   .     A
C1133  C1138   1.395   .     A
C1134  O1218   1.385   .     S
C1134  C1139   1.400   .     A
C1134  C1145   1.408   .     A
C1135  C1145   1.406   .     A
C1135  C1140   1.393   .     A
C1135  O1219   1.383   .     S
C1136  O1225   1.293   .     A
C1136  C1143   1.489   .     S
C1136  O1226   1.307   .     A
C1137  C1144   1.416   .     A
C1137  C1141   1.396   .     A
C1137  O1220   1.384   .     S
C1138  C1142   1.407   .     A
C1139  C1143   1.426   .     A
C1140  C1143   1.414   .     A
C1141  C1142   1.406   .     A
C1144  C1257   1.478   1_455 S
C1145  C1256   1.478   .     S
C1146  H1211   1.113   .     S
C1146  O1232   1.408   .     S
C1146  C1260   1.521   1_455 S
C1146  H1322   1.110   1_455 S
C1147  N1215   1.360   .     A
C1147  H1171   1.082   .     S
C1147  C1166   1.407   .     A
C1148  H1214   1.111   .     S
C1148  C1258   1.521   .     S
C1148  H1324   1.111   .     S
C1149  O1218   1.411   .     S
C1149  H1173   1.115   .     S
C1149  C1262   1.520   .     S
C1149  H1284   1.112   .     S
C1150  H1176   1.111   .     S
C1150  H1175   1.110   .     S
C1150  C1261   1.520   1_455 S
C1150  H1286   1.111   1_455 S
C1151  H1178   1.115   .     S
C1151  O1219   1.411   .     S
C1151  C1264   1.520   .     S
C1151  H1289   1.113   .     S
C1152  H1181   1.111   .     S
C1152  H1180   1.111   .     S
C1152  C1263   1.520   1_455 S
C1152  H1291   1.111   1_455 S
C1153  O1220   1.408   .     S
C1153  H1184   1.113   .     S
C1153  C1266   1.520   1_455 S
C1153  H1295   1.110   1_455 S
C1154  H1187   1.111   .     S
C1154  C1265   1.520   .     S
C1154  H1297   1.110   .     S
C1154  H290    1.108   1_556 S
C1155  O1221   1.409   .     S
C1155  H1189   1.114   .     S
C1156  H1192   1.111   .     S
C1156  C931    1.521   1_565 S
C1156  H966    1.111   1_565 S
C1156  H295    1.108   1_556 S
C1157  O1222   1.411   .     S
C1157  H1195   1.115   .     S
C1157  C1159   1.521   .     S
C1157  H970    1.113   1_565 S
C1158  C1167   1.410   .     A
C1158  N1216   1.367   .     A
C1158  H1182   1.078   .     S
C1159  H1196   1.111   .     S
C1159  H973    1.111   1_565 S
C1159  H974    1.111   1_565 S
C1160  H1200   1.114   .     S
C1160  O1223   1.409   .     S
C1161  H1203   1.111   .     S
C1161  C936    1.521   1_565 S
C1161  H977    1.111   1_565 S
C1162  H1206   1.115   .     S
C1162  C1163   1.521   .     S
C1162  O1224   1.412   .     S
C1162  H981    1.112   1_565 S
C1163  H1207   1.111   .     S
C1163  H984    1.111   1_565 S
C1163  H985    1.110   1_565 S
C1164  N1215   1.361   .     A
C1164  H1193   1.082   .     S
C1164  C1168   1.408   .     A
C1165  H1204   1.069   .     S
C1165  N1216   1.361   .     A
C1166  O1221   1.382   .     S
C1167  O1222   1.382   .     S
C1168  O1223   1.381   .     S
Cu1169 N1216   2.010   .     S
Cu1169 O1228   1.939   .     S
Cu1169 O1226   1.967   .     S
Cu1169 O1217   1.966   .     S
Cu1169 Cu1170  2.675   .     S
Cu1169 O1230   1.934   .     S
Cu1170 N1215   2.010   .     S
Cu1170 O1225   1.966   .     S
Cu1170 O1229   1.939   .     S
Cu1170 O1227   1.967   .     S
Cu1170 O1231   1.934   .     S
H1172  C1261   1.112   1_455 S
H1174  C1262   1.111   .     S
H1177  C1263   1.113   1_455 S
H1179  C1264   1.111   .     S
H1183  C1265   1.110   .     S
H1185  C1266   1.110   1_455 S
H1188  C931    1.111   1_565 S
H1199  C936    1.112   1_565 S
H1202  C265    1.108   1_556 S
H1210  C1258   1.110   .     S
H1212  C1260   1.111   1_455 S
H1213  C252    1.108   1_556 S
Br1233 C1250   1.932   .     S
Br1234 C1251   1.933   .     S
Br1235 C1252   1.919   .     S
Br1236 C1253   1.931   .     S
C1237  C1254   1.455   .     S
C1237  O1329   1.291   .     A
C1237  O1339   1.291   .     A
C1238  C1277   1.407   .     A
C1238  O1336   1.382   .     S
C1238  C1242   1.416   .     A
C1239  C1243   1.411   .     S
C1239  O1343   1.285   .     A
C1239  O1340   1.289   .     A
C1240  C1244   1.411   .     S
C1240  O1342   1.285   .     A
C1240  O1341   1.289   .     A
C1241  C1278   1.421   .     A
C1241  C1280   1.421   .     A
C1242  C1279   1.417   .     A
C1242  C1017   1.516   1_565 S
C1244  C347    1.191   1_556 S
C1245  O1344   1.384   .     S
C1245  C1256   1.416   .     A
C1245  C1250   1.395   .     A
C1246  O1330   1.385   .     S
C1246  C1251   1.400   .     A
C1246  C1257   1.408   .     A
C1247  C1257   1.406   .     A
C1247  C1252   1.393   .     A
C1247  O1331   1.383   .     S
C1248  O1337   1.293   .     A
C1248  C1255   1.489   .     S
C1248  O1338   1.307   .     A
C1249  C1256   1.416   .     A
C1249  C1253   1.396   .     A
C1249  O1332   1.384   .     S
C1250  C1254   1.407   .     A
C1251  C1255   1.426   .     A
C1252  C1255   1.414   .     A
C1253  C1254   1.406   .     A
C1257  C1144   1.478   1_655 S
C1258  H1323   1.113   .     S
C1258  O1344   1.408   .     S
C1259  N1327   1.360   .     A
C1259  H1283   1.082   .     S
C1259  C1278   1.407   .     A
C1260  H1326   1.111   .     S
C1260  C1146   1.521   1_655 S
C1260  H1212   1.111   1_655 S
C1261  O1330   1.411   .     S
C1261  H1285   1.115   .     S
C1261  C1150   1.520   1_655 S
C1261  H1172   1.112   1_655 S
C1262  H1288   1.111   .     S
C1262  H1287   1.110   .     S
C1263  H1290   1.115   .     S
C1263  O1331   1.411   .     S
C1263  C1152   1.520   1_655 S
C1263  H1177   1.113   1_655 S
C1264  H1293   1.111   .     S
C1264  H1292   1.111   .     S
C1265  O1332   1.408   .     S
C1265  H1296   1.113   .     S
C1266  H1299   1.111   .     S
C1266  C1153   1.520   1_655 S
C1266  H1185   1.110   1_655 S
C1266  H402    1.108   1_556 S
C1267  O1333   1.409   .     S
C1267  H1301   1.114   .     S
C1268  H1304   1.111   .     S
C1268  C1043   1.521   1_565 S
C1268  H1078   1.111   1_565 S
C1268  H407    1.108   1_556 S
C1269  O1334   1.411   .     S
C1269  H1307   1.115   .     S
C1269  C1271   1.521   .     S
C1269  H1082   1.113   1_565 S
C1270  C1279   1.410   .     A
C1270  N1328   1.367   .     A
C1270  H1294   1.078   .     S
C1271  H1308   1.111   .     S
C1271  H1085   1.111   1_565 S
C1271  H1086   1.111   1_565 S
C1272  H1312   1.114   .     S
C1272  O1335   1.409   .     S
C1273  H1315   1.111   .     S
C1273  C1048   1.521   1_565 S
C1273  H1089   1.111   1_565 S
C1274  H1318   1.115   .     S
C1274  C1275   1.521   .     S
C1274  O1336   1.412   .     S
C1274  H1093   1.112   1_565 S
C1275  H1319   1.111   .     S
C1275  H1096   1.111   1_565 S
C1275  H1097   1.110   1_565 S
C1276  N1327   1.361   .     A
C1276  H1305   1.082   .     S
C1276  C1280   1.408   .     A
C1277  H1316   1.069   .     S
C1277  N1328   1.361   .     A
C1278  O1333   1.382   .     S
C1279  O1334   1.382   .     S
C1280  O1335   1.381   .     S
Cu1281 N1328   2.010   .     S
Cu1281 O1340   1.939   .     S
Cu1281 O1338   1.967   .     S
Cu1281 O1329   1.966   .     S
Cu1281 Cu1282  2.675   .     S
Cu1281 O1342   1.934   .     S
Cu1282 N1327   2.010   .     S
Cu1282 O1337   1.966   .     S
Cu1282 O1341   1.939   .     S
Cu1282 O1339   1.967   .     S
Cu1282 O1343   1.934   .     S
H1286  C1150   1.111   1_655 S
H1291  C1152   1.111   1_655 S
H1295  C1153   1.110   1_655 S
H1300  C1043   1.111   1_565 S
H1311  C1048   1.112   1_565 S
H1314  C377    1.108   1_556 S
H1322  C1146   1.110   1_655 S
H1325  C364    1.108   1_556 S
