data_str_m3_o10_o17_pcu_sym.219
_audit_creation_date              2020-01-03
_audit_creation_method            'Materials Studio'
_symmetry_space_group_name_H-M    'P1'
_symmetry_Int_Tables_number       1
_symmetry_cell_setting            triclinic
loop_
_symmetry_equiv_pos_as_xyz
  x,y,z
_cell_length_a                    23.5375
_cell_length_b                    25.7283
_cell_length_c                    29.7504
_cell_angle_alpha                 92.3374
_cell_angle_beta                  85.1749
_cell_angle_gamma                 93.9090
loop_
_atom_site_label
_atom_site_type_symbol
_atom_site_fract_x
_atom_site_fract_y
_atom_site_fract_z
_atom_site_U_iso_or_equiv
_atom_site_adp_type
_atom_site_occupancy
C1     C     0.18187   0.26482   0.24888   0.00000  Uiso   1.00
C2     C     0.15146   0.06852   0.25113   0.00000  Uiso   1.00
C3     C     0.18439   0.26192   0.48100   0.00000  Uiso   1.00
C4     C     0.14901   0.07140   0.01900   0.00000  Uiso   1.00
C5     C     0.18978   0.31941   0.24821   0.00000  Uiso   1.00
C6     C     0.14355   0.01392   0.25180   0.00000  Uiso   1.00
C7     C     0.16704   0.16757   0.33624   0.00000  Uiso   1.00
C8     C     0.16630   0.16576   0.16376   0.00000  Uiso   1.00
C9     C     0.16113   0.11617   0.09143   0.00000  Uiso   1.00
C10    C     0.17222   0.21716   0.40858   0.00000  Uiso   1.00
C11    C     0.16605   0.16404   0.11610   0.00000  Uiso   1.00
C12    C     0.16729   0.16928   0.38390   0.00000  Uiso   1.00
C13    C     0.17341   0.21160   0.09520   0.00000  Uiso   1.00
C14    C     0.15996   0.12172   0.40479   0.00000  Uiso   1.00
C15    C     0.17499   0.21287   0.04880   0.00000  Uiso   1.00
C16    C     0.15841   0.12045   0.45119   0.00000  Uiso   1.00
C17    C     0.16675   0.16592   0.02341   0.00000  Uiso   1.00
C18    C     0.16665   0.16740   0.47658   0.00000  Uiso   1.00
C19    C     0.15893   0.11750   0.04478   0.00000  Uiso   1.00
C20    C     0.17446   0.21582   0.45522   0.00000  Uiso   1.00
C21    C     0.18471   0.26039   0.02753   0.00000  Uiso   1.00
C22    C     0.14870   0.07293   0.47246   0.00000  Uiso   1.00
H23    H     0.17864   0.24758   0.11527   0.00000  Uiso   1.00
H24    H     0.15473   0.08574   0.38472   0.00000  Uiso   1.00
H25    H     0.19290   0.29623   0.04697   0.00000  Uiso   1.00
H26    H     0.14050   0.03709   0.45303   0.00000  Uiso   1.00
H27    H     0.19270   0.29912   0.46529   0.00000  Uiso   1.00
H28    H     0.14069   0.03420   0.03470   0.00000  Uiso   1.00
H29    H     0.23342   0.00316   0.24475   0.00000  Uiso   1.00
H30    H     0.09991   0.33018   0.25526   0.00000  Uiso   1.00
N31    N     0.31678   0.15265   0.23783   0.00000  Uiso   1.00
N32    N     0.01656   0.18068   0.26217   0.00000  Uiso   1.00
O33    O     0.12975   0.24619   0.25299   0.00000  Uiso   1.00
O34    O     0.20358   0.08714   0.24702   0.00000  Uiso   1.00
O35    O     0.22613   0.23721   0.24519   0.00000  Uiso   1.00
O36    O     0.10720   0.09613   0.25481   0.00000  Uiso   1.00
O37    O     0.11847   0.17117   0.31997   0.00000  Uiso   1.00
O38    O     0.21486   0.16216   0.18003   0.00000  Uiso   1.00
O39    O     0.21485   0.16219   0.31218   0.00000  Uiso   1.00
O40    O     0.11848   0.17115   0.18783   0.00000  Uiso   1.00
Zn41   Zn    0.10231   0.17266   0.25521   0.00000  Uiso   1.00
Zn42   Zn    0.23102   0.16067   0.24479   0.00000  Uiso   1.00
O43    O     0.15923   0.06813   0.11122   0.00000  Uiso   1.00
H44    H     0.16368   0.07254   0.14393   0.00000  Uiso   1.00
O45    O     0.17405   0.26520   0.38879   0.00000  Uiso   1.00
H46    H     0.16947   0.26079   0.35610   0.00000  Uiso   1.00
O47    O     0.01043   0.11433   0.21439   0.00000  Uiso   1.00
C48    C     0.31469   0.10108   0.17581   0.00000  Uiso   1.00
H49    H     0.31306   0.13584   0.15497   0.00000  Uiso   1.00
H50    H     0.27136   0.08356   0.18487   0.00000  Uiso   1.00
C51    C     0.01312   0.06037   0.14729   0.00000  Uiso   1.00
H52    H     0.01827   0.02591   0.16760   0.00000  Uiso   1.00
H53    H     0.32231   0.04776   0.11778   0.00000  Uiso   1.00
H54    H     0.05567   0.07743   0.13493   0.00000  Uiso   1.00
O55    O     0.32294   0.21907   0.28554   0.00000  Uiso   1.00
C56    C     0.01859   0.23229   0.32417   0.00000  Uiso   1.00
H57    H     0.06202   0.24962   0.31518   0.00000  Uiso   1.00
H58    H     0.01998   0.19756   0.34507   0.00000  Uiso   1.00
C59    C     0.32029   0.27321   0.35253   0.00000  Uiso   1.00
H60    H     0.27747   0.25652   0.36448   0.00000  Uiso   1.00
H61    H     0.01076   0.28547   0.38227   0.00000  Uiso   1.00
H62    H     0.31584   0.30780   0.33225   0.00000  Uiso   1.00
C63    C     0.51521   0.26482   0.24888   0.00000  Uiso   1.00
C64    C     0.48479   0.06852   0.25113   0.00000  Uiso   1.00
C65    C     0.51772   0.26192   0.48100   0.00000  Uiso   1.00
C66    C     0.48235   0.07140   0.01900   0.00000  Uiso   1.00
C67    C     0.52311   0.31941   0.24821   0.00000  Uiso   1.00
C68    C     0.47689   0.01392   0.25180   0.00000  Uiso   1.00
C69    C     0.50037   0.16757   0.33624   0.00000  Uiso   1.00
C70    C     0.49963   0.16576   0.16376   0.00000  Uiso   1.00
C71    C     0.49446   0.11617   0.09143   0.00000  Uiso   1.00
C72    C     0.50555   0.21716   0.40858   0.00000  Uiso   1.00
C73    C     0.49938   0.16404   0.11610   0.00000  Uiso   1.00
C74    C     0.50062   0.16928   0.38390   0.00000  Uiso   1.00
C75    C     0.50674   0.21160   0.09520   0.00000  Uiso   1.00
C76    C     0.49330   0.12172   0.40479   0.00000  Uiso   1.00
C77    C     0.50833   0.21287   0.04880   0.00000  Uiso   1.00
C78    C     0.49174   0.12045   0.45119   0.00000  Uiso   1.00
C79    C     0.50008   0.16592   0.02341   0.00000  Uiso   1.00
C80    C     0.49999   0.16740   0.47658   0.00000  Uiso   1.00
C81    C     0.49226   0.11750   0.04478   0.00000  Uiso   1.00
C82    C     0.50780   0.21582   0.45522   0.00000  Uiso   1.00
C83    C     0.51804   0.26039   0.02753   0.00000  Uiso   1.00
C84    C     0.48203   0.07293   0.47246   0.00000  Uiso   1.00
H85    H     0.51197   0.24758   0.11527   0.00000  Uiso   1.00
H86    H     0.48807   0.08574   0.38472   0.00000  Uiso   1.00
H87    H     0.52624   0.29623   0.04697   0.00000  Uiso   1.00
H88    H     0.47384   0.03709   0.45303   0.00000  Uiso   1.00
H89    H     0.52604   0.29912   0.46529   0.00000  Uiso   1.00
H90    H     0.47403   0.03420   0.03470   0.00000  Uiso   1.00
H91    H     0.56676   0.00316   0.24475   0.00000  Uiso   1.00
H92    H     0.43324   0.33018   0.25526   0.00000  Uiso   1.00
N93    N     0.65011   0.15265   0.23783   0.00000  Uiso   1.00
N94    N     0.34989   0.18068   0.26217   0.00000  Uiso   1.00
O95    O     0.46308   0.24619   0.25299   0.00000  Uiso   1.00
O96    O     0.53692   0.08714   0.24702   0.00000  Uiso   1.00
O97    O     0.55946   0.23721   0.24519   0.00000  Uiso   1.00
O98    O     0.44054   0.09613   0.25481   0.00000  Uiso   1.00
O99    O     0.45181   0.17117   0.31997   0.00000  Uiso   1.00
O100   O     0.54819   0.16216   0.18003   0.00000  Uiso   1.00
O101   O     0.54819   0.16219   0.31218   0.00000  Uiso   1.00
O102   O     0.45181   0.17115   0.18783   0.00000  Uiso   1.00
Zn103  Zn    0.43565   0.17266   0.25521   0.00000  Uiso   1.00
Zn104  Zn    0.56435   0.16067   0.24479   0.00000  Uiso   1.00
O105   O     0.49257   0.06813   0.11122   0.00000  Uiso   1.00
H106   H     0.49701   0.07254   0.14393   0.00000  Uiso   1.00
O107   O     0.50738   0.26520   0.38879   0.00000  Uiso   1.00
H108   H     0.50280   0.26079   0.35610   0.00000  Uiso   1.00
O109   O     0.34376   0.11433   0.21439   0.00000  Uiso   1.00
C110   C     0.64803   0.10108   0.17581   0.00000  Uiso   1.00
H111   H     0.64640   0.13584   0.15497   0.00000  Uiso   1.00
H112   H     0.60470   0.08356   0.18487   0.00000  Uiso   1.00
C113   C     0.34645   0.06037   0.14729   0.00000  Uiso   1.00
H114   H     0.35160   0.02591   0.16760   0.00000  Uiso   1.00
H115   H     0.65564   0.04776   0.11778   0.00000  Uiso   1.00
H116   H     0.38900   0.07743   0.13493   0.00000  Uiso   1.00
O117   O     0.65627   0.21907   0.28554   0.00000  Uiso   1.00
C118   C     0.35192   0.23229   0.32417   0.00000  Uiso   1.00
H119   H     0.39535   0.24962   0.31518   0.00000  Uiso   1.00
H120   H     0.35331   0.19756   0.34507   0.00000  Uiso   1.00
C121   C     0.65362   0.27321   0.35253   0.00000  Uiso   1.00
H122   H     0.61080   0.25652   0.36448   0.00000  Uiso   1.00
H123   H     0.34409   0.28547   0.38227   0.00000  Uiso   1.00
H124   H     0.64918   0.30780   0.33225   0.00000  Uiso   1.00
C125   C     0.84854   0.26482   0.24888   0.00000  Uiso   1.00
C126   C     0.81813   0.06852   0.25113   0.00000  Uiso   1.00
C127   C     0.85105   0.26192   0.48100   0.00000  Uiso   1.00
C128   C     0.81568   0.07140   0.01900   0.00000  Uiso   1.00
C129   C     0.85645   0.31941   0.24821   0.00000  Uiso   1.00
C130   C     0.81022   0.01392   0.25180   0.00000  Uiso   1.00
C131   C     0.83370   0.16757   0.33624   0.00000  Uiso   1.00
C132   C     0.83296   0.16576   0.16376   0.00000  Uiso   1.00
C133   C     0.82780   0.11617   0.09143   0.00000  Uiso   1.00
C134   C     0.83888   0.21716   0.40858   0.00000  Uiso   1.00
C135   C     0.83272   0.16404   0.11610   0.00000  Uiso   1.00
C136   C     0.83396   0.16928   0.38390   0.00000  Uiso   1.00
C137   C     0.84008   0.21160   0.09520   0.00000  Uiso   1.00
C138   C     0.82663   0.12172   0.40479   0.00000  Uiso   1.00
C139   C     0.84166   0.21287   0.04880   0.00000  Uiso   1.00
C140   C     0.82507   0.12045   0.45119   0.00000  Uiso   1.00
C141   C     0.83342   0.16592   0.02341   0.00000  Uiso   1.00
C142   C     0.83332   0.16740   0.47658   0.00000  Uiso   1.00
C143   C     0.82559   0.11750   0.04478   0.00000  Uiso   1.00
C144   C     0.84113   0.21582   0.45522   0.00000  Uiso   1.00
C145   C     0.85138   0.26039   0.02753   0.00000  Uiso   1.00
C146   C     0.81536   0.07293   0.47246   0.00000  Uiso   1.00
H147   H     0.84531   0.24758   0.11527   0.00000  Uiso   1.00
H148   H     0.82140   0.08574   0.38472   0.00000  Uiso   1.00
H149   H     0.85957   0.29623   0.04697   0.00000  Uiso   1.00
H150   H     0.80717   0.03709   0.45303   0.00000  Uiso   1.00
H151   H     0.85937   0.29912   0.46529   0.00000  Uiso   1.00
H152   H     0.80736   0.03420   0.03470   0.00000  Uiso   1.00
H153   H     0.90009   0.00316   0.24475   0.00000  Uiso   1.00
H154   H     0.76658   0.33018   0.25526   0.00000  Uiso   1.00
N155   N     0.98344   0.15265   0.23783   0.00000  Uiso   1.00
N156   N     0.68322   0.18068   0.26217   0.00000  Uiso   1.00
O157   O     0.79642   0.24619   0.25299   0.00000  Uiso   1.00
O158   O     0.87025   0.08714   0.24702   0.00000  Uiso   1.00
O159   O     0.89280   0.23721   0.24519   0.00000  Uiso   1.00
O160   O     0.77387   0.09613   0.25481   0.00000  Uiso   1.00
O161   O     0.78514   0.17117   0.31997   0.00000  Uiso   1.00
O162   O     0.88153   0.16216   0.18003   0.00000  Uiso   1.00
O163   O     0.88152   0.16219   0.31218   0.00000  Uiso   1.00
O164   O     0.78515   0.17115   0.18783   0.00000  Uiso   1.00
Zn165  Zn    0.76898   0.17266   0.25521   0.00000  Uiso   1.00
Zn166  Zn    0.89769   0.16067   0.24479   0.00000  Uiso   1.00
O167   O     0.82590   0.06813   0.11122   0.00000  Uiso   1.00
H168   H     0.83035   0.07254   0.14393   0.00000  Uiso   1.00
O169   O     0.84072   0.26520   0.38879   0.00000  Uiso   1.00
H170   H     0.83613   0.26079   0.35610   0.00000  Uiso   1.00
O171   O     0.67710   0.11433   0.21439   0.00000  Uiso   1.00
C172   C     0.98136   0.10108   0.17581   0.00000  Uiso   1.00
H173   H     0.97973   0.13584   0.15497   0.00000  Uiso   1.00
H174   H     0.93803   0.08356   0.18487   0.00000  Uiso   1.00
C175   C     0.67979   0.06037   0.14729   0.00000  Uiso   1.00
H176   H     0.68493   0.02591   0.16760   0.00000  Uiso   1.00
H177   H     0.98897   0.04776   0.11778   0.00000  Uiso   1.00
H178   H     0.72233   0.07743   0.13493   0.00000  Uiso   1.00
O179   O     0.98961   0.21907   0.28554   0.00000  Uiso   1.00
C180   C     0.68526   0.23229   0.32417   0.00000  Uiso   1.00
H181   H     0.72868   0.24962   0.31518   0.00000  Uiso   1.00
H182   H     0.68664   0.19756   0.34507   0.00000  Uiso   1.00
C183   C     0.98695   0.27321   0.35253   0.00000  Uiso   1.00
H184   H     0.94414   0.25652   0.36448   0.00000  Uiso   1.00
H185   H     0.67743   0.28547   0.38227   0.00000  Uiso   1.00
H186   H     0.98251   0.30780   0.33225   0.00000  Uiso   1.00
C187   C     0.18187   0.59815   0.24888   0.00000  Uiso   1.00
C188   C     0.15146   0.40185   0.25113   0.00000  Uiso   1.00
C189   C     0.18439   0.59526   0.48100   0.00000  Uiso   1.00
C190   C     0.14901   0.40473   0.01900   0.00000  Uiso   1.00
C191   C     0.18978   0.65274   0.24821   0.00000  Uiso   1.00
C192   C     0.14355   0.34726   0.25180   0.00000  Uiso   1.00
C193   C     0.16704   0.50090   0.33624   0.00000  Uiso   1.00
C194   C     0.16630   0.49910   0.16376   0.00000  Uiso   1.00
C195   C     0.16113   0.44950   0.09143   0.00000  Uiso   1.00
C196   C     0.17222   0.55049   0.40858   0.00000  Uiso   1.00
C197   C     0.16605   0.49738   0.11610   0.00000  Uiso   1.00
C198   C     0.16729   0.50262   0.38390   0.00000  Uiso   1.00
C199   C     0.17341   0.54493   0.09520   0.00000  Uiso   1.00
C200   C     0.15996   0.45506   0.40479   0.00000  Uiso   1.00
C201   C     0.17499   0.54621   0.04880   0.00000  Uiso   1.00
C202   C     0.15841   0.45378   0.45119   0.00000  Uiso   1.00
C203   C     0.16675   0.49926   0.02341   0.00000  Uiso   1.00
C204   C     0.16665   0.50073   0.47658   0.00000  Uiso   1.00
C205   C     0.15893   0.45084   0.04478   0.00000  Uiso   1.00
C206   C     0.17446   0.54915   0.45522   0.00000  Uiso   1.00
C207   C     0.18471   0.59373   0.02753   0.00000  Uiso   1.00
C208   C     0.14870   0.40626   0.47246   0.00000  Uiso   1.00
H209   H     0.17864   0.58092   0.11527   0.00000  Uiso   1.00
H210   H     0.15473   0.41908   0.38472   0.00000  Uiso   1.00
H211   H     0.19290   0.62956   0.04697   0.00000  Uiso   1.00
H212   H     0.14050   0.37043   0.45303   0.00000  Uiso   1.00
H213   H     0.19270   0.63245   0.46529   0.00000  Uiso   1.00
H214   H     0.14069   0.36754   0.03470   0.00000  Uiso   1.00
H215   H     0.23342   0.33649   0.24475   0.00000  Uiso   1.00
H216   H     0.09991   0.66351   0.25526   0.00000  Uiso   1.00
N217   N     0.31678   0.48598   0.23783   0.00000  Uiso   1.00
N218   N     0.01656   0.51402   0.26217   0.00000  Uiso   1.00
O219   O     0.12975   0.57952   0.25299   0.00000  Uiso   1.00
O220   O     0.20358   0.42048   0.24702   0.00000  Uiso   1.00
O221   O     0.22613   0.57054   0.24519   0.00000  Uiso   1.00
O222   O     0.10720   0.42946   0.25481   0.00000  Uiso   1.00
O223   O     0.11847   0.50450   0.31997   0.00000  Uiso   1.00
O224   O     0.21486   0.49550   0.18003   0.00000  Uiso   1.00
O225   O     0.21485   0.49552   0.31218   0.00000  Uiso   1.00
O226   O     0.11848   0.50448   0.18783   0.00000  Uiso   1.00
Zn227  Zn    0.10231   0.50600   0.25521   0.00000  Uiso   1.00
Zn228  Zn    0.23102   0.49400   0.24479   0.00000  Uiso   1.00
O229   O     0.15923   0.40146   0.11122   0.00000  Uiso   1.00
H230   H     0.16368   0.40587   0.14393   0.00000  Uiso   1.00
O231   O     0.17405   0.59853   0.38879   0.00000  Uiso   1.00
H232   H     0.16947   0.59412   0.35610   0.00000  Uiso   1.00
O233   O     0.01043   0.44766   0.21439   0.00000  Uiso   1.00
C234   C     0.31469   0.43441   0.17581   0.00000  Uiso   1.00
H235   H     0.31306   0.46917   0.15497   0.00000  Uiso   1.00
H236   H     0.27136   0.41689   0.18487   0.00000  Uiso   1.00
C237   C     0.01312   0.39370   0.14729   0.00000  Uiso   1.00
H238   H     0.01827   0.35925   0.16760   0.00000  Uiso   1.00
H239   H     0.32231   0.38109   0.11778   0.00000  Uiso   1.00
H240   H     0.05567   0.41076   0.13493   0.00000  Uiso   1.00
O241   O     0.32294   0.55241   0.28554   0.00000  Uiso   1.00
C242   C     0.01859   0.56563   0.32417   0.00000  Uiso   1.00
H243   H     0.06202   0.58296   0.31518   0.00000  Uiso   1.00
H244   H     0.01998   0.53089   0.34507   0.00000  Uiso   1.00
C245   C     0.32029   0.60654   0.35253   0.00000  Uiso   1.00
H246   H     0.27747   0.58985   0.36448   0.00000  Uiso   1.00
H247   H     0.01076   0.61880   0.38227   0.00000  Uiso   1.00
H248   H     0.31584   0.64113   0.33225   0.00000  Uiso   1.00
C249   C     0.51521   0.59815   0.24888   0.00000  Uiso   1.00
C250   C     0.48479   0.40185   0.25113   0.00000  Uiso   1.00
C251   C     0.51772   0.59526   0.48100   0.00000  Uiso   1.00
C252   C     0.48235   0.40473   0.01900   0.00000  Uiso   1.00
C253   C     0.52311   0.65274   0.24821   0.00000  Uiso   1.00
C254   C     0.47689   0.34726   0.25180   0.00000  Uiso   1.00
C255   C     0.50037   0.50090   0.33624   0.00000  Uiso   1.00
C256   C     0.49963   0.49910   0.16376   0.00000  Uiso   1.00
C257   C     0.49446   0.44950   0.09143   0.00000  Uiso   1.00
C258   C     0.50555   0.55049   0.40858   0.00000  Uiso   1.00
C259   C     0.49938   0.49738   0.11610   0.00000  Uiso   1.00
C260   C     0.50062   0.50262   0.38390   0.00000  Uiso   1.00
C261   C     0.50674   0.54493   0.09520   0.00000  Uiso   1.00
C262   C     0.49330   0.45506   0.40479   0.00000  Uiso   1.00
C263   C     0.50833   0.54621   0.04880   0.00000  Uiso   1.00
C264   C     0.49174   0.45378   0.45119   0.00000  Uiso   1.00
C265   C     0.50008   0.49926   0.02341   0.00000  Uiso   1.00
C266   C     0.49999   0.50073   0.47658   0.00000  Uiso   1.00
C267   C     0.49226   0.45084   0.04478   0.00000  Uiso   1.00
C268   C     0.50780   0.54915   0.45522   0.00000  Uiso   1.00
C269   C     0.51804   0.59373   0.02753   0.00000  Uiso   1.00
C270   C     0.48203   0.40626   0.47246   0.00000  Uiso   1.00
H271   H     0.51197   0.58092   0.11527   0.00000  Uiso   1.00
H272   H     0.48807   0.41908   0.38472   0.00000  Uiso   1.00
H273   H     0.52624   0.62956   0.04697   0.00000  Uiso   1.00
H274   H     0.47384   0.37043   0.45303   0.00000  Uiso   1.00
H275   H     0.52604   0.63245   0.46529   0.00000  Uiso   1.00
H276   H     0.47403   0.36754   0.03470   0.00000  Uiso   1.00
H277   H     0.56676   0.33649   0.24475   0.00000  Uiso   1.00
H278   H     0.43324   0.66351   0.25526   0.00000  Uiso   1.00
N279   N     0.65011   0.48598   0.23783   0.00000  Uiso   1.00
N280   N     0.34989   0.51402   0.26217   0.00000  Uiso   1.00
O281   O     0.46308   0.57952   0.25299   0.00000  Uiso   1.00
O282   O     0.53692   0.42048   0.24702   0.00000  Uiso   1.00
O283   O     0.55946   0.57054   0.24519   0.00000  Uiso   1.00
O284   O     0.44054   0.42946   0.25481   0.00000  Uiso   1.00
O285   O     0.45181   0.50450   0.31997   0.00000  Uiso   1.00
O286   O     0.54819   0.49550   0.18003   0.00000  Uiso   1.00
O287   O     0.54819   0.49552   0.31218   0.00000  Uiso   1.00
O288   O     0.45181   0.50448   0.18783   0.00000  Uiso   1.00
Zn289  Zn    0.43565   0.50600   0.25521   0.00000  Uiso   1.00
Zn290  Zn    0.56435   0.49400   0.24479   0.00000  Uiso   1.00
O291   O     0.49257   0.40146   0.11122   0.00000  Uiso   1.00
H292   H     0.49701   0.40587   0.14393   0.00000  Uiso   1.00
O293   O     0.50738   0.59853   0.38879   0.00000  Uiso   1.00
H294   H     0.50280   0.59412   0.35610   0.00000  Uiso   1.00
O295   O     0.34376   0.44766   0.21439   0.00000  Uiso   1.00
C296   C     0.64803   0.43441   0.17581   0.00000  Uiso   1.00
H297   H     0.64640   0.46917   0.15497   0.00000  Uiso   1.00
H298   H     0.60470   0.41689   0.18487   0.00000  Uiso   1.00
C299   C     0.34645   0.39370   0.14729   0.00000  Uiso   1.00
H300   H     0.35160   0.35925   0.16760   0.00000  Uiso   1.00
H301   H     0.65564   0.38109   0.11778   0.00000  Uiso   1.00
H302   H     0.38900   0.41076   0.13493   0.00000  Uiso   1.00
O303   O     0.65627   0.55241   0.28554   0.00000  Uiso   1.00
C304   C     0.35192   0.56563   0.32417   0.00000  Uiso   1.00
H305   H     0.39535   0.58296   0.31518   0.00000  Uiso   1.00
H306   H     0.35331   0.53089   0.34507   0.00000  Uiso   1.00
C307   C     0.65362   0.60654   0.35253   0.00000  Uiso   1.00
H308   H     0.61080   0.58985   0.36448   0.00000  Uiso   1.00
H309   H     0.34409   0.61880   0.38227   0.00000  Uiso   1.00
H310   H     0.64918   0.64113   0.33225   0.00000  Uiso   1.00
C311   C     0.84854   0.59815   0.24888   0.00000  Uiso   1.00
C312   C     0.81813   0.40185   0.25113   0.00000  Uiso   1.00
C313   C     0.85105   0.59526   0.48100   0.00000  Uiso   1.00
C314   C     0.81568   0.40473   0.01900   0.00000  Uiso   1.00
C315   C     0.85645   0.65274   0.24821   0.00000  Uiso   1.00
C316   C     0.81022   0.34726   0.25180   0.00000  Uiso   1.00
C317   C     0.83370   0.50090   0.33624   0.00000  Uiso   1.00
C318   C     0.83296   0.49910   0.16376   0.00000  Uiso   1.00
C319   C     0.82780   0.44950   0.09143   0.00000  Uiso   1.00
C320   C     0.83888   0.55049   0.40858   0.00000  Uiso   1.00
C321   C     0.83272   0.49738   0.11610   0.00000  Uiso   1.00
C322   C     0.83396   0.50262   0.38390   0.00000  Uiso   1.00
C323   C     0.84008   0.54493   0.09520   0.00000  Uiso   1.00
C324   C     0.82663   0.45506   0.40479   0.00000  Uiso   1.00
C325   C     0.84166   0.54621   0.04880   0.00000  Uiso   1.00
C326   C     0.82507   0.45378   0.45119   0.00000  Uiso   1.00
C327   C     0.83342   0.49926   0.02341   0.00000  Uiso   1.00
C328   C     0.83332   0.50073   0.47658   0.00000  Uiso   1.00
C329   C     0.82559   0.45084   0.04478   0.00000  Uiso   1.00
C330   C     0.84113   0.54915   0.45522   0.00000  Uiso   1.00
C331   C     0.85138   0.59373   0.02753   0.00000  Uiso   1.00
C332   C     0.81536   0.40626   0.47246   0.00000  Uiso   1.00
H333   H     0.84531   0.58092   0.11527   0.00000  Uiso   1.00
H334   H     0.82140   0.41908   0.38472   0.00000  Uiso   1.00
H335   H     0.85957   0.62956   0.04697   0.00000  Uiso   1.00
H336   H     0.80717   0.37043   0.45303   0.00000  Uiso   1.00
H337   H     0.85937   0.63245   0.46529   0.00000  Uiso   1.00
H338   H     0.80736   0.36754   0.03470   0.00000  Uiso   1.00
H339   H     0.90009   0.33649   0.24475   0.00000  Uiso   1.00
H340   H     0.76658   0.66351   0.25526   0.00000  Uiso   1.00
N341   N     0.98344   0.48598   0.23783   0.00000  Uiso   1.00
N342   N     0.68322   0.51402   0.26217   0.00000  Uiso   1.00
O343   O     0.79642   0.57952   0.25299   0.00000  Uiso   1.00
O344   O     0.87025   0.42048   0.24702   0.00000  Uiso   1.00
O345   O     0.89280   0.57054   0.24519   0.00000  Uiso   1.00
O346   O     0.77387   0.42946   0.25481   0.00000  Uiso   1.00
O347   O     0.78514   0.50450   0.31997   0.00000  Uiso   1.00
O348   O     0.88153   0.49550   0.18003   0.00000  Uiso   1.00
O349   O     0.88152   0.49552   0.31218   0.00000  Uiso   1.00
O350   O     0.78515   0.50448   0.18783   0.00000  Uiso   1.00
Zn351  Zn    0.76898   0.50600   0.25521   0.00000  Uiso   1.00
Zn352  Zn    0.89769   0.49400   0.24479   0.00000  Uiso   1.00
O353   O     0.82590   0.40146   0.11122   0.00000  Uiso   1.00
H354   H     0.83035   0.40587   0.14393   0.00000  Uiso   1.00
O355   O     0.84072   0.59853   0.38879   0.00000  Uiso   1.00
H356   H     0.83613   0.59412   0.35610   0.00000  Uiso   1.00
O357   O     0.67710   0.44766   0.21439   0.00000  Uiso   1.00
C358   C     0.98136   0.43441   0.17581   0.00000  Uiso   1.00
H359   H     0.97973   0.46917   0.15497   0.00000  Uiso   1.00
H360   H     0.93803   0.41689   0.18487   0.00000  Uiso   1.00
C361   C     0.67979   0.39370   0.14729   0.00000  Uiso   1.00
H362   H     0.68493   0.35925   0.16760   0.00000  Uiso   1.00
H363   H     0.98897   0.38109   0.11778   0.00000  Uiso   1.00
H364   H     0.72233   0.41076   0.13493   0.00000  Uiso   1.00
O365   O     0.98961   0.55241   0.28554   0.00000  Uiso   1.00
C366   C     0.68526   0.56563   0.32417   0.00000  Uiso   1.00
H367   H     0.72868   0.58296   0.31518   0.00000  Uiso   1.00
H368   H     0.68664   0.53089   0.34507   0.00000  Uiso   1.00
C369   C     0.98695   0.60654   0.35253   0.00000  Uiso   1.00
H370   H     0.94414   0.58985   0.36448   0.00000  Uiso   1.00
H371   H     0.67743   0.61880   0.38227   0.00000  Uiso   1.00
H372   H     0.98251   0.64113   0.33225   0.00000  Uiso   1.00
C373   C     0.18187   0.93148   0.24888   0.00000  Uiso   1.00
C374   C     0.15146   0.73518   0.25113   0.00000  Uiso   1.00
C375   C     0.18439   0.92859   0.48100   0.00000  Uiso   1.00
C376   C     0.14901   0.73806   0.01900   0.00000  Uiso   1.00
C377   C     0.18978   0.98608   0.24821   0.00000  Uiso   1.00
C378   C     0.14355   0.68059   0.25180   0.00000  Uiso   1.00
C379   C     0.16704   0.83424   0.33624   0.00000  Uiso   1.00
C380   C     0.16630   0.83243   0.16376   0.00000  Uiso   1.00
C381   C     0.16113   0.78283   0.09143   0.00000  Uiso   1.00
C382   C     0.17222   0.88382   0.40858   0.00000  Uiso   1.00
C383   C     0.16605   0.83071   0.11610   0.00000  Uiso   1.00
C384   C     0.16729   0.83595   0.38390   0.00000  Uiso   1.00
C385   C     0.17341   0.87827   0.09520   0.00000  Uiso   1.00
C386   C     0.15996   0.78839   0.40479   0.00000  Uiso   1.00
C387   C     0.17499   0.87954   0.04880   0.00000  Uiso   1.00
C388   C     0.15841   0.78711   0.45119   0.00000  Uiso   1.00
C389   C     0.16675   0.83259   0.02341   0.00000  Uiso   1.00
C390   C     0.16665   0.83406   0.47658   0.00000  Uiso   1.00
C391   C     0.15893   0.78417   0.04478   0.00000  Uiso   1.00
C392   C     0.17446   0.88249   0.45522   0.00000  Uiso   1.00
C393   C     0.18471   0.92706   0.02753   0.00000  Uiso   1.00
C394   C     0.14870   0.73959   0.47246   0.00000  Uiso   1.00
H395   H     0.17864   0.91425   0.11527   0.00000  Uiso   1.00
H396   H     0.15473   0.75241   0.38472   0.00000  Uiso   1.00
H397   H     0.19290   0.96289   0.04697   0.00000  Uiso   1.00
H398   H     0.14050   0.70376   0.45303   0.00000  Uiso   1.00
H399   H     0.19270   0.96578   0.46529   0.00000  Uiso   1.00
H400   H     0.14069   0.70087   0.03470   0.00000  Uiso   1.00
H401   H     0.23342   0.66982   0.24475   0.00000  Uiso   1.00
H402   H     0.09991   0.99684   0.25526   0.00000  Uiso   1.00
N403   N     0.31678   0.81932   0.23783   0.00000  Uiso   1.00
N404   N     0.01656   0.84735   0.26217   0.00000  Uiso   1.00
O405   O     0.12975   0.91286   0.25299   0.00000  Uiso   1.00
O406   O     0.20358   0.75381   0.24702   0.00000  Uiso   1.00
O407   O     0.22613   0.90387   0.24519   0.00000  Uiso   1.00
O408   O     0.10720   0.76279   0.25481   0.00000  Uiso   1.00
O409   O     0.11847   0.83784   0.31997   0.00000  Uiso   1.00
O410   O     0.21486   0.82883   0.18003   0.00000  Uiso   1.00
O411   O     0.21485   0.82885   0.31218   0.00000  Uiso   1.00
O412   O     0.11848   0.83781   0.18783   0.00000  Uiso   1.00
Zn413  Zn    0.10231   0.83933   0.25521   0.00000  Uiso   1.00
Zn414  Zn    0.23102   0.82734   0.24479   0.00000  Uiso   1.00
O415   O     0.15923   0.73480   0.11122   0.00000  Uiso   1.00
H416   H     0.16368   0.73921   0.14393   0.00000  Uiso   1.00
O417   O     0.17405   0.93186   0.38879   0.00000  Uiso   1.00
H418   H     0.16947   0.92745   0.35610   0.00000  Uiso   1.00
O419   O     0.01043   0.78100   0.21439   0.00000  Uiso   1.00
C420   C     0.31469   0.76774   0.17581   0.00000  Uiso   1.00
H421   H     0.31306   0.80250   0.15497   0.00000  Uiso   1.00
H422   H     0.27136   0.75023   0.18487   0.00000  Uiso   1.00
C423   C     0.01312   0.72703   0.14729   0.00000  Uiso   1.00
H424   H     0.01827   0.69258   0.16760   0.00000  Uiso   1.00
H425   H     0.32231   0.71443   0.11778   0.00000  Uiso   1.00
H426   H     0.05567   0.74409   0.13493   0.00000  Uiso   1.00
O427   O     0.32294   0.88574   0.28554   0.00000  Uiso   1.00
C428   C     0.01859   0.89896   0.32417   0.00000  Uiso   1.00
H429   H     0.06202   0.91629   0.31518   0.00000  Uiso   1.00
H430   H     0.01998   0.86422   0.34507   0.00000  Uiso   1.00
C431   C     0.32029   0.93987   0.35253   0.00000  Uiso   1.00
H432   H     0.27747   0.92318   0.36448   0.00000  Uiso   1.00
H433   H     0.01076   0.95214   0.38227   0.00000  Uiso   1.00
H434   H     0.31584   0.97446   0.33225   0.00000  Uiso   1.00
C435   C     0.51521   0.93148   0.24888   0.00000  Uiso   1.00
C436   C     0.48479   0.73518   0.25113   0.00000  Uiso   1.00
C437   C     0.51772   0.92859   0.48100   0.00000  Uiso   1.00
C438   C     0.48235   0.73806   0.01900   0.00000  Uiso   1.00
C439   C     0.52311   0.98608   0.24821   0.00000  Uiso   1.00
C440   C     0.47689   0.68059   0.25180   0.00000  Uiso   1.00
C441   C     0.50037   0.83424   0.33624   0.00000  Uiso   1.00
C442   C     0.49963   0.83243   0.16376   0.00000  Uiso   1.00
C443   C     0.49446   0.78283   0.09143   0.00000  Uiso   1.00
C444   C     0.50555   0.88382   0.40858   0.00000  Uiso   1.00
C445   C     0.49938   0.83071   0.11610   0.00000  Uiso   1.00
C446   C     0.50062   0.83595   0.38390   0.00000  Uiso   1.00
C447   C     0.50674   0.87827   0.09520   0.00000  Uiso   1.00
C448   C     0.49330   0.78839   0.40479   0.00000  Uiso   1.00
C449   C     0.50833   0.87954   0.04880   0.00000  Uiso   1.00
C450   C     0.49174   0.78711   0.45119   0.00000  Uiso   1.00
C451   C     0.50008   0.83259   0.02341   0.00000  Uiso   1.00
C452   C     0.49999   0.83406   0.47658   0.00000  Uiso   1.00
C453   C     0.49226   0.78417   0.04478   0.00000  Uiso   1.00
C454   C     0.50780   0.88249   0.45522   0.00000  Uiso   1.00
C455   C     0.51804   0.92706   0.02753   0.00000  Uiso   1.00
C456   C     0.48203   0.73959   0.47246   0.00000  Uiso   1.00
H457   H     0.51197   0.91425   0.11527   0.00000  Uiso   1.00
H458   H     0.48807   0.75241   0.38472   0.00000  Uiso   1.00
H459   H     0.52624   0.96289   0.04697   0.00000  Uiso   1.00
H460   H     0.47384   0.70376   0.45303   0.00000  Uiso   1.00
H461   H     0.52604   0.96578   0.46529   0.00000  Uiso   1.00
H462   H     0.47403   0.70087   0.03470   0.00000  Uiso   1.00
H463   H     0.56676   0.66982   0.24475   0.00000  Uiso   1.00
H464   H     0.43324   0.99684   0.25526   0.00000  Uiso   1.00
N465   N     0.65011   0.81932   0.23783   0.00000  Uiso   1.00
N466   N     0.34989   0.84735   0.26217   0.00000  Uiso   1.00
O467   O     0.46308   0.91286   0.25299   0.00000  Uiso   1.00
O468   O     0.53692   0.75381   0.24702   0.00000  Uiso   1.00
O469   O     0.55946   0.90387   0.24519   0.00000  Uiso   1.00
O470   O     0.44054   0.76279   0.25481   0.00000  Uiso   1.00
O471   O     0.45181   0.83784   0.31997   0.00000  Uiso   1.00
O472   O     0.54819   0.82883   0.18003   0.00000  Uiso   1.00
O473   O     0.54819   0.82885   0.31218   0.00000  Uiso   1.00
O474   O     0.45181   0.83781   0.18783   0.00000  Uiso   1.00
Zn475  Zn    0.43565   0.83933   0.25521   0.00000  Uiso   1.00
Zn476  Zn    0.56435   0.82734   0.24479   0.00000  Uiso   1.00
O477   O     0.49257   0.73480   0.11122   0.00000  Uiso   1.00
H478   H     0.49701   0.73921   0.14393   0.00000  Uiso   1.00
O479   O     0.50738   0.93186   0.38879   0.00000  Uiso   1.00
H480   H     0.50280   0.92745   0.35610   0.00000  Uiso   1.00
O481   O     0.34376   0.78100   0.21439   0.00000  Uiso   1.00
C482   C     0.64803   0.76774   0.17581   0.00000  Uiso   1.00
H483   H     0.64640   0.80250   0.15497   0.00000  Uiso   1.00
H484   H     0.60470   0.75023   0.18487   0.00000  Uiso   1.00
C485   C     0.34645   0.72703   0.14729   0.00000  Uiso   1.00
H486   H     0.35160   0.69258   0.16760   0.00000  Uiso   1.00
H487   H     0.65564   0.71443   0.11778   0.00000  Uiso   1.00
H488   H     0.38900   0.74409   0.13493   0.00000  Uiso   1.00
O489   O     0.65627   0.88574   0.28554   0.00000  Uiso   1.00
C490   C     0.35192   0.89896   0.32417   0.00000  Uiso   1.00
H491   H     0.39535   0.91629   0.31518   0.00000  Uiso   1.00
H492   H     0.35331   0.86422   0.34507   0.00000  Uiso   1.00
C493   C     0.65362   0.93987   0.35253   0.00000  Uiso   1.00
H494   H     0.61080   0.92318   0.36448   0.00000  Uiso   1.00
H495   H     0.34409   0.95214   0.38227   0.00000  Uiso   1.00
H496   H     0.64918   0.97446   0.33225   0.00000  Uiso   1.00
C497   C     0.84854   0.93148   0.24888   0.00000  Uiso   1.00
C498   C     0.81813   0.73518   0.25113   0.00000  Uiso   1.00
C499   C     0.85105   0.92859   0.48100   0.00000  Uiso   1.00
C500   C     0.81568   0.73806   0.01900   0.00000  Uiso   1.00
C501   C     0.85645   0.98608   0.24821   0.00000  Uiso   1.00
C502   C     0.81022   0.68059   0.25180   0.00000  Uiso   1.00
C503   C     0.83370   0.83424   0.33624   0.00000  Uiso   1.00
C504   C     0.83296   0.83243   0.16376   0.00000  Uiso   1.00
C505   C     0.82780   0.78283   0.09143   0.00000  Uiso   1.00
C506   C     0.83888   0.88382   0.40858   0.00000  Uiso   1.00
C507   C     0.83272   0.83071   0.11610   0.00000  Uiso   1.00
C508   C     0.83396   0.83595   0.38390   0.00000  Uiso   1.00
C509   C     0.84008   0.87827   0.09520   0.00000  Uiso   1.00
C510   C     0.82663   0.78839   0.40479   0.00000  Uiso   1.00
C511   C     0.84166   0.87954   0.04880   0.00000  Uiso   1.00
C512   C     0.82507   0.78711   0.45119   0.00000  Uiso   1.00
C513   C     0.83342   0.83259   0.02341   0.00000  Uiso   1.00
C514   C     0.83332   0.83406   0.47658   0.00000  Uiso   1.00
C515   C     0.82559   0.78417   0.04478   0.00000  Uiso   1.00
C516   C     0.84113   0.88249   0.45522   0.00000  Uiso   1.00
C517   C     0.85138   0.92706   0.02753   0.00000  Uiso   1.00
C518   C     0.81536   0.73959   0.47246   0.00000  Uiso   1.00
H519   H     0.84531   0.91425   0.11527   0.00000  Uiso   1.00
H520   H     0.82140   0.75241   0.38472   0.00000  Uiso   1.00
H521   H     0.85957   0.96289   0.04697   0.00000  Uiso   1.00
H522   H     0.80717   0.70376   0.45303   0.00000  Uiso   1.00
H523   H     0.85937   0.96578   0.46529   0.00000  Uiso   1.00
H524   H     0.80736   0.70087   0.03470   0.00000  Uiso   1.00
H525   H     0.90009   0.66982   0.24475   0.00000  Uiso   1.00
H526   H     0.76658   0.99684   0.25526   0.00000  Uiso   1.00
N527   N     0.98344   0.81932   0.23783   0.00000  Uiso   1.00
N528   N     0.68322   0.84735   0.26217   0.00000  Uiso   1.00
O529   O     0.79642   0.91286   0.25299   0.00000  Uiso   1.00
O530   O     0.87025   0.75381   0.24702   0.00000  Uiso   1.00
O531   O     0.89280   0.90387   0.24519   0.00000  Uiso   1.00
O532   O     0.77387   0.76279   0.25481   0.00000  Uiso   1.00
O533   O     0.78514   0.83784   0.31997   0.00000  Uiso   1.00
O534   O     0.88153   0.82883   0.18003   0.00000  Uiso   1.00
O535   O     0.88152   0.82885   0.31218   0.00000  Uiso   1.00
O536   O     0.78515   0.83781   0.18783   0.00000  Uiso   1.00
Zn537  Zn    0.76898   0.83933   0.25521   0.00000  Uiso   1.00
Zn538  Zn    0.89769   0.82734   0.24479   0.00000  Uiso   1.00
O539   O     0.82590   0.73480   0.11122   0.00000  Uiso   1.00
H540   H     0.83035   0.73921   0.14393   0.00000  Uiso   1.00
O541   O     0.84072   0.93186   0.38879   0.00000  Uiso   1.00
H542   H     0.83613   0.92745   0.35610   0.00000  Uiso   1.00
O543   O     0.67710   0.78100   0.21439   0.00000  Uiso   1.00
C544   C     0.98136   0.76774   0.17581   0.00000  Uiso   1.00
H545   H     0.97973   0.80250   0.15497   0.00000  Uiso   1.00
H546   H     0.93803   0.75023   0.18487   0.00000  Uiso   1.00
C547   C     0.67979   0.72703   0.14729   0.00000  Uiso   1.00
H548   H     0.68493   0.69258   0.16760   0.00000  Uiso   1.00
H549   H     0.98897   0.71443   0.11778   0.00000  Uiso   1.00
H550   H     0.72233   0.74409   0.13493   0.00000  Uiso   1.00
O551   O     0.98961   0.88574   0.28554   0.00000  Uiso   1.00
C552   C     0.68526   0.89896   0.32417   0.00000  Uiso   1.00
H553   H     0.72868   0.91629   0.31518   0.00000  Uiso   1.00
H554   H     0.68664   0.86422   0.34507   0.00000  Uiso   1.00
C555   C     0.98695   0.93987   0.35253   0.00000  Uiso   1.00
H556   H     0.94414   0.92318   0.36448   0.00000  Uiso   1.00
H557   H     0.67743   0.95214   0.38227   0.00000  Uiso   1.00
H558   H     0.98251   0.97446   0.33225   0.00000  Uiso   1.00
C559   C     0.18187   0.26482   0.74888   0.00000  Uiso   1.00
C560   C     0.15146   0.06852   0.75113   0.00000  Uiso   1.00
C561   C     0.18439   0.26192   0.98100   0.00000  Uiso   1.00
C562   C     0.14901   0.07140   0.51900   0.00000  Uiso   1.00
C563   C     0.18978   0.31941   0.74821   0.00000  Uiso   1.00
C564   C     0.14355   0.01392   0.75180   0.00000  Uiso   1.00
C565   C     0.16704   0.16757   0.83624   0.00000  Uiso   1.00
C566   C     0.16630   0.16576   0.66376   0.00000  Uiso   1.00
C567   C     0.16113   0.11617   0.59143   0.00000  Uiso   1.00
C568   C     0.17222   0.21716   0.90858   0.00000  Uiso   1.00
C569   C     0.16605   0.16404   0.61610   0.00000  Uiso   1.00
C570   C     0.16729   0.16928   0.88390   0.00000  Uiso   1.00
C571   C     0.17341   0.21160   0.59520   0.00000  Uiso   1.00
C572   C     0.15996   0.12172   0.90479   0.00000  Uiso   1.00
C573   C     0.17499   0.21287   0.54880   0.00000  Uiso   1.00
C574   C     0.15841   0.12045   0.95119   0.00000  Uiso   1.00
C575   C     0.16675   0.16592   0.52341   0.00000  Uiso   1.00
C576   C     0.16665   0.16740   0.97658   0.00000  Uiso   1.00
C577   C     0.15893   0.11750   0.54478   0.00000  Uiso   1.00
C578   C     0.17446   0.21582   0.95522   0.00000  Uiso   1.00
C579   C     0.18471   0.26039   0.52753   0.00000  Uiso   1.00
C580   C     0.14870   0.07293   0.97246   0.00000  Uiso   1.00
H581   H     0.17864   0.24758   0.61527   0.00000  Uiso   1.00
H582   H     0.15473   0.08574   0.88472   0.00000  Uiso   1.00
H583   H     0.19290   0.29623   0.54697   0.00000  Uiso   1.00
H584   H     0.14050   0.03709   0.95303   0.00000  Uiso   1.00
H585   H     0.19270   0.29912   0.96529   0.00000  Uiso   1.00
H586   H     0.14069   0.03420   0.53470   0.00000  Uiso   1.00
H587   H     0.23342   0.00316   0.74475   0.00000  Uiso   1.00
H588   H     0.09991   0.33018   0.75526   0.00000  Uiso   1.00
N589   N     0.31678   0.15265   0.73783   0.00000  Uiso   1.00
N590   N     0.01656   0.18068   0.76217   0.00000  Uiso   1.00
O591   O     0.12975   0.24619   0.75299   0.00000  Uiso   1.00
O592   O     0.20358   0.08714   0.74702   0.00000  Uiso   1.00
O593   O     0.22613   0.23721   0.74519   0.00000  Uiso   1.00
O594   O     0.10720   0.09613   0.75481   0.00000  Uiso   1.00
O595   O     0.11847   0.17117   0.81997   0.00000  Uiso   1.00
O596   O     0.21486   0.16216   0.68003   0.00000  Uiso   1.00
O597   O     0.21485   0.16219   0.81218   0.00000  Uiso   1.00
O598   O     0.11848   0.17115   0.68783   0.00000  Uiso   1.00
Zn599  Zn    0.10231   0.17266   0.75521   0.00000  Uiso   1.00
Zn600  Zn    0.23102   0.16067   0.74479   0.00000  Uiso   1.00
O601   O     0.15923   0.06813   0.61122   0.00000  Uiso   1.00
H602   H     0.16368   0.07254   0.64393   0.00000  Uiso   1.00
O603   O     0.17405   0.26520   0.88879   0.00000  Uiso   1.00
H604   H     0.16947   0.26079   0.85610   0.00000  Uiso   1.00
O605   O     0.01043   0.11433   0.71439   0.00000  Uiso   1.00
C606   C     0.31469   0.10108   0.67581   0.00000  Uiso   1.00
H607   H     0.31306   0.13584   0.65497   0.00000  Uiso   1.00
H608   H     0.27136   0.08356   0.68487   0.00000  Uiso   1.00
C609   C     0.01312   0.06037   0.64729   0.00000  Uiso   1.00
H610   H     0.01827   0.02591   0.66760   0.00000  Uiso   1.00
H611   H     0.32231   0.04776   0.61778   0.00000  Uiso   1.00
H612   H     0.05567   0.07743   0.63493   0.00000  Uiso   1.00
O613   O     0.32294   0.21907   0.78554   0.00000  Uiso   1.00
C614   C     0.01859   0.23229   0.82417   0.00000  Uiso   1.00
H615   H     0.06202   0.24962   0.81518   0.00000  Uiso   1.00
H616   H     0.01998   0.19756   0.84507   0.00000  Uiso   1.00
C617   C     0.32029   0.27321   0.85253   0.00000  Uiso   1.00
H618   H     0.27747   0.25652   0.86448   0.00000  Uiso   1.00
H619   H     0.01076   0.28547   0.88227   0.00000  Uiso   1.00
H620   H     0.31584   0.30780   0.83225   0.00000  Uiso   1.00
C621   C     0.51521   0.26482   0.74888   0.00000  Uiso   1.00
C622   C     0.48479   0.06852   0.75113   0.00000  Uiso   1.00
C623   C     0.51772   0.26192   0.98100   0.00000  Uiso   1.00
C624   C     0.48235   0.07140   0.51900   0.00000  Uiso   1.00
C625   C     0.52311   0.31941   0.74821   0.00000  Uiso   1.00
C626   C     0.47689   0.01392   0.75180   0.00000  Uiso   1.00
C627   C     0.50037   0.16757   0.83624   0.00000  Uiso   1.00
C628   C     0.49963   0.16576   0.66376   0.00000  Uiso   1.00
C629   C     0.49446   0.11617   0.59143   0.00000  Uiso   1.00
C630   C     0.50555   0.21716   0.90858   0.00000  Uiso   1.00
C631   C     0.49938   0.16404   0.61610   0.00000  Uiso   1.00
C632   C     0.50062   0.16928   0.88390   0.00000  Uiso   1.00
C633   C     0.50674   0.21160   0.59520   0.00000  Uiso   1.00
C634   C     0.49330   0.12172   0.90479   0.00000  Uiso   1.00
C635   C     0.50833   0.21287   0.54880   0.00000  Uiso   1.00
C636   C     0.49174   0.12045   0.95119   0.00000  Uiso   1.00
C637   C     0.50008   0.16592   0.52341   0.00000  Uiso   1.00
C638   C     0.49999   0.16740   0.97658   0.00000  Uiso   1.00
C639   C     0.49226   0.11750   0.54478   0.00000  Uiso   1.00
C640   C     0.50780   0.21582   0.95522   0.00000  Uiso   1.00
C641   C     0.51804   0.26039   0.52753   0.00000  Uiso   1.00
C642   C     0.48203   0.07293   0.97246   0.00000  Uiso   1.00
H643   H     0.51197   0.24758   0.61527   0.00000  Uiso   1.00
H644   H     0.48807   0.08574   0.88472   0.00000  Uiso   1.00
H645   H     0.52624   0.29623   0.54697   0.00000  Uiso   1.00
H646   H     0.47384   0.03709   0.95303   0.00000  Uiso   1.00
H647   H     0.52604   0.29912   0.96529   0.00000  Uiso   1.00
H648   H     0.47403   0.03420   0.53470   0.00000  Uiso   1.00
H649   H     0.56676   0.00316   0.74475   0.00000  Uiso   1.00
H650   H     0.43324   0.33018   0.75526   0.00000  Uiso   1.00
N651   N     0.65011   0.15265   0.73783   0.00000  Uiso   1.00
N652   N     0.34989   0.18068   0.76217   0.00000  Uiso   1.00
O653   O     0.46308   0.24619   0.75299   0.00000  Uiso   1.00
O654   O     0.53692   0.08714   0.74702   0.00000  Uiso   1.00
O655   O     0.55946   0.23721   0.74519   0.00000  Uiso   1.00
O656   O     0.44054   0.09613   0.75481   0.00000  Uiso   1.00
O657   O     0.45181   0.17117   0.81997   0.00000  Uiso   1.00
O658   O     0.54819   0.16216   0.68003   0.00000  Uiso   1.00
O659   O     0.54819   0.16219   0.81218   0.00000  Uiso   1.00
O660   O     0.45181   0.17115   0.68783   0.00000  Uiso   1.00
Zn661  Zn    0.43565   0.17266   0.75521   0.00000  Uiso   1.00
Zn662  Zn    0.56435   0.16067   0.74479   0.00000  Uiso   1.00
O663   O     0.49257   0.06813   0.61122   0.00000  Uiso   1.00
H664   H     0.49701   0.07254   0.64393   0.00000  Uiso   1.00
O665   O     0.50738   0.26520   0.88879   0.00000  Uiso   1.00
H666   H     0.50280   0.26079   0.85610   0.00000  Uiso   1.00
O667   O     0.34376   0.11433   0.71439   0.00000  Uiso   1.00
C668   C     0.64803   0.10108   0.67581   0.00000  Uiso   1.00
H669   H     0.64640   0.13584   0.65497   0.00000  Uiso   1.00
H670   H     0.60470   0.08356   0.68487   0.00000  Uiso   1.00
C671   C     0.34645   0.06037   0.64729   0.00000  Uiso   1.00
H672   H     0.35160   0.02591   0.66760   0.00000  Uiso   1.00
H673   H     0.65564   0.04776   0.61778   0.00000  Uiso   1.00
H674   H     0.38900   0.07743   0.63493   0.00000  Uiso   1.00
O675   O     0.65627   0.21907   0.78554   0.00000  Uiso   1.00
C676   C     0.35192   0.23229   0.82417   0.00000  Uiso   1.00
H677   H     0.39535   0.24962   0.81518   0.00000  Uiso   1.00
H678   H     0.35331   0.19756   0.84507   0.00000  Uiso   1.00
C679   C     0.65362   0.27321   0.85253   0.00000  Uiso   1.00
H680   H     0.61080   0.25652   0.86448   0.00000  Uiso   1.00
H681   H     0.34409   0.28547   0.88227   0.00000  Uiso   1.00
H682   H     0.64918   0.30780   0.83225   0.00000  Uiso   1.00
C683   C     0.84854   0.26482   0.74888   0.00000  Uiso   1.00
C684   C     0.81813   0.06852   0.75113   0.00000  Uiso   1.00
C685   C     0.85105   0.26192   0.98100   0.00000  Uiso   1.00
C686   C     0.81568   0.07140   0.51900   0.00000  Uiso   1.00
C687   C     0.85645   0.31941   0.74821   0.00000  Uiso   1.00
C688   C     0.81022   0.01392   0.75180   0.00000  Uiso   1.00
C689   C     0.83370   0.16757   0.83624   0.00000  Uiso   1.00
C690   C     0.83296   0.16576   0.66376   0.00000  Uiso   1.00
C691   C     0.82780   0.11617   0.59143   0.00000  Uiso   1.00
C692   C     0.83888   0.21716   0.90858   0.00000  Uiso   1.00
C693   C     0.83272   0.16404   0.61610   0.00000  Uiso   1.00
C694   C     0.83396   0.16928   0.88390   0.00000  Uiso   1.00
C695   C     0.84008   0.21160   0.59520   0.00000  Uiso   1.00
C696   C     0.82663   0.12172   0.90479   0.00000  Uiso   1.00
C697   C     0.84166   0.21287   0.54880   0.00000  Uiso   1.00
C698   C     0.82507   0.12045   0.95119   0.00000  Uiso   1.00
C699   C     0.83342   0.16592   0.52341   0.00000  Uiso   1.00
C700   C     0.83332   0.16740   0.97658   0.00000  Uiso   1.00
C701   C     0.82559   0.11750   0.54478   0.00000  Uiso   1.00
C702   C     0.84113   0.21582   0.95522   0.00000  Uiso   1.00
C703   C     0.85138   0.26039   0.52753   0.00000  Uiso   1.00
C704   C     0.81536   0.07293   0.97246   0.00000  Uiso   1.00
H705   H     0.84531   0.24758   0.61527   0.00000  Uiso   1.00
H706   H     0.82140   0.08574   0.88472   0.00000  Uiso   1.00
H707   H     0.85957   0.29623   0.54697   0.00000  Uiso   1.00
H708   H     0.80717   0.03709   0.95303   0.00000  Uiso   1.00
H709   H     0.85937   0.29912   0.96529   0.00000  Uiso   1.00
H710   H     0.80736   0.03420   0.53470   0.00000  Uiso   1.00
H711   H     0.90009   0.00316   0.74475   0.00000  Uiso   1.00
H712   H     0.76658   0.33018   0.75526   0.00000  Uiso   1.00
N713   N     0.98344   0.15265   0.73783   0.00000  Uiso   1.00
N714   N     0.68322   0.18068   0.76217   0.00000  Uiso   1.00
O715   O     0.79642   0.24619   0.75299   0.00000  Uiso   1.00
O716   O     0.87025   0.08714   0.74702   0.00000  Uiso   1.00
O717   O     0.89280   0.23721   0.74519   0.00000  Uiso   1.00
O718   O     0.77387   0.09613   0.75481   0.00000  Uiso   1.00
O719   O     0.78514   0.17117   0.81997   0.00000  Uiso   1.00
O720   O     0.88153   0.16216   0.68003   0.00000  Uiso   1.00
O721   O     0.88152   0.16219   0.81218   0.00000  Uiso   1.00
O722   O     0.78515   0.17115   0.68783   0.00000  Uiso   1.00
Zn723  Zn    0.76898   0.17266   0.75521   0.00000  Uiso   1.00
Zn724  Zn    0.89769   0.16067   0.74479   0.00000  Uiso   1.00
O725   O     0.82590   0.06813   0.61122   0.00000  Uiso   1.00
H726   H     0.83035   0.07254   0.64393   0.00000  Uiso   1.00
O727   O     0.84072   0.26520   0.88879   0.00000  Uiso   1.00
H728   H     0.83613   0.26079   0.85610   0.00000  Uiso   1.00
O729   O     0.67710   0.11433   0.71439   0.00000  Uiso   1.00
C730   C     0.98136   0.10108   0.67581   0.00000  Uiso   1.00
H731   H     0.97973   0.13584   0.65497   0.00000  Uiso   1.00
H732   H     0.93803   0.08356   0.68487   0.00000  Uiso   1.00
C733   C     0.67979   0.06037   0.64729   0.00000  Uiso   1.00
H734   H     0.68493   0.02591   0.66760   0.00000  Uiso   1.00
H735   H     0.98897   0.04776   0.61778   0.00000  Uiso   1.00
H736   H     0.72233   0.07743   0.63493   0.00000  Uiso   1.00
O737   O     0.98961   0.21907   0.78554   0.00000  Uiso   1.00
C738   C     0.68526   0.23229   0.82417   0.00000  Uiso   1.00
H739   H     0.72868   0.24962   0.81518   0.00000  Uiso   1.00
H740   H     0.68664   0.19756   0.84507   0.00000  Uiso   1.00
C741   C     0.98695   0.27321   0.85253   0.00000  Uiso   1.00
H742   H     0.94414   0.25652   0.86448   0.00000  Uiso   1.00
H743   H     0.67743   0.28547   0.88227   0.00000  Uiso   1.00
H744   H     0.98251   0.30780   0.83225   0.00000  Uiso   1.00
C745   C     0.18187   0.59815   0.74888   0.00000  Uiso   1.00
C746   C     0.15146   0.40185   0.75113   0.00000  Uiso   1.00
C747   C     0.18439   0.59526   0.98100   0.00000  Uiso   1.00
C748   C     0.14901   0.40473   0.51900   0.00000  Uiso   1.00
C749   C     0.18978   0.65274   0.74821   0.00000  Uiso   1.00
C750   C     0.14355   0.34726   0.75180   0.00000  Uiso   1.00
C751   C     0.16704   0.50090   0.83624   0.00000  Uiso   1.00
C752   C     0.16630   0.49910   0.66376   0.00000  Uiso   1.00
C753   C     0.16113   0.44950   0.59143   0.00000  Uiso   1.00
C754   C     0.17222   0.55049   0.90858   0.00000  Uiso   1.00
C755   C     0.16605   0.49738   0.61610   0.00000  Uiso   1.00
C756   C     0.16729   0.50262   0.88390   0.00000  Uiso   1.00
C757   C     0.17341   0.54493   0.59520   0.00000  Uiso   1.00
C758   C     0.15996   0.45506   0.90479   0.00000  Uiso   1.00
C759   C     0.17499   0.54621   0.54880   0.00000  Uiso   1.00
C760   C     0.15841   0.45378   0.95119   0.00000  Uiso   1.00
C761   C     0.16675   0.49926   0.52341   0.00000  Uiso   1.00
C762   C     0.16665   0.50073   0.97658   0.00000  Uiso   1.00
C763   C     0.15893   0.45084   0.54478   0.00000  Uiso   1.00
C764   C     0.17446   0.54915   0.95522   0.00000  Uiso   1.00
C765   C     0.18471   0.59373   0.52753   0.00000  Uiso   1.00
C766   C     0.14870   0.40626   0.97246   0.00000  Uiso   1.00
H767   H     0.17864   0.58092   0.61527   0.00000  Uiso   1.00
H768   H     0.15473   0.41908   0.88472   0.00000  Uiso   1.00
H769   H     0.19290   0.62956   0.54697   0.00000  Uiso   1.00
H770   H     0.14050   0.37043   0.95303   0.00000  Uiso   1.00
H771   H     0.19270   0.63245   0.96529   0.00000  Uiso   1.00
H772   H     0.14069   0.36754   0.53470   0.00000  Uiso   1.00
H773   H     0.23342   0.33649   0.74475   0.00000  Uiso   1.00
H774   H     0.09991   0.66351   0.75526   0.00000  Uiso   1.00
N775   N     0.31678   0.48598   0.73783   0.00000  Uiso   1.00
N776   N     0.01656   0.51402   0.76217   0.00000  Uiso   1.00
O777   O     0.12975   0.57952   0.75299   0.00000  Uiso   1.00
O778   O     0.20358   0.42048   0.74702   0.00000  Uiso   1.00
O779   O     0.22613   0.57054   0.74519   0.00000  Uiso   1.00
O780   O     0.10720   0.42946   0.75481   0.00000  Uiso   1.00
O781   O     0.11847   0.50450   0.81997   0.00000  Uiso   1.00
O782   O     0.21486   0.49550   0.68003   0.00000  Uiso   1.00
O783   O     0.21485   0.49552   0.81218   0.00000  Uiso   1.00
O784   O     0.11848   0.50448   0.68783   0.00000  Uiso   1.00
Zn785  Zn    0.10231   0.50600   0.75521   0.00000  Uiso   1.00
Zn786  Zn    0.23102   0.49400   0.74479   0.00000  Uiso   1.00
O787   O     0.15923   0.40146   0.61122   0.00000  Uiso   1.00
H788   H     0.16368   0.40587   0.64393   0.00000  Uiso   1.00
O789   O     0.17405   0.59853   0.88879   0.00000  Uiso   1.00
H790   H     0.16947   0.59412   0.85610   0.00000  Uiso   1.00
O791   O     0.01043   0.44766   0.71439   0.00000  Uiso   1.00
C792   C     0.31469   0.43441   0.67581   0.00000  Uiso   1.00
H793   H     0.31306   0.46917   0.65497   0.00000  Uiso   1.00
H794   H     0.27136   0.41689   0.68487   0.00000  Uiso   1.00
C795   C     0.01312   0.39370   0.64729   0.00000  Uiso   1.00
H796   H     0.01827   0.35925   0.66760   0.00000  Uiso   1.00
H797   H     0.32231   0.38109   0.61778   0.00000  Uiso   1.00
H798   H     0.05567   0.41076   0.63493   0.00000  Uiso   1.00
O799   O     0.32294   0.55241   0.78554   0.00000  Uiso   1.00
C800   C     0.01859   0.56563   0.82417   0.00000  Uiso   1.00
H801   H     0.06202   0.58296   0.81518   0.00000  Uiso   1.00
H802   H     0.01998   0.53089   0.84507   0.00000  Uiso   1.00
C803   C     0.32029   0.60654   0.85253   0.00000  Uiso   1.00
H804   H     0.27747   0.58985   0.86448   0.00000  Uiso   1.00
H805   H     0.01076   0.61880   0.88227   0.00000  Uiso   1.00
H806   H     0.31584   0.64113   0.83225   0.00000  Uiso   1.00
C807   C     0.51521   0.59815   0.74888   0.00000  Uiso   1.00
C808   C     0.48479   0.40185   0.75113   0.00000  Uiso   1.00
C809   C     0.51772   0.59526   0.98100   0.00000  Uiso   1.00
C810   C     0.48235   0.40473   0.51900   0.00000  Uiso   1.00
C811   C     0.52311   0.65274   0.74821   0.00000  Uiso   1.00
C812   C     0.47689   0.34726   0.75180   0.00000  Uiso   1.00
C813   C     0.50037   0.50090   0.83624   0.00000  Uiso   1.00
C814   C     0.49963   0.49910   0.66376   0.00000  Uiso   1.00
C815   C     0.49446   0.44950   0.59143   0.00000  Uiso   1.00
C816   C     0.50555   0.55049   0.90858   0.00000  Uiso   1.00
C817   C     0.49938   0.49738   0.61610   0.00000  Uiso   1.00
C818   C     0.50062   0.50262   0.88390   0.00000  Uiso   1.00
C819   C     0.50674   0.54493   0.59520   0.00000  Uiso   1.00
C820   C     0.49330   0.45506   0.90479   0.00000  Uiso   1.00
C821   C     0.50833   0.54621   0.54880   0.00000  Uiso   1.00
C822   C     0.49174   0.45378   0.95119   0.00000  Uiso   1.00
C823   C     0.50008   0.49926   0.52341   0.00000  Uiso   1.00
C824   C     0.49999   0.50073   0.97658   0.00000  Uiso   1.00
C825   C     0.49226   0.45084   0.54478   0.00000  Uiso   1.00
C826   C     0.50780   0.54915   0.95522   0.00000  Uiso   1.00
C827   C     0.51804   0.59373   0.52753   0.00000  Uiso   1.00
C828   C     0.48203   0.40626   0.97246   0.00000  Uiso   1.00
H829   H     0.51197   0.58092   0.61527   0.00000  Uiso   1.00
H830   H     0.48807   0.41908   0.88472   0.00000  Uiso   1.00
H831   H     0.52624   0.62956   0.54697   0.00000  Uiso   1.00
H832   H     0.47384   0.37043   0.95303   0.00000  Uiso   1.00
H833   H     0.52604   0.63245   0.96529   0.00000  Uiso   1.00
H834   H     0.47403   0.36754   0.53470   0.00000  Uiso   1.00
H835   H     0.56676   0.33649   0.74475   0.00000  Uiso   1.00
H836   H     0.43324   0.66351   0.75526   0.00000  Uiso   1.00
N837   N     0.65011   0.48598   0.73783   0.00000  Uiso   1.00
N838   N     0.34989   0.51402   0.76217   0.00000  Uiso   1.00
O839   O     0.46308   0.57952   0.75299   0.00000  Uiso   1.00
O840   O     0.53692   0.42048   0.74702   0.00000  Uiso   1.00
O841   O     0.55946   0.57054   0.74519   0.00000  Uiso   1.00
O842   O     0.44054   0.42946   0.75481   0.00000  Uiso   1.00
O843   O     0.45181   0.50450   0.81997   0.00000  Uiso   1.00
O844   O     0.54819   0.49550   0.68003   0.00000  Uiso   1.00
O845   O     0.54819   0.49552   0.81218   0.00000  Uiso   1.00
O846   O     0.45181   0.50448   0.68783   0.00000  Uiso   1.00
Zn847  Zn    0.43565   0.50600   0.75521   0.00000  Uiso   1.00
Zn848  Zn    0.56435   0.49400   0.74479   0.00000  Uiso   1.00
O849   O     0.49257   0.40146   0.61122   0.00000  Uiso   1.00
H850   H     0.49701   0.40587   0.64393   0.00000  Uiso   1.00
O851   O     0.50738   0.59853   0.88879   0.00000  Uiso   1.00
H852   H     0.50280   0.59412   0.85610   0.00000  Uiso   1.00
O853   O     0.34376   0.44766   0.71439   0.00000  Uiso   1.00
C854   C     0.64803   0.43441   0.67581   0.00000  Uiso   1.00
H855   H     0.64640   0.46917   0.65497   0.00000  Uiso   1.00
H856   H     0.60470   0.41689   0.68487   0.00000  Uiso   1.00
C857   C     0.34645   0.39370   0.64729   0.00000  Uiso   1.00
H858   H     0.35160   0.35925   0.66760   0.00000  Uiso   1.00
H859   H     0.65564   0.38109   0.61778   0.00000  Uiso   1.00
H860   H     0.38900   0.41076   0.63493   0.00000  Uiso   1.00
O861   O     0.65627   0.55241   0.78554   0.00000  Uiso   1.00
C862   C     0.35192   0.56563   0.82417   0.00000  Uiso   1.00
H863   H     0.39535   0.58296   0.81518   0.00000  Uiso   1.00
H864   H     0.35331   0.53089   0.84507   0.00000  Uiso   1.00
C865   C     0.65362   0.60654   0.85253   0.00000  Uiso   1.00
H866   H     0.61080   0.58985   0.86448   0.00000  Uiso   1.00
H867   H     0.34409   0.61880   0.88227   0.00000  Uiso   1.00
H868   H     0.64918   0.64113   0.83225   0.00000  Uiso   1.00
C869   C     0.84854   0.59815   0.74888   0.00000  Uiso   1.00
C870   C     0.81813   0.40185   0.75113   0.00000  Uiso   1.00
C871   C     0.85105   0.59526   0.98100   0.00000  Uiso   1.00
C872   C     0.81568   0.40473   0.51900   0.00000  Uiso   1.00
C873   C     0.85645   0.65274   0.74821   0.00000  Uiso   1.00
C874   C     0.81022   0.34726   0.75180   0.00000  Uiso   1.00
C875   C     0.83370   0.50090   0.83624   0.00000  Uiso   1.00
C876   C     0.83296   0.49910   0.66376   0.00000  Uiso   1.00
C877   C     0.82780   0.44950   0.59143   0.00000  Uiso   1.00
C878   C     0.83888   0.55049   0.90858   0.00000  Uiso   1.00
C879   C     0.83272   0.49738   0.61610   0.00000  Uiso   1.00
C880   C     0.83396   0.50262   0.88390   0.00000  Uiso   1.00
C881   C     0.84008   0.54493   0.59520   0.00000  Uiso   1.00
C882   C     0.82663   0.45506   0.90479   0.00000  Uiso   1.00
C883   C     0.84166   0.54621   0.54880   0.00000  Uiso   1.00
C884   C     0.82507   0.45378   0.95119   0.00000  Uiso   1.00
C885   C     0.83342   0.49926   0.52341   0.00000  Uiso   1.00
C886   C     0.83332   0.50073   0.97658   0.00000  Uiso   1.00
C887   C     0.82559   0.45084   0.54478   0.00000  Uiso   1.00
C888   C     0.84113   0.54915   0.95522   0.00000  Uiso   1.00
C889   C     0.85138   0.59373   0.52753   0.00000  Uiso   1.00
C890   C     0.81536   0.40626   0.97246   0.00000  Uiso   1.00
H891   H     0.84531   0.58092   0.61527   0.00000  Uiso   1.00
H892   H     0.82140   0.41908   0.88472   0.00000  Uiso   1.00
H893   H     0.85957   0.62956   0.54697   0.00000  Uiso   1.00
H894   H     0.80717   0.37043   0.95303   0.00000  Uiso   1.00
H895   H     0.85937   0.63245   0.96529   0.00000  Uiso   1.00
H896   H     0.80736   0.36754   0.53470   0.00000  Uiso   1.00
H897   H     0.90009   0.33649   0.74475   0.00000  Uiso   1.00
H898   H     0.76658   0.66351   0.75526   0.00000  Uiso   1.00
N899   N     0.98344   0.48598   0.73783   0.00000  Uiso   1.00
N900   N     0.68322   0.51402   0.76217   0.00000  Uiso   1.00
O901   O     0.79642   0.57952   0.75299   0.00000  Uiso   1.00
O902   O     0.87025   0.42048   0.74702   0.00000  Uiso   1.00
O903   O     0.89280   0.57054   0.74519   0.00000  Uiso   1.00
O904   O     0.77387   0.42946   0.75481   0.00000  Uiso   1.00
O905   O     0.78514   0.50450   0.81997   0.00000  Uiso   1.00
O906   O     0.88153   0.49550   0.68003   0.00000  Uiso   1.00
O907   O     0.88152   0.49552   0.81218   0.00000  Uiso   1.00
O908   O     0.78515   0.50448   0.68783   0.00000  Uiso   1.00
Zn909  Zn    0.76898   0.50600   0.75521   0.00000  Uiso   1.00
Zn910  Zn    0.89769   0.49400   0.74479   0.00000  Uiso   1.00
O911   O     0.82590   0.40146   0.61122   0.00000  Uiso   1.00
H912   H     0.83035   0.40587   0.64393   0.00000  Uiso   1.00
O913   O     0.84072   0.59853   0.88879   0.00000  Uiso   1.00
H914   H     0.83613   0.59412   0.85610   0.00000  Uiso   1.00
O915   O     0.67710   0.44766   0.71439   0.00000  Uiso   1.00
C916   C     0.98136   0.43441   0.67581   0.00000  Uiso   1.00
H917   H     0.97973   0.46917   0.65497   0.00000  Uiso   1.00
H918   H     0.93803   0.41689   0.68487   0.00000  Uiso   1.00
C919   C     0.67979   0.39370   0.64729   0.00000  Uiso   1.00
H920   H     0.68493   0.35925   0.66760   0.00000  Uiso   1.00
H921   H     0.98897   0.38109   0.61778   0.00000  Uiso   1.00
H922   H     0.72233   0.41076   0.63493   0.00000  Uiso   1.00
O923   O     0.98961   0.55241   0.78554   0.00000  Uiso   1.00
C924   C     0.68526   0.56563   0.82417   0.00000  Uiso   1.00
H925   H     0.72868   0.58296   0.81518   0.00000  Uiso   1.00
H926   H     0.68664   0.53089   0.84507   0.00000  Uiso   1.00
C927   C     0.98695   0.60654   0.85253   0.00000  Uiso   1.00
H928   H     0.94414   0.58985   0.86448   0.00000  Uiso   1.00
H929   H     0.67743   0.61880   0.88227   0.00000  Uiso   1.00
H930   H     0.98251   0.64113   0.83225   0.00000  Uiso   1.00
C931   C     0.18187   0.93148   0.74888   0.00000  Uiso   1.00
C932   C     0.15146   0.73518   0.75113   0.00000  Uiso   1.00
C933   C     0.18439   0.92859   0.98100   0.00000  Uiso   1.00
C934   C     0.14901   0.73806   0.51900   0.00000  Uiso   1.00
C935   C     0.18978   0.98608   0.74821   0.00000  Uiso   1.00
C936   C     0.14355   0.68059   0.75180   0.00000  Uiso   1.00
C937   C     0.16704   0.83424   0.83624   0.00000  Uiso   1.00
C938   C     0.16630   0.83243   0.66376   0.00000  Uiso   1.00
C939   C     0.16113   0.78283   0.59143   0.00000  Uiso   1.00
C940   C     0.17222   0.88382   0.90858   0.00000  Uiso   1.00
C941   C     0.16605   0.83071   0.61610   0.00000  Uiso   1.00
C942   C     0.16729   0.83595   0.88390   0.00000  Uiso   1.00
C943   C     0.17341   0.87827   0.59520   0.00000  Uiso   1.00
C944   C     0.15996   0.78839   0.90479   0.00000  Uiso   1.00
C945   C     0.17499   0.87954   0.54880   0.00000  Uiso   1.00
C946   C     0.15841   0.78711   0.95119   0.00000  Uiso   1.00
C947   C     0.16675   0.83259   0.52341   0.00000  Uiso   1.00
C948   C     0.16665   0.83406   0.97658   0.00000  Uiso   1.00
C949   C     0.15893   0.78417   0.54478   0.00000  Uiso   1.00
C950   C     0.17446   0.88249   0.95522   0.00000  Uiso   1.00
C951   C     0.18471   0.92706   0.52753   0.00000  Uiso   1.00
C952   C     0.14870   0.73959   0.97246   0.00000  Uiso   1.00
H953   H     0.17864   0.91425   0.61527   0.00000  Uiso   1.00
H954   H     0.15473   0.75241   0.88472   0.00000  Uiso   1.00
H955   H     0.19290   0.96289   0.54697   0.00000  Uiso   1.00
H956   H     0.14050   0.70376   0.95303   0.00000  Uiso   1.00
H957   H     0.19270   0.96578   0.96529   0.00000  Uiso   1.00
H958   H     0.14069   0.70087   0.53470   0.00000  Uiso   1.00
H959   H     0.23342   0.66982   0.74475   0.00000  Uiso   1.00
H960   H     0.09991   0.99684   0.75526   0.00000  Uiso   1.00
N961   N     0.31678   0.81932   0.73783   0.00000  Uiso   1.00
N962   N     0.01656   0.84735   0.76217   0.00000  Uiso   1.00
O963   O     0.12975   0.91286   0.75299   0.00000  Uiso   1.00
O964   O     0.20358   0.75381   0.74702   0.00000  Uiso   1.00
O965   O     0.22613   0.90387   0.74519   0.00000  Uiso   1.00
O966   O     0.10720   0.76279   0.75481   0.00000  Uiso   1.00
O967   O     0.11847   0.83784   0.81997   0.00000  Uiso   1.00
O968   O     0.21486   0.82883   0.68003   0.00000  Uiso   1.00
O969   O     0.21485   0.82885   0.81218   0.00000  Uiso   1.00
O970   O     0.11848   0.83781   0.68783   0.00000  Uiso   1.00
Zn971  Zn    0.10231   0.83933   0.75521   0.00000  Uiso   1.00
Zn972  Zn    0.23102   0.82734   0.74479   0.00000  Uiso   1.00
O973   O     0.15923   0.73480   0.61122   0.00000  Uiso   1.00
H974   H     0.16368   0.73921   0.64393   0.00000  Uiso   1.00
O975   O     0.17405   0.93186   0.88879   0.00000  Uiso   1.00
H976   H     0.16947   0.92745   0.85610   0.00000  Uiso   1.00
O977   O     0.01043   0.78100   0.71439   0.00000  Uiso   1.00
C978   C     0.31469   0.76774   0.67581   0.00000  Uiso   1.00
H979   H     0.31306   0.80250   0.65497   0.00000  Uiso   1.00
H980   H     0.27136   0.75023   0.68487   0.00000  Uiso   1.00
C981   C     0.01312   0.72703   0.64729   0.00000  Uiso   1.00
H982   H     0.01827   0.69258   0.66760   0.00000  Uiso   1.00
H983   H     0.32231   0.71443   0.61778   0.00000  Uiso   1.00
H984   H     0.05567   0.74409   0.63493   0.00000  Uiso   1.00
O985   O     0.32294   0.88574   0.78554   0.00000  Uiso   1.00
C986   C     0.01859   0.89896   0.82417   0.00000  Uiso   1.00
H987   H     0.06202   0.91629   0.81518   0.00000  Uiso   1.00
H988   H     0.01998   0.86422   0.84507   0.00000  Uiso   1.00
C989   C     0.32029   0.93987   0.85253   0.00000  Uiso   1.00
H990   H     0.27747   0.92318   0.86448   0.00000  Uiso   1.00
H991   H     0.01076   0.95214   0.88227   0.00000  Uiso   1.00
H992   H     0.31584   0.97446   0.83225   0.00000  Uiso   1.00
C993   C     0.51521   0.93148   0.74888   0.00000  Uiso   1.00
C994   C     0.48479   0.73518   0.75113   0.00000  Uiso   1.00
C995   C     0.51772   0.92859   0.98100   0.00000  Uiso   1.00
C996   C     0.48235   0.73806   0.51900   0.00000  Uiso   1.00
C997   C     0.52311   0.98608   0.74821   0.00000  Uiso   1.00
C998   C     0.47689   0.68059   0.75180   0.00000  Uiso   1.00
C999   C     0.50037   0.83424   0.83624   0.00000  Uiso   1.00
C1000  C     0.49963   0.83243   0.66376   0.00000  Uiso   1.00
C1001  C     0.49446   0.78283   0.59143   0.00000  Uiso   1.00
C1002  C     0.50555   0.88382   0.90858   0.00000  Uiso   1.00
C1003  C     0.49938   0.83071   0.61610   0.00000  Uiso   1.00
C1004  C     0.50062   0.83595   0.88390   0.00000  Uiso   1.00
C1005  C     0.50674   0.87827   0.59520   0.00000  Uiso   1.00
C1006  C     0.49330   0.78839   0.90479   0.00000  Uiso   1.00
C1007  C     0.50833   0.87954   0.54880   0.00000  Uiso   1.00
C1008  C     0.49174   0.78711   0.95119   0.00000  Uiso   1.00
C1009  C     0.50008   0.83259   0.52341   0.00000  Uiso   1.00
C1010  C     0.49999   0.83406   0.97658   0.00000  Uiso   1.00
C1011  C     0.49226   0.78417   0.54478   0.00000  Uiso   1.00
C1012  C     0.50780   0.88249   0.95522   0.00000  Uiso   1.00
C1013  C     0.51804   0.92706   0.52753   0.00000  Uiso   1.00
C1014  C     0.48203   0.73959   0.97246   0.00000  Uiso   1.00
H1015  H     0.51197   0.91425   0.61527   0.00000  Uiso   1.00
H1016  H     0.48807   0.75241   0.88472   0.00000  Uiso   1.00
H1017  H     0.52624   0.96289   0.54697   0.00000  Uiso   1.00
H1018  H     0.47384   0.70376   0.95303   0.00000  Uiso   1.00
H1019  H     0.52604   0.96578   0.96529   0.00000  Uiso   1.00
H1020  H     0.47403   0.70087   0.53470   0.00000  Uiso   1.00
H1021  H     0.56676   0.66982   0.74475   0.00000  Uiso   1.00
H1022  H     0.43324   0.99684   0.75526   0.00000  Uiso   1.00
N1023  N     0.65011   0.81932   0.73783   0.00000  Uiso   1.00
N1024  N     0.34989   0.84735   0.76217   0.00000  Uiso   1.00
O1025  O     0.46308   0.91286   0.75299   0.00000  Uiso   1.00
O1026  O     0.53692   0.75381   0.74702   0.00000  Uiso   1.00
O1027  O     0.55946   0.90387   0.74519   0.00000  Uiso   1.00
O1028  O     0.44054   0.76279   0.75481   0.00000  Uiso   1.00
O1029  O     0.45181   0.83784   0.81997   0.00000  Uiso   1.00
O1030  O     0.54819   0.82883   0.68003   0.00000  Uiso   1.00
O1031  O     0.54819   0.82885   0.81218   0.00000  Uiso   1.00
O1032  O     0.45181   0.83781   0.68783   0.00000  Uiso   1.00
Zn1033 Zn    0.43565   0.83933   0.75521   0.00000  Uiso   1.00
Zn1034 Zn    0.56435   0.82734   0.74479   0.00000  Uiso   1.00
O1035  O     0.49257   0.73480   0.61122   0.00000  Uiso   1.00
H1036  H     0.49701   0.73921   0.64393   0.00000  Uiso   1.00
O1037  O     0.50738   0.93186   0.88879   0.00000  Uiso   1.00
H1038  H     0.50280   0.92745   0.85610   0.00000  Uiso   1.00
O1039  O     0.34376   0.78100   0.71439   0.00000  Uiso   1.00
C1040  C     0.64803   0.76774   0.67581   0.00000  Uiso   1.00
H1041  H     0.64640   0.80250   0.65497   0.00000  Uiso   1.00
H1042  H     0.60470   0.75023   0.68487   0.00000  Uiso   1.00
C1043  C     0.34645   0.72703   0.64729   0.00000  Uiso   1.00
H1044  H     0.35160   0.69258   0.66760   0.00000  Uiso   1.00
H1045  H     0.65564   0.71443   0.61778   0.00000  Uiso   1.00
H1046  H     0.38900   0.74409   0.63493   0.00000  Uiso   1.00
O1047  O     0.65627   0.88574   0.78554   0.00000  Uiso   1.00
C1048  C     0.35192   0.89896   0.82417   0.00000  Uiso   1.00
H1049  H     0.39535   0.91629   0.81518   0.00000  Uiso   1.00
H1050  H     0.35331   0.86422   0.84507   0.00000  Uiso   1.00
C1051  C     0.65362   0.93987   0.85253   0.00000  Uiso   1.00
H1052  H     0.61080   0.92318   0.86448   0.00000  Uiso   1.00
H1053  H     0.34409   0.95214   0.88227   0.00000  Uiso   1.00
H1054  H     0.64918   0.97446   0.83225   0.00000  Uiso   1.00
C1055  C     0.84854   0.93148   0.74888   0.00000  Uiso   1.00
C1056  C     0.81813   0.73518   0.75113   0.00000  Uiso   1.00
C1057  C     0.85105   0.92859   0.98100   0.00000  Uiso   1.00
C1058  C     0.81568   0.73806   0.51900   0.00000  Uiso   1.00
C1059  C     0.85645   0.98608   0.74821   0.00000  Uiso   1.00
C1060  C     0.81022   0.68059   0.75180   0.00000  Uiso   1.00
C1061  C     0.83370   0.83424   0.83624   0.00000  Uiso   1.00
C1062  C     0.83296   0.83243   0.66376   0.00000  Uiso   1.00
C1063  C     0.82780   0.78283   0.59143   0.00000  Uiso   1.00
C1064  C     0.83888   0.88382   0.90858   0.00000  Uiso   1.00
C1065  C     0.83272   0.83071   0.61610   0.00000  Uiso   1.00
C1066  C     0.83396   0.83595   0.88390   0.00000  Uiso   1.00
C1067  C     0.84008   0.87827   0.59520   0.00000  Uiso   1.00
C1068  C     0.82663   0.78839   0.90479   0.00000  Uiso   1.00
C1069  C     0.84166   0.87954   0.54880   0.00000  Uiso   1.00
C1070  C     0.82507   0.78711   0.95119   0.00000  Uiso   1.00
C1071  C     0.83342   0.83259   0.52341   0.00000  Uiso   1.00
C1072  C     0.83332   0.83406   0.97658   0.00000  Uiso   1.00
C1073  C     0.82559   0.78417   0.54478   0.00000  Uiso   1.00
C1074  C     0.84113   0.88249   0.95522   0.00000  Uiso   1.00
C1075  C     0.85138   0.92706   0.52753   0.00000  Uiso   1.00
C1076  C     0.81536   0.73959   0.97246   0.00000  Uiso   1.00
H1077  H     0.84531   0.91425   0.61527   0.00000  Uiso   1.00
H1078  H     0.82140   0.75241   0.88472   0.00000  Uiso   1.00
H1079  H     0.85957   0.96289   0.54697   0.00000  Uiso   1.00
H1080  H     0.80717   0.70376   0.95303   0.00000  Uiso   1.00
H1081  H     0.85937   0.96578   0.96529   0.00000  Uiso   1.00
H1082  H     0.80736   0.70087   0.53470   0.00000  Uiso   1.00
H1083  H     0.90009   0.66982   0.74475   0.00000  Uiso   1.00
H1084  H     0.76658   0.99684   0.75526   0.00000  Uiso   1.00
N1085  N     0.98344   0.81932   0.73783   0.00000  Uiso   1.00
N1086  N     0.68322   0.84735   0.76217   0.00000  Uiso   1.00
O1087  O     0.79642   0.91286   0.75299   0.00000  Uiso   1.00
O1088  O     0.87025   0.75381   0.74702   0.00000  Uiso   1.00
O1089  O     0.89280   0.90387   0.74519   0.00000  Uiso   1.00
O1090  O     0.77387   0.76279   0.75481   0.00000  Uiso   1.00
O1091  O     0.78514   0.83784   0.81997   0.00000  Uiso   1.00
O1092  O     0.88153   0.82883   0.68003   0.00000  Uiso   1.00
O1093  O     0.88152   0.82885   0.81218   0.00000  Uiso   1.00
O1094  O     0.78515   0.83781   0.68783   0.00000  Uiso   1.00
Zn1095 Zn    0.76898   0.83933   0.75521   0.00000  Uiso   1.00
Zn1096 Zn    0.89769   0.82734   0.74479   0.00000  Uiso   1.00
O1097  O     0.82590   0.73480   0.61122   0.00000  Uiso   1.00
H1098  H     0.83035   0.73921   0.64393   0.00000  Uiso   1.00
O1099  O     0.84072   0.93186   0.88879   0.00000  Uiso   1.00
H1100  H     0.83613   0.92745   0.85610   0.00000  Uiso   1.00
O1101  O     0.67710   0.78100   0.71439   0.00000  Uiso   1.00
C1102  C     0.98136   0.76774   0.67581   0.00000  Uiso   1.00
H1103  H     0.97973   0.80250   0.65497   0.00000  Uiso   1.00
H1104  H     0.93803   0.75023   0.68487   0.00000  Uiso   1.00
C1105  C     0.67979   0.72703   0.64729   0.00000  Uiso   1.00
H1106  H     0.68493   0.69258   0.66760   0.00000  Uiso   1.00
H1107  H     0.98897   0.71443   0.61778   0.00000  Uiso   1.00
H1108  H     0.72233   0.74409   0.63493   0.00000  Uiso   1.00
O1109  O     0.98961   0.88574   0.78554   0.00000  Uiso   1.00
C1110  C     0.68526   0.89896   0.82417   0.00000  Uiso   1.00
H1111  H     0.72868   0.91629   0.81518   0.00000  Uiso   1.00
H1112  H     0.68664   0.86422   0.84507   0.00000  Uiso   1.00
C1113  C     0.98695   0.93987   0.85253   0.00000  Uiso   1.00
H1114  H     0.94414   0.92318   0.86448   0.00000  Uiso   1.00
H1115  H     0.67743   0.95214   0.88227   0.00000  Uiso   1.00
H1116  H     0.98251   0.97446   0.83225   0.00000  Uiso   1.00
loop_
_geom_bond_atom_site_label_1
_geom_bond_atom_site_label_2
_geom_bond_distance
_geom_bond_site_symmetry_2
_ccdc_geom_bond_type
C1     O33     1.284   .     A
C1     O35     1.295   .     A
C1     C5      1.405   .     S
C2     O34     1.284   .     A
C2     C6      1.405   .     S
C2     O36     1.295   .     A
C3     H27     1.081   .     S
C3     C20     1.403   .     A
C3     C579    1.387   .     S
C4     H28     1.081   .     S
C4     C19     1.403   .     A
C4     C580    1.387   1_554 S
C5     C192    1.338   .     S
C5     H215    1.088   .     S
C6     C377    1.338   1_545 S
C6     H402    1.088   1_545 S
C7     O37     1.289   .     A
C7     C12     1.417   .     S
C7     O39     1.295   .     A
C8     C11     1.417   .     S
C8     O38     1.289   .     A
C8     O40     1.295   .     A
C9     C11     1.411   .     A
C9     O43     1.387   .     S
C9     C19     1.395   .     A
C10    O45     1.387   .     S
C10    C12     1.411   .     A
C10    C20     1.395   .     A
C11    C13     1.389   .     A
C12    C14     1.389   .     A
C13    C15     1.379   .     A
C13    H23     1.086   .     S
C14    C16     1.379   .     A
C14    H24     1.086   .     S
C15    C21     1.396   .     A
C15    C17     1.409   .     A
C16    C22     1.396   .     A
C16    C18     1.409   .     A
C17    C19     1.415   .     A
C17    C576    1.396   1_554 S
C18    C20     1.415   .     A
C18    C575    1.396   .     S
C21    H25     1.083   .     S
C21    C561    1.387   1_554 S
C22    H26     1.083   .     S
C22    C562    1.387   .     S
H29    C377    1.088   1_545 S
H30    C192    1.088   .     S
N31    Zn42    2.035   .     S
N31    N94     1.276   .     S
N31    O109    1.348   .     S
N32    Zn41    2.035   .     S
N32    N155    1.276   1_455 S
N32    O179    1.348   1_455 S
O33    Zn41    1.959   .     S
O34    Zn42    1.959   .     S
O35    Zn42    1.980   .     S
O36    Zn41    1.980   .     S
O37    Zn41    1.997   .     S
O38    Zn42    1.997   .     S
O39    Zn42    2.008   .     S
O40    Zn41    2.008   .     S
O43    H44     0.989   .     S
O45    H46     0.988   .     S
O47    N155    1.348   1_455 S
O47    C172    1.404   1_455 S
C48    H50     1.103   .     S
C48    H49     1.113   .     S
C48    O109    1.404   .     S
C48    C113    1.518   .     S
C51    H54     1.105   .     S
C51    H52     1.112   .     S
C51    C172    1.518   1_455 S
C51    H177    1.111   1_455 S
H53    C113    1.111   .     S
O55    N94     1.348   .     S
O55    C118    1.404   .     S
C56    H58     1.113   .     S
C56    H57     1.103   .     S
C56    O179    1.404   1_455 S
C56    C183    1.518   1_455 S
C59    H60     1.104   .     S
C59    H62     1.111   .     S
C59    C118    1.518   .     S
C59    H123    1.111   .     S
H61    C183    1.111   1_455 S
C63    O95     1.284   .     A
C63    O97     1.295   .     A
C63    C67     1.405   .     S
C64    O96     1.284   .     A
C64    C68     1.405   .     S
C64    O98     1.295   .     A
C65    H89     1.081   .     S
C65    C82     1.403   .     A
C65    C641    1.387   .     S
C66    H90     1.081   .     S
C66    C81     1.403   .     A
C66    C642    1.387   1_554 S
C67    C254    1.338   .     S
C67    H277    1.088   .     S
C68    C439    1.338   1_545 S
C68    H464    1.088   1_545 S
C69    O99     1.289   .     A
C69    C74     1.417   .     S
C69    O101    1.295   .     A
C70    C73     1.417   .     S
C70    O100    1.289   .     A
C70    O102    1.295   .     A
C71    C73     1.411   .     A
C71    O105    1.387   .     S
C71    C81     1.395   .     A
C72    O107    1.387   .     S
C72    C74     1.411   .     A
C72    C82     1.395   .     A
C73    C75     1.389   .     A
C74    C76     1.389   .     A
C75    C77     1.379   .     A
C75    H85     1.086   .     S
C76    C78     1.379   .     A
C76    H86     1.086   .     S
C77    C83     1.396   .     A
C77    C79     1.409   .     A
C78    C84     1.396   .     A
C78    C80     1.409   .     A
C79    C81     1.415   .     A
C79    C638    1.396   1_554 S
C80    C82     1.415   .     A
C80    C637    1.396   .     S
C83    H87     1.083   .     S
C83    C623    1.387   1_554 S
C84    H88     1.083   .     S
C84    C624    1.387   .     S
H91    C439    1.088   1_545 S
H92    C254    1.088   .     S
N93    Zn104   2.035   .     S
N93    N156    1.276   .     S
N93    O171    1.348   .     S
N94    Zn103   2.035   .     S
O95    Zn103   1.959   .     S
O96    Zn104   1.959   .     S
O97    Zn104   1.980   .     S
O98    Zn103   1.980   .     S
O99    Zn103   1.997   .     S
O100   Zn104   1.997   .     S
O101   Zn104   2.008   .     S
O102   Zn103   2.008   .     S
O105   H106    0.989   .     S
O107   H108    0.988   .     S
C110   H112    1.103   .     S
C110   H111    1.113   .     S
C110   O171    1.404   .     S
C110   C175    1.518   .     S
C113   H116    1.105   .     S
C113   H114    1.112   .     S
H115   C175    1.111   .     S
O117   N156    1.348   .     S
O117   C180    1.404   .     S
C118   H120    1.113   .     S
C118   H119    1.103   .     S
C121   H122    1.104   .     S
C121   H124    1.111   .     S
C121   C180    1.518   .     S
C121   H185    1.111   .     S
C125   O157    1.284   .     A
C125   O159    1.295   .     A
C125   C129    1.405   .     S
C126   O158    1.284   .     A
C126   C130    1.405   .     S
C126   O160    1.295   .     A
C127   H151    1.081   .     S
C127   C144    1.403   .     A
C127   C703    1.387   .     S
C128   H152    1.081   .     S
C128   C143    1.403   .     A
C128   C704    1.387   1_554 S
C129   C316    1.338   .     S
C129   H339    1.088   .     S
C130   C501    1.338   1_545 S
C130   H526    1.088   1_545 S
C131   O161    1.289   .     A
C131   C136    1.417   .     S
C131   O163    1.295   .     A
C132   C135    1.417   .     S
C132   O162    1.289   .     A
C132   O164    1.295   .     A
C133   C135    1.411   .     A
C133   O167    1.387   .     S
C133   C143    1.395   .     A
C134   O169    1.387   .     S
C134   C136    1.411   .     A
C134   C144    1.395   .     A
C135   C137    1.389   .     A
C136   C138    1.389   .     A
C137   C139    1.379   .     A
C137   H147    1.086   .     S
C138   C140    1.379   .     A
C138   H148    1.086   .     S
C139   C145    1.396   .     A
C139   C141    1.409   .     A
C140   C146    1.396   .     A
C140   C142    1.409   .     A
C141   C143    1.415   .     A
C141   C700    1.396   1_554 S
C142   C144    1.415   .     A
C142   C699    1.396   .     S
C145   H149    1.083   .     S
C145   C685    1.387   1_554 S
C146   H150    1.083   .     S
C146   C686    1.387   .     S
H153   C501    1.088   1_545 S
H154   C316    1.088   .     S
N155   Zn166   2.035   .     S
N155   N32     1.276   1_655 S
N155   O47     1.348   1_655 S
N156   Zn165   2.035   .     S
O157   Zn165   1.959   .     S
O158   Zn166   1.959   .     S
O159   Zn166   1.980   .     S
O160   Zn165   1.980   .     S
O161   Zn165   1.997   .     S
O162   Zn166   1.997   .     S
O163   Zn166   2.008   .     S
O164   Zn165   2.008   .     S
O167   H168    0.989   .     S
O169   H170    0.988   .     S
C172   H174    1.103   .     S
C172   H173    1.113   .     S
C172   O47     1.404   1_655 S
C172   C51     1.518   1_655 S
C175   H178    1.105   .     S
C175   H176    1.112   .     S
H177   C51     1.111   1_655 S
O179   N32     1.348   1_655 S
O179   C56     1.404   1_655 S
C180   H182    1.113   .     S
C180   H181    1.103   .     S
C183   H184    1.104   .     S
C183   H186    1.111   .     S
C183   C56     1.518   1_655 S
C183   H61     1.111   1_655 S
C187   O219    1.284   .     A
C187   O221    1.295   .     A
C187   C191    1.405   .     S
C188   O220    1.284   .     A
C188   C192    1.405   .     S
C188   O222    1.295   .     A
C189   H213    1.081   .     S
C189   C206    1.403   .     A
C189   C765    1.387   .     S
C190   H214    1.081   .     S
C190   C205    1.403   .     A
C190   C766    1.387   1_554 S
C191   C378    1.338   .     S
C191   H401    1.088   .     S
C193   O223    1.289   .     A
C193   C198    1.417   .     S
C193   O225    1.295   .     A
C194   C197    1.417   .     S
C194   O224    1.289   .     A
C194   O226    1.295   .     A
C195   C197    1.411   .     A
C195   O229    1.387   .     S
C195   C205    1.395   .     A
C196   O231    1.387   .     S
C196   C198    1.411   .     A
C196   C206    1.395   .     A
C197   C199    1.389   .     A
C198   C200    1.389   .     A
C199   C201    1.379   .     A
C199   H209    1.086   .     S
C200   C202    1.379   .     A
C200   H210    1.086   .     S
C201   C207    1.396   .     A
C201   C203    1.409   .     A
C202   C208    1.396   .     A
C202   C204    1.409   .     A
C203   C205    1.415   .     A
C203   C762    1.396   1_554 S
C204   C206    1.415   .     A
C204   C761    1.396   .     S
C207   H211    1.083   .     S
C207   C747    1.387   1_554 S
C208   H212    1.083   .     S
C208   C748    1.387   .     S
H216   C378    1.088   .     S
N217   Zn228   2.035   .     S
N217   N280    1.276   .     S
N217   O295    1.348   .     S
N218   Zn227   2.035   .     S
N218   N341    1.276   1_455 S
N218   O365    1.348   1_455 S
O219   Zn227   1.959   .     S
O220   Zn228   1.959   .     S
O221   Zn228   1.980   .     S
O222   Zn227   1.980   .     S
O223   Zn227   1.997   .     S
O224   Zn228   1.997   .     S
O225   Zn228   2.008   .     S
O226   Zn227   2.008   .     S
O229   H230    0.989   .     S
O231   H232    0.988   .     S
O233   N341    1.348   1_455 S
O233   C358    1.404   1_455 S
C234   H236    1.103   .     S
C234   H235    1.113   .     S
C234   O295    1.404   .     S
C234   C299    1.518   .     S
C237   H240    1.105   .     S
C237   H238    1.112   .     S
C237   C358    1.518   1_455 S
C237   H363    1.111   1_455 S
H239   C299    1.111   .     S
O241   N280    1.348   .     S
O241   C304    1.404   .     S
C242   H244    1.113   .     S
C242   H243    1.103   .     S
C242   O365    1.404   1_455 S
C242   C369    1.518   1_455 S
C245   H246    1.104   .     S
C245   H248    1.111   .     S
C245   C304    1.518   .     S
C245   H309    1.111   .     S
H247   C369    1.111   1_455 S
C249   O281    1.284   .     A
C249   O283    1.295   .     A
C249   C253    1.405   .     S
C250   O282    1.284   .     A
C250   C254    1.405   .     S
C250   O284    1.295   .     A
C251   H275    1.081   .     S
C251   C268    1.403   .     A
C251   C827    1.387   .     S
C252   H276    1.081   .     S
C252   C267    1.403   .     A
C252   C828    1.387   1_554 S
C253   C440    1.338   .     S
C253   H463    1.088   .     S
C255   O285    1.289   .     A
C255   C260    1.417   .     S
C255   O287    1.295   .     A
C256   C259    1.417   .     S
C256   O286    1.289   .     A
C256   O288    1.295   .     A
C257   C259    1.411   .     A
C257   O291    1.387   .     S
C257   C267    1.395   .     A
C258   O293    1.387   .     S
C258   C260    1.411   .     A
C258   C268    1.395   .     A
C259   C261    1.389   .     A
C260   C262    1.389   .     A
C261   C263    1.379   .     A
C261   H271    1.086   .     S
C262   C264    1.379   .     A
C262   H272    1.086   .     S
C263   C269    1.396   .     A
C263   C265    1.409   .     A
C264   C270    1.396   .     A
C264   C266    1.409   .     A
C265   C267    1.415   .     A
C265   C824    1.396   1_554 S
C266   C268    1.415   .     A
C266   C823    1.396   .     S
C269   H273    1.083   .     S
C269   C809    1.387   1_554 S
C270   H274    1.083   .     S
C270   C810    1.387   .     S
H278   C440    1.088   .     S
N279   Zn290   2.035   .     S
N279   N342    1.276   .     S
N279   O357    1.348   .     S
N280   Zn289   2.035   .     S
O281   Zn289   1.959   .     S
O282   Zn290   1.959   .     S
O283   Zn290   1.980   .     S
O284   Zn289   1.980   .     S
O285   Zn289   1.997   .     S
O286   Zn290   1.997   .     S
O287   Zn290   2.008   .     S
O288   Zn289   2.008   .     S
O291   H292    0.989   .     S
O293   H294    0.988   .     S
C296   H298    1.103   .     S
C296   H297    1.113   .     S
C296   O357    1.404   .     S
C296   C361    1.518   .     S
C299   H302    1.105   .     S
C299   H300    1.112   .     S
H301   C361    1.111   .     S
O303   N342    1.348   .     S
O303   C366    1.404   .     S
C304   H306    1.113   .     S
C304   H305    1.103   .     S
C307   H308    1.104   .     S
C307   H310    1.111   .     S
C307   C366    1.518   .     S
C307   H371    1.111   .     S
C311   O343    1.284   .     A
C311   O345    1.295   .     A
C311   C315    1.405   .     S
C312   O344    1.284   .     A
C312   C316    1.405   .     S
C312   O346    1.295   .     A
C313   H337    1.081   .     S
C313   C330    1.403   .     A
C313   C889    1.387   .     S
C314   H338    1.081   .     S
C314   C329    1.403   .     A
C314   C890    1.387   1_554 S
C315   C502    1.338   .     S
C315   H525    1.088   .     S
C317   O347    1.289   .     A
C317   C322    1.417   .     S
C317   O349    1.295   .     A
C318   C321    1.417   .     S
C318   O348    1.289   .     A
C318   O350    1.295   .     A
C319   C321    1.411   .     A
C319   O353    1.387   .     S
C319   C329    1.395   .     A
C320   O355    1.387   .     S
C320   C322    1.411   .     A
C320   C330    1.395   .     A
C321   C323    1.389   .     A
C322   C324    1.389   .     A
C323   C325    1.379   .     A
C323   H333    1.086   .     S
C324   C326    1.379   .     A
C324   H334    1.086   .     S
C325   C331    1.396   .     A
C325   C327    1.409   .     A
C326   C332    1.396   .     A
C326   C328    1.409   .     A
C327   C329    1.415   .     A
C327   C886    1.396   1_554 S
C328   C330    1.415   .     A
C328   C885    1.396   .     S
C331   H335    1.083   .     S
C331   C871    1.387   1_554 S
C332   H336    1.083   .     S
C332   C872    1.387   .     S
H340   C502    1.088   .     S
N341   Zn352   2.035   .     S
N341   N218    1.276   1_655 S
N341   O233    1.348   1_655 S
N342   Zn351   2.035   .     S
O343   Zn351   1.959   .     S
O344   Zn352   1.959   .     S
O345   Zn352   1.980   .     S
O346   Zn351   1.980   .     S
O347   Zn351   1.997   .     S
O348   Zn352   1.997   .     S
O349   Zn352   2.008   .     S
O350   Zn351   2.008   .     S
O353   H354    0.989   .     S
O355   H356    0.988   .     S
C358   H360    1.103   .     S
C358   H359    1.113   .     S
C358   O233    1.404   1_655 S
C358   C237    1.518   1_655 S
C361   H364    1.105   .     S
C361   H362    1.112   .     S
H363   C237    1.111   1_655 S
O365   N218    1.348   1_655 S
O365   C242    1.404   1_655 S
C366   H368    1.113   .     S
C366   H367    1.103   .     S
C369   H370    1.104   .     S
C369   H372    1.111   .     S
C369   C242    1.518   1_655 S
C369   H247    1.111   1_655 S
C373   O405    1.284   .     A
C373   O407    1.295   .     A
C373   C377    1.405   .     S
C374   O406    1.284   .     A
C374   C378    1.405   .     S
C374   O408    1.295   .     A
C375   H399    1.081   .     S
C375   C392    1.403   .     A
C375   C951    1.387   .     S
C376   H400    1.081   .     S
C376   C391    1.403   .     A
C376   C952    1.387   1_554 S
C377   C6      1.338   1_565 S
C377   H29     1.088   1_565 S
C379   O409    1.289   .     A
C379   C384    1.417   .     S
C379   O411    1.295   .     A
C380   C383    1.417   .     S
C380   O410    1.289   .     A
C380   O412    1.295   .     A
C381   C383    1.411   .     A
C381   O415    1.387   .     S
C381   C391    1.395   .     A
C382   O417    1.387   .     S
C382   C384    1.411   .     A
C382   C392    1.395   .     A
C383   C385    1.389   .     A
C384   C386    1.389   .     A
C385   C387    1.379   .     A
C385   H395    1.086   .     S
C386   C388    1.379   .     A
C386   H396    1.086   .     S
C387   C393    1.396   .     A
C387   C389    1.409   .     A
C388   C394    1.396   .     A
C388   C390    1.409   .     A
C389   C391    1.415   .     A
C389   C948    1.396   1_554 S
C390   C392    1.415   .     A
C390   C947    1.396   .     S
C393   H397    1.083   .     S
C393   C933    1.387   1_554 S
C394   H398    1.083   .     S
C394   C934    1.387   .     S
H402   C6      1.088   1_565 S
N403   Zn414   2.035   .     S
N403   N466    1.276   .     S
N403   O481    1.348   .     S
N404   Zn413   2.035   .     S
N404   N527    1.276   1_455 S
N404   O551    1.348   1_455 S
O405   Zn413   1.959   .     S
O406   Zn414   1.959   .     S
O407   Zn414   1.980   .     S
O408   Zn413   1.980   .     S
O409   Zn413   1.997   .     S
O410   Zn414   1.997   .     S
O411   Zn414   2.008   .     S
O412   Zn413   2.008   .     S
O415   H416    0.989   .     S
O417   H418    0.988   .     S
O419   N527    1.348   1_455 S
O419   C544    1.404   1_455 S
C420   H422    1.103   .     S
C420   H421    1.113   .     S
C420   O481    1.404   .     S
C420   C485    1.518   .     S
C423   H426    1.105   .     S
C423   H424    1.112   .     S
C423   C544    1.518   1_455 S
C423   H549    1.111   1_455 S
H425   C485    1.111   .     S
O427   N466    1.348   .     S
O427   C490    1.404   .     S
C428   H430    1.113   .     S
C428   H429    1.103   .     S
C428   O551    1.404   1_455 S
C428   C555    1.518   1_455 S
C431   H432    1.104   .     S
C431   H434    1.111   .     S
C431   C490    1.518   .     S
C431   H495    1.111   .     S
H433   C555    1.111   1_455 S
C435   O467    1.284   .     A
C435   O469    1.295   .     A
C435   C439    1.405   .     S
C436   O468    1.284   .     A
C436   C440    1.405   .     S
C436   O470    1.295   .     A
C437   H461    1.081   .     S
C437   C454    1.403   .     A
C437   C1013   1.387   .     S
C438   H462    1.081   .     S
C438   C453    1.403   .     A
C438   C1014   1.387   1_554 S
C439   C68     1.338   1_565 S
C439   H91     1.088   1_565 S
C441   O471    1.289   .     A
C441   C446    1.417   .     S
C441   O473    1.295   .     A
C442   C445    1.417   .     S
C442   O472    1.289   .     A
C442   O474    1.295   .     A
C443   C445    1.411   .     A
C443   O477    1.387   .     S
C443   C453    1.395   .     A
C444   O479    1.387   .     S
C444   C446    1.411   .     A
C444   C454    1.395   .     A
C445   C447    1.389   .     A
C446   C448    1.389   .     A
C447   C449    1.379   .     A
C447   H457    1.086   .     S
C448   C450    1.379   .     A
C448   H458    1.086   .     S
C449   C455    1.396   .     A
C449   C451    1.409   .     A
C450   C456    1.396   .     A
C450   C452    1.409   .     A
C451   C453    1.415   .     A
C451   C1010   1.396   1_554 S
C452   C454    1.415   .     A
C452   C1009   1.396   .     S
C455   H459    1.083   .     S
C455   C995    1.387   1_554 S
C456   H460    1.083   .     S
C456   C996    1.387   .     S
H464   C68     1.088   1_565 S
N465   Zn476   2.035   .     S
N465   N528    1.276   .     S
N465   O543    1.348   .     S
N466   Zn475   2.035   .     S
O467   Zn475   1.959   .     S
O468   Zn476   1.959   .     S
O469   Zn476   1.980   .     S
O470   Zn475   1.980   .     S
O471   Zn475   1.997   .     S
O472   Zn476   1.997   .     S
O473   Zn476   2.008   .     S
O474   Zn475   2.008   .     S
O477   H478    0.989   .     S
O479   H480    0.988   .     S
C482   H484    1.103   .     S
C482   H483    1.113   .     S
C482   O543    1.404   .     S
C482   C547    1.518   .     S
C485   H488    1.105   .     S
C485   H486    1.112   .     S
H487   C547    1.111   .     S
O489   N528    1.348   .     S
O489   C552    1.404   .     S
C490   H492    1.113   .     S
C490   H491    1.103   .     S
C493   H494    1.104   .     S
C493   H496    1.111   .     S
C493   C552    1.518   .     S
C493   H557    1.111   .     S
C497   O529    1.284   .     A
C497   O531    1.295   .     A
C497   C501    1.405   .     S
C498   O530    1.284   .     A
C498   C502    1.405   .     S
C498   O532    1.295   .     A
C499   H523    1.081   .     S
C499   C516    1.403   .     A
C499   C1075   1.387   .     S
C500   H524    1.081   .     S
C500   C515    1.403   .     A
C500   C1076   1.387   1_554 S
C501   C130    1.338   1_565 S
C501   H153    1.088   1_565 S
C503   O533    1.289   .     A
C503   C508    1.417   .     S
C503   O535    1.295   .     A
C504   C507    1.417   .     S
C504   O534    1.289   .     A
C504   O536    1.295   .     A
C505   C507    1.411   .     A
C505   O539    1.387   .     S
C505   C515    1.395   .     A
C506   O541    1.387   .     S
C506   C508    1.411   .     A
C506   C516    1.395   .     A
C507   C509    1.389   .     A
C508   C510    1.389   .     A
C509   C511    1.379   .     A
C509   H519    1.086   .     S
C510   C512    1.379   .     A
C510   H520    1.086   .     S
C511   C517    1.396   .     A
C511   C513    1.409   .     A
C512   C518    1.396   .     A
C512   C514    1.409   .     A
C513   C515    1.415   .     A
C513   C1072   1.396   1_554 S
C514   C516    1.415   .     A
C514   C1071   1.396   .     S
C517   H521    1.083   .     S
C517   C1057   1.387   1_554 S
C518   H522    1.083   .     S
C518   C1058   1.387   .     S
H526   C130    1.088   1_565 S
N527   Zn538   2.035   .     S
N527   N404    1.276   1_655 S
N527   O419    1.348   1_655 S
N528   Zn537   2.035   .     S
O529   Zn537   1.959   .     S
O530   Zn538   1.959   .     S
O531   Zn538   1.980   .     S
O532   Zn537   1.980   .     S
O533   Zn537   1.997   .     S
O534   Zn538   1.997   .     S
O535   Zn538   2.008   .     S
O536   Zn537   2.008   .     S
O539   H540    0.989   .     S
O541   H542    0.988   .     S
C544   H546    1.103   .     S
C544   H545    1.113   .     S
C544   O419    1.404   1_655 S
C544   C423    1.518   1_655 S
C547   H550    1.105   .     S
C547   H548    1.112   .     S
H549   C423    1.111   1_655 S
O551   N404    1.348   1_655 S
O551   C428    1.404   1_655 S
C552   H554    1.113   .     S
C552   H553    1.103   .     S
C555   H556    1.104   .     S
C555   H558    1.111   .     S
C555   C428    1.518   1_655 S
C555   H433    1.111   1_655 S
C559   O591    1.284   .     A
C559   O593    1.295   .     A
C559   C563    1.405   .     S
C560   O592    1.284   .     A
C560   C564    1.405   .     S
C560   O594    1.295   .     A
C561   H585    1.081   .     S
C561   C578    1.403   .     A
C561   C21     1.387   1_556 S
C562   H586    1.081   .     S
C562   C577    1.403   .     A
C563   C750    1.338   .     S
C563   H773    1.088   .     S
C564   C935    1.338   1_545 S
C564   H960    1.088   1_545 S
C565   O595    1.289   .     A
C565   C570    1.417   .     S
C565   O597    1.295   .     A
C566   C569    1.417   .     S
C566   O596    1.289   .     A
C566   O598    1.295   .     A
C567   C569    1.411   .     A
C567   O601    1.387   .     S
C567   C577    1.395   .     A
C568   O603    1.387   .     S
C568   C570    1.411   .     A
C568   C578    1.395   .     A
C569   C571    1.389   .     A
C570   C572    1.389   .     A
C571   C573    1.379   .     A
C571   H581    1.086   .     S
C572   C574    1.379   .     A
C572   H582    1.086   .     S
C573   C579    1.396   .     A
C573   C575    1.409   .     A
C574   C580    1.396   .     A
C574   C576    1.409   .     A
C575   C577    1.415   .     A
C576   C578    1.415   .     A
C576   C17     1.396   1_556 S
C579   H583    1.083   .     S
C580   H584    1.083   .     S
C580   C4      1.387   1_556 S
H587   C935    1.088   1_545 S
H588   C750    1.088   .     S
N589   Zn600   2.035   .     S
N589   N652    1.276   .     S
N589   O667    1.348   .     S
N590   Zn599   2.035   .     S
N590   N713    1.276   1_455 S
N590   O737    1.348   1_455 S
O591   Zn599   1.959   .     S
O592   Zn600   1.959   .     S
O593   Zn600   1.980   .     S
O594   Zn599   1.980   .     S
O595   Zn599   1.997   .     S
O596   Zn600   1.997   .     S
O597   Zn600   2.008   .     S
O598   Zn599   2.008   .     S
O601   H602    0.989   .     S
O603   H604    0.988   .     S
O605   N713    1.348   1_455 S
O605   C730    1.404   1_455 S
C606   H608    1.103   .     S
C606   H607    1.113   .     S
C606   O667    1.404   .     S
C606   C671    1.518   .     S
C609   H612    1.105   .     S
C609   H610    1.112   .     S
C609   C730    1.518   1_455 S
C609   H735    1.111   1_455 S
H611   C671    1.111   .     S
O613   N652    1.348   .     S
O613   C676    1.404   .     S
C614   H616    1.113   .     S
C614   H615    1.103   .     S
C614   O737    1.404   1_455 S
C614   C741    1.518   1_455 S
C617   H618    1.104   .     S
C617   H620    1.111   .     S
C617   C676    1.518   .     S
C617   H681    1.111   .     S
H619   C741    1.111   1_455 S
C621   O653    1.284   .     A
C621   O655    1.295   .     A
C621   C625    1.405   .     S
C622   O654    1.284   .     A
C622   C626    1.405   .     S
C622   O656    1.295   .     A
C623   H647    1.081   .     S
C623   C640    1.403   .     A
C623   C83     1.387   1_556 S
C624   H648    1.081   .     S
C624   C639    1.403   .     A
C625   C812    1.338   .     S
C625   H835    1.088   .     S
C626   C997    1.338   1_545 S
C626   H1022   1.088   1_545 S
C627   O657    1.289   .     A
C627   C632    1.417   .     S
C627   O659    1.295   .     A
C628   C631    1.417   .     S
C628   O658    1.289   .     A
C628   O660    1.295   .     A
C629   C631    1.411   .     A
C629   O663    1.387   .     S
C629   C639    1.395   .     A
C630   O665    1.387   .     S
C630   C632    1.411   .     A
C630   C640    1.395   .     A
C631   C633    1.389   .     A
C632   C634    1.389   .     A
C633   C635    1.379   .     A
C633   H643    1.086   .     S
C634   C636    1.379   .     A
C634   H644    1.086   .     S
C635   C641    1.396   .     A
C635   C637    1.409   .     A
C636   C642    1.396   .     A
C636   C638    1.409   .     A
C637   C639    1.415   .     A
C638   C640    1.415   .     A
C638   C79     1.396   1_556 S
C641   H645    1.083   .     S
C642   H646    1.083   .     S
C642   C66     1.387   1_556 S
H649   C997    1.088   1_545 S
H650   C812    1.088   .     S
N651   Zn662   2.035   .     S
N651   N714    1.276   .     S
N651   O729    1.348   .     S
N652   Zn661   2.035   .     S
O653   Zn661   1.959   .     S
O654   Zn662   1.959   .     S
O655   Zn662   1.980   .     S
O656   Zn661   1.980   .     S
O657   Zn661   1.997   .     S
O658   Zn662   1.997   .     S
O659   Zn662   2.008   .     S
O660   Zn661   2.008   .     S
O663   H664    0.989   .     S
O665   H666    0.988   .     S
C668   H670    1.103   .     S
C668   H669    1.113   .     S
C668   O729    1.404   .     S
C668   C733    1.518   .     S
C671   H674    1.105   .     S
C671   H672    1.112   .     S
H673   C733    1.111   .     S
O675   N714    1.348   .     S
O675   C738    1.404   .     S
C676   H678    1.113   .     S
C676   H677    1.103   .     S
C679   H680    1.104   .     S
C679   H682    1.111   .     S
C679   C738    1.518   .     S
C679   H743    1.111   .     S
C683   O715    1.284   .     A
C683   O717    1.295   .     A
C683   C687    1.405   .     S
C684   O716    1.284   .     A
C684   C688    1.405   .     S
C684   O718    1.295   .     A
C685   H709    1.081   .     S
C685   C702    1.403   .     A
C685   C145    1.387   1_556 S
C686   H710    1.081   .     S
C686   C701    1.403   .     A
C687   C874    1.338   .     S
C687   H897    1.088   .     S
C688   C1059   1.338   1_545 S
C688   H1084   1.088   1_545 S
C689   O719    1.289   .     A
C689   C694    1.417   .     S
C689   O721    1.295   .     A
C690   C693    1.417   .     S
C690   O720    1.289   .     A
C690   O722    1.295   .     A
C691   C693    1.411   .     A
C691   O725    1.387   .     S
C691   C701    1.395   .     A
C692   O727    1.387   .     S
C692   C694    1.411   .     A
C692   C702    1.395   .     A
C693   C695    1.389   .     A
C694   C696    1.389   .     A
C695   C697    1.379   .     A
C695   H705    1.086   .     S
C696   C698    1.379   .     A
C696   H706    1.086   .     S
C697   C703    1.396   .     A
C697   C699    1.409   .     A
C698   C704    1.396   .     A
C698   C700    1.409   .     A
C699   C701    1.415   .     A
C700   C702    1.415   .     A
C700   C141    1.396   1_556 S
C703   H707    1.083   .     S
C704   H708    1.083   .     S
C704   C128    1.387   1_556 S
H711   C1059   1.088   1_545 S
H712   C874    1.088   .     S
N713   Zn724   2.035   .     S
N713   N590    1.276   1_655 S
N713   O605    1.348   1_655 S
N714   Zn723   2.035   .     S
O715   Zn723   1.959   .     S
O716   Zn724   1.959   .     S
O717   Zn724   1.980   .     S
O718   Zn723   1.980   .     S
O719   Zn723   1.997   .     S
O720   Zn724   1.997   .     S
O721   Zn724   2.008   .     S
O722   Zn723   2.008   .     S
O725   H726    0.989   .     S
O727   H728    0.988   .     S
C730   H732    1.103   .     S
C730   H731    1.113   .     S
C730   O605    1.404   1_655 S
C730   C609    1.518   1_655 S
C733   H736    1.105   .     S
C733   H734    1.112   .     S
H735   C609    1.111   1_655 S
O737   N590    1.348   1_655 S
O737   C614    1.404   1_655 S
C738   H740    1.113   .     S
C738   H739    1.103   .     S
C741   H742    1.104   .     S
C741   H744    1.111   .     S
C741   C614    1.518   1_655 S
C741   H619    1.111   1_655 S
C745   O777    1.284   .     A
C745   O779    1.295   .     A
C745   C749    1.405   .     S
C746   O778    1.284   .     A
C746   C750    1.405   .     S
C746   O780    1.295   .     A
C747   H771    1.081   .     S
C747   C764    1.403   .     A
C747   C207    1.387   1_556 S
C748   H772    1.081   .     S
C748   C763    1.403   .     A
C749   C936    1.338   .     S
C749   H959    1.088   .     S
C751   O781    1.289   .     A
C751   C756    1.417   .     S
C751   O783    1.295   .     A
C752   C755    1.417   .     S
C752   O782    1.289   .     A
C752   O784    1.295   .     A
C753   C755    1.411   .     A
C753   O787    1.387   .     S
C753   C763    1.395   .     A
C754   O789    1.387   .     S
C754   C756    1.411   .     A
C754   C764    1.395   .     A
C755   C757    1.389   .     A
C756   C758    1.389   .     A
C757   C759    1.379   .     A
C757   H767    1.086   .     S
C758   C760    1.379   .     A
C758   H768    1.086   .     S
C759   C765    1.396   .     A
C759   C761    1.409   .     A
C760   C766    1.396   .     A
C760   C762    1.409   .     A
C761   C763    1.415   .     A
C762   C764    1.415   .     A
C762   C203    1.396   1_556 S
C765   H769    1.083   .     S
C766   H770    1.083   .     S
C766   C190    1.387   1_556 S
H774   C936    1.088   .     S
N775   Zn786   2.035   .     S
N775   N838    1.276   .     S
N775   O853    1.348   .     S
N776   Zn785   2.035   .     S
N776   N899    1.276   1_455 S
N776   O923    1.348   1_455 S
O777   Zn785   1.959   .     S
O778   Zn786   1.959   .     S
O779   Zn786   1.980   .     S
O780   Zn785   1.980   .     S
O781   Zn785   1.997   .     S
O782   Zn786   1.997   .     S
O783   Zn786   2.008   .     S
O784   Zn785   2.008   .     S
O787   H788    0.989   .     S
O789   H790    0.988   .     S
O791   N899    1.348   1_455 S
O791   C916    1.404   1_455 S
C792   H794    1.103   .     S
C792   H793    1.113   .     S
C792   O853    1.404   .     S
C792   C857    1.518   .     S
C795   H798    1.105   .     S
C795   H796    1.112   .     S
C795   C916    1.518   1_455 S
C795   H921    1.111   1_455 S
H797   C857    1.111   .     S
O799   N838    1.348   .     S
O799   C862    1.404   .     S
C800   H802    1.113   .     S
C800   H801    1.103   .     S
C800   O923    1.404   1_455 S
C800   C927    1.518   1_455 S
C803   H804    1.104   .     S
C803   H806    1.111   .     S
C803   C862    1.518   .     S
C803   H867    1.111   .     S
H805   C927    1.111   1_455 S
C807   O839    1.284   .     A
C807   O841    1.295   .     A
C807   C811    1.405   .     S
C808   O840    1.284   .     A
C808   C812    1.405   .     S
C808   O842    1.295   .     A
C809   H833    1.081   .     S
C809   C826    1.403   .     A
C809   C269    1.387   1_556 S
C810   H834    1.081   .     S
C810   C825    1.403   .     A
C811   C998    1.338   .     S
C811   H1021   1.088   .     S
C813   O843    1.289   .     A
C813   C818    1.417   .     S
C813   O845    1.295   .     A
C814   C817    1.417   .     S
C814   O844    1.289   .     A
C814   O846    1.295   .     A
C815   C817    1.411   .     A
C815   O849    1.387   .     S
C815   C825    1.395   .     A
C816   O851    1.387   .     S
C816   C818    1.411   .     A
C816   C826    1.395   .     A
C817   C819    1.389   .     A
C818   C820    1.389   .     A
C819   C821    1.379   .     A
C819   H829    1.086   .     S
C820   C822    1.379   .     A
C820   H830    1.086   .     S
C821   C827    1.396   .     A
C821   C823    1.409   .     A
C822   C828    1.396   .     A
C822   C824    1.409   .     A
C823   C825    1.415   .     A
C824   C826    1.415   .     A
C824   C265    1.396   1_556 S
C827   H831    1.083   .     S
C828   H832    1.083   .     S
C828   C252    1.387   1_556 S
H836   C998    1.088   .     S
N837   Zn848   2.035   .     S
N837   N900    1.276   .     S
N837   O915    1.348   .     S
N838   Zn847   2.035   .     S
O839   Zn847   1.959   .     S
O840   Zn848   1.959   .     S
O841   Zn848   1.980   .     S
O842   Zn847   1.980   .     S
O843   Zn847   1.997   .     S
O844   Zn848   1.997   .     S
O845   Zn848   2.008   .     S
O846   Zn847   2.008   .     S
O849   H850    0.989   .     S
O851   H852    0.988   .     S
C854   H856    1.103   .     S
C854   H855    1.113   .     S
C854   O915    1.404   .     S
C854   C919    1.518   .     S
C857   H860    1.105   .     S
C857   H858    1.112   .     S
H859   C919    1.111   .     S
O861   N900    1.348   .     S
O861   C924    1.404   .     S
C862   H864    1.113   .     S
C862   H863    1.103   .     S
C865   H866    1.104   .     S
C865   H868    1.111   .     S
C865   C924    1.518   .     S
C865   H929    1.111   .     S
C869   O901    1.284   .     A
C869   O903    1.295   .     A
C869   C873    1.405   .     S
C870   O902    1.284   .     A
C870   C874    1.405   .     S
C870   O904    1.295   .     A
C871   H895    1.081   .     S
C871   C888    1.403   .     A
C871   C331    1.387   1_556 S
C872   H896    1.081   .     S
C872   C887    1.403   .     A
C873   C1060   1.338   .     S
C873   H1083   1.088   .     S
C875   O905    1.289   .     A
C875   C880    1.417   .     S
C875   O907    1.295   .     A
C876   C879    1.417   .     S
C876   O906    1.289   .     A
C876   O908    1.295   .     A
C877   C879    1.411   .     A
C877   O911    1.387   .     S
C877   C887    1.395   .     A
C878   O913    1.387   .     S
C878   C880    1.411   .     A
C878   C888    1.395   .     A
C879   C881    1.389   .     A
C880   C882    1.389   .     A
C881   C883    1.379   .     A
C881   H891    1.086   .     S
C882   C884    1.379   .     A
C882   H892    1.086   .     S
C883   C889    1.396   .     A
C883   C885    1.409   .     A
C884   C890    1.396   .     A
C884   C886    1.409   .     A
C885   C887    1.415   .     A
C886   C888    1.415   .     A
C886   C327    1.396   1_556 S
C889   H893    1.083   .     S
C890   H894    1.083   .     S
C890   C314    1.387   1_556 S
H898   C1060   1.088   .     S
N899   Zn910   2.035   .     S
N899   N776    1.276   1_655 S
N899   O791    1.348   1_655 S
N900   Zn909   2.035   .     S
O901   Zn909   1.959   .     S
O902   Zn910   1.959   .     S
O903   Zn910   1.980   .     S
O904   Zn909   1.980   .     S
O905   Zn909   1.997   .     S
O906   Zn910   1.997   .     S
O907   Zn910   2.008   .     S
O908   Zn909   2.008   .     S
O911   H912    0.989   .     S
O913   H914    0.988   .     S
C916   H918    1.103   .     S
C916   H917    1.113   .     S
C916   O791    1.404   1_655 S
C916   C795    1.518   1_655 S
C919   H922    1.105   .     S
C919   H920    1.112   .     S
H921   C795    1.111   1_655 S
O923   N776    1.348   1_655 S
O923   C800    1.404   1_655 S
C924   H926    1.113   .     S
C924   H925    1.103   .     S
C927   H928    1.104   .     S
C927   H930    1.111   .     S
C927   C800    1.518   1_655 S
C927   H805    1.111   1_655 S
C931   O963    1.284   .     A
C931   O965    1.295   .     A
C931   C935    1.405   .     S
C932   O964    1.284   .     A
C932   C936    1.405   .     S
C932   O966    1.295   .     A
C933   H957    1.081   .     S
C933   C950    1.403   .     A
C933   C393    1.387   1_556 S
C934   H958    1.081   .     S
C934   C949    1.403   .     A
C935   C564    1.338   1_565 S
C935   H587    1.088   1_565 S
C937   O967    1.289   .     A
C937   C942    1.417   .     S
C937   O969    1.295   .     A
C938   C941    1.417   .     S
C938   O968    1.289   .     A
C938   O970    1.295   .     A
C939   C941    1.411   .     A
C939   O973    1.387   .     S
C939   C949    1.395   .     A
C940   O975    1.387   .     S
C940   C942    1.411   .     A
C940   C950    1.395   .     A
C941   C943    1.389   .     A
C942   C944    1.389   .     A
C943   C945    1.379   .     A
C943   H953    1.086   .     S
C944   C946    1.379   .     A
C944   H954    1.086   .     S
C945   C951    1.396   .     A
C945   C947    1.409   .     A
C946   C952    1.396   .     A
C946   C948    1.409   .     A
C947   C949    1.415   .     A
C948   C950    1.415   .     A
C948   C389    1.396   1_556 S
C951   H955    1.083   .     S
C952   H956    1.083   .     S
C952   C376    1.387   1_556 S
H960   C564    1.088   1_565 S
N961   Zn972   2.035   .     S
N961   N1024   1.276   .     S
N961   O1039   1.348   .     S
N962   Zn971   2.035   .     S
N962   N1085   1.276   1_455 S
N962   O1109   1.348   1_455 S
O963   Zn971   1.959   .     S
O964   Zn972   1.959   .     S
O965   Zn972   1.980   .     S
O966   Zn971   1.980   .     S
O967   Zn971   1.997   .     S
O968   Zn972   1.997   .     S
O969   Zn972   2.008   .     S
O970   Zn971   2.008   .     S
O973   H974    0.989   .     S
O975   H976    0.988   .     S
O977   N1085   1.348   1_455 S
O977   C1102   1.404   1_455 S
C978   H980    1.103   .     S
C978   H979    1.113   .     S
C978   O1039   1.404   .     S
C978   C1043   1.518   .     S
C981   H984    1.105   .     S
C981   H982    1.112   .     S
C981   C1102   1.518   1_455 S
C981   H1107   1.111   1_455 S
H983   C1043   1.111   .     S
O985   N1024   1.348   .     S
O985   C1048   1.404   .     S
C986   H988    1.113   .     S
C986   H987    1.103   .     S
C986   O1109   1.404   1_455 S
C986   C1113   1.518   1_455 S
C989   H990    1.104   .     S
C989   H992    1.111   .     S
C989   C1048   1.518   .     S
C989   H1053   1.111   .     S
H991   C1113   1.111   1_455 S
C993   O1025   1.284   .     A
C993   O1027   1.295   .     A
C993   C997    1.405   .     S
C994   O1026   1.284   .     A
C994   C998    1.405   .     S
C994   O1028   1.295   .     A
C995   H1019   1.081   .     S
C995   C1012   1.403   .     A
C995   C455    1.387   1_556 S
C996   H1020   1.081   .     S
C996   C1011   1.403   .     A
C997   C626    1.338   1_565 S
C997   H649    1.088   1_565 S
C999   O1029   1.289   .     A
C999   C1004   1.417   .     S
C999   O1031   1.295   .     A
C1000  C1003   1.417   .     S
C1000  O1030   1.289   .     A
C1000  O1032   1.295   .     A
C1001  C1003   1.411   .     A
C1001  O1035   1.387   .     S
C1001  C1011   1.395   .     A
C1002  O1037   1.387   .     S
C1002  C1004   1.411   .     A
C1002  C1012   1.395   .     A
C1003  C1005   1.389   .     A
C1004  C1006   1.389   .     A
C1005  C1007   1.379   .     A
C1005  H1015   1.086   .     S
C1006  C1008   1.379   .     A
C1006  H1016   1.086   .     S
C1007  C1013   1.396   .     A
C1007  C1009   1.409   .     A
C1008  C1014   1.396   .     A
C1008  C1010   1.409   .     A
C1009  C1011   1.415   .     A
C1010  C1012   1.415   .     A
C1010  C451    1.396   1_556 S
C1013  H1017   1.083   .     S
C1014  H1018   1.083   .     S
C1014  C438    1.387   1_556 S
H1022  C626    1.088   1_565 S
N1023  Zn1034  2.035   .     S
N1023  N1086   1.276   .     S
N1023  O1101   1.348   .     S
N1024  Zn1033  2.035   .     S
O1025  Zn1033  1.959   .     S
O1026  Zn1034  1.959   .     S
O1027  Zn1034  1.980   .     S
O1028  Zn1033  1.980   .     S
O1029  Zn1033  1.997   .     S
O1030  Zn1034  1.997   .     S
O1031  Zn1034  2.008   .     S
O1032  Zn1033  2.008   .     S
O1035  H1036   0.989   .     S
O1037  H1038   0.988   .     S
C1040  H1042   1.103   .     S
C1040  H1041   1.113   .     S
C1040  O1101   1.404   .     S
C1040  C1105   1.518   .     S
C1043  H1046   1.105   .     S
C1043  H1044   1.112   .     S
H1045  C1105   1.111   .     S
O1047  N1086   1.348   .     S
O1047  C1110   1.404   .     S
C1048  H1050   1.113   .     S
C1048  H1049   1.103   .     S
C1051  H1052   1.104   .     S
C1051  H1054   1.111   .     S
C1051  C1110   1.518   .     S
C1051  H1115   1.111   .     S
C1055  O1087   1.284   .     A
C1055  O1089   1.295   .     A
C1055  C1059   1.405   .     S
C1056  O1088   1.284   .     A
C1056  C1060   1.405   .     S
C1056  O1090   1.295   .     A
C1057  H1081   1.081   .     S
C1057  C1074   1.403   .     A
C1057  C517    1.387   1_556 S
C1058  H1082   1.081   .     S
C1058  C1073   1.403   .     A
C1059  C688    1.338   1_565 S
C1059  H711    1.088   1_565 S
C1061  O1091   1.289   .     A
C1061  C1066   1.417   .     S
C1061  O1093   1.295   .     A
C1062  C1065   1.417   .     S
C1062  O1092   1.289   .     A
C1062  O1094   1.295   .     A
C1063  C1065   1.411   .     A
C1063  O1097   1.387   .     S
C1063  C1073   1.395   .     A
C1064  O1099   1.387   .     S
C1064  C1066   1.411   .     A
C1064  C1074   1.395   .     A
C1065  C1067   1.389   .     A
C1066  C1068   1.389   .     A
C1067  C1069   1.379   .     A
C1067  H1077   1.086   .     S
C1068  C1070   1.379   .     A
C1068  H1078   1.086   .     S
C1069  C1075   1.396   .     A
C1069  C1071   1.409   .     A
C1070  C1076   1.396   .     A
C1070  C1072   1.409   .     A
C1071  C1073   1.415   .     A
C1072  C1074   1.415   .     A
C1072  C513    1.396   1_556 S
C1075  H1079   1.083   .     S
C1076  H1080   1.083   .     S
C1076  C500    1.387   1_556 S
H1084  C688    1.088   1_565 S
N1085  Zn1096  2.035   .     S
N1085  N962    1.276   1_655 S
N1085  O977    1.348   1_655 S
N1086  Zn1095  2.035   .     S
O1087  Zn1095  1.959   .     S
O1088  Zn1096  1.959   .     S
O1089  Zn1096  1.980   .     S
O1090  Zn1095  1.980   .     S
O1091  Zn1095  1.997   .     S
O1092  Zn1096  1.997   .     S
O1093  Zn1096  2.008   .     S
O1094  Zn1095  2.008   .     S
O1097  H1098   0.989   .     S
O1099  H1100   0.988   .     S
C1102  H1104   1.103   .     S
C1102  H1103   1.113   .     S
C1102  O977    1.404   1_655 S
C1102  C981    1.518   1_655 S
C1105  H1108   1.105   .     S
C1105  H1106   1.112   .     S
H1107  C981    1.111   1_655 S
O1109  N962    1.348   1_655 S
O1109  C986    1.404   1_655 S
C1110  H1112   1.113   .     S
C1110  H1111   1.103   .     S
C1113  H1114   1.104   .     S
C1113  H1116   1.111   .     S
C1113  C986    1.518   1_655 S
C1113  H991    1.111   1_655 S
