data_str_m2_o10_o18_pcu_sym.20
_audit_creation_date              2020-01-03
_audit_creation_method            'Materials Studio'
_symmetry_space_group_name_H-M    'P1'
_symmetry_Int_Tables_number       1
_symmetry_cell_setting            triclinic
loop_
_symmetry_equiv_pos_as_xyz
  x,y,z
_cell_length_a                    22.3797
_cell_length_b                    26.2278
_cell_length_c                    31.2794
_cell_angle_alpha                 94.8917
_cell_angle_beta                  75.3878
_cell_angle_gamma                 103.3195
loop_
_atom_site_label
_atom_site_type_symbol
_atom_site_fract_x
_atom_site_fract_y
_atom_site_fract_z
_atom_site_U_iso_or_equiv
_atom_site_adp_type
_atom_site_occupancy
C1     C     0.18089   0.26656   0.25260   0.00000  Uiso   1.00
C2     C     0.20537   0.17106   0.16652   0.00000  Uiso   1.00
C3     C     0.10411   0.14524   0.37986   0.00000  Uiso   1.00
C4     C     0.23007   0.17505   0.11795   0.00000  Uiso   1.00
C5     C     0.04151   0.08063   0.43409   0.00000  Uiso   1.00
C6     C     0.31386   0.20686   0.05362   0.00000  Uiso   1.00
C7     C     0.05112   0.10381   0.39366   0.00000  Uiso   1.00
C8     C     0.29333   0.19979   0.09956   0.00000  Uiso   1.00
C9     C     0.14414   0.16435   0.40818   0.00000  Uiso   1.00
C10    C     0.18912   0.15586   0.09002   0.00000  Uiso   1.00
C11    C     0.13900   0.13771   0.44674   0.00000  Uiso   1.00
C12    C     0.15241   0.06678   0.24745   0.00000  Uiso   1.00
C13    C     0.21156   0.15626   0.04363   0.00000  Uiso   1.00
C14    C     0.08409   0.09779   0.46157   0.00000  Uiso   1.00
C15    C     0.27378   0.18471   0.02523   0.00000  Uiso   1.00
C16    C     0.18609   0.15074   0.47156   0.00000  Uiso   1.00
C17    C     0.17129   0.13324   0.01525   0.00000  Uiso   1.00
C18    C     0.11862   0.09143   0.02829   0.00000  Uiso   1.00
C19    C     0.24928   0.17632   0.45305   0.00000  Uiso   1.00
C20    C     0.07460   0.07487   0.00274   0.00000  Uiso   1.00
C21    C     0.29311   0.19167   0.47896   0.00000  Uiso   1.00
C22    C     0.18536   0.32228   0.25857   0.00000  Uiso   1.00
C23    C     0.14789   0.01105   0.24155   0.00000  Uiso   1.00
C24    C     0.12780   0.16047   0.33318   0.00000  Uiso   1.00
Cu25   Cu    0.10737   0.16108   0.24516   0.00000  Uiso   1.00
Cu26   Cu    0.22596   0.17225   0.25483   0.00000  Uiso   1.00
F27    F     0.12595   0.14208   0.10821   0.00000  Uiso   1.00
F28    F     0.18480   0.21151   0.39918   0.00000  Uiso   1.00
F29    F     0.32509   0.03928   0.44473   0.00000  Uiso   1.00
F30    F     0.03797   0.23857   0.03776   0.00000  Uiso   1.00
F31    F     0.11222   0.06270   0.06397   0.00000  Uiso   1.00
F32    F     0.27223   0.17965   0.40861   0.00000  Uiso   1.00
H33    H     0.31812   0.05055   0.01982   0.00000  Uiso   1.00
H34    H     0.04939   0.19959   0.47013   0.00000  Uiso   1.00
H35    H     0.04318   0.23311   0.10975   0.00000  Uiso   1.00
H36    H     0.33236   0.11235   0.35551   0.00000  Uiso   1.00
H37    H     0.24456   0.32834   0.29642   0.00000  Uiso   1.00
H38    H     0.08870   0.00499   0.20368   0.00000  Uiso   1.00
H39    H     0.30412   0.22891   0.30893   0.00000  Uiso   1.00
H40    H     0.02907   0.10417   0.19126   0.00000  Uiso   1.00
N41    N     0.31506   0.18068   0.26212   0.00000  Uiso   1.00
N42    N     0.01827   0.15265   0.23788   0.00000  Uiso   1.00
O43    O     0.12815   0.23809   0.24686   0.00000  Uiso   1.00
O44    O     0.02077   0.21415   0.45757   0.00000  Uiso   1.00
O45    O     0.33286   0.22011   0.12736   0.00000  Uiso   1.00
O46    O     0.00941   0.08288   0.36778   0.00000  Uiso   1.00
O47    O     0.22496   0.01839   0.28366   0.00000  Uiso   1.00
O48    O     0.10825   0.31494   0.21648   0.00000  Uiso   1.00
O49    O     0.00505   0.21122   0.29322   0.00000  Uiso   1.00
O50    O     0.32821   0.12199   0.20687   0.00000  Uiso   1.00
O51    O     0.20518   0.09524   0.25314   0.00000  Uiso   1.00
O52    O     0.22829   0.24753   0.25502   0.00000  Uiso   1.00
O53    O     0.10504   0.08580   0.24498   0.00000  Uiso   1.00
O54    O     0.08851   0.15930   0.30855   0.00000  Uiso   1.00
O55    O     0.24482   0.17403   0.19145   0.00000  Uiso   1.00
O56    O     0.18866   0.16874   0.31671   0.00000  Uiso   1.00
O57    O     0.14468   0.16460   0.18329   0.00000  Uiso   1.00
O58    O     0.02238   0.03649   0.01956   0.00000  Uiso   1.00
C59    C     0.51422   0.26656   0.25260   0.00000  Uiso   1.00
C60    C     0.53870   0.17106   0.16652   0.00000  Uiso   1.00
C61    C     0.43744   0.14524   0.37986   0.00000  Uiso   1.00
C62    C     0.56340   0.17505   0.11795   0.00000  Uiso   1.00
C63    C     0.37484   0.08063   0.43409   0.00000  Uiso   1.00
C64    C     0.64720   0.20686   0.05362   0.00000  Uiso   1.00
C65    C     0.38445   0.10381   0.39366   0.00000  Uiso   1.00
C66    C     0.62666   0.19979   0.09956   0.00000  Uiso   1.00
C67    C     0.47747   0.16435   0.40818   0.00000  Uiso   1.00
C68    C     0.52246   0.15586   0.09002   0.00000  Uiso   1.00
C69    C     0.47233   0.13771   0.44674   0.00000  Uiso   1.00
C70    C     0.48574   0.06678   0.24745   0.00000  Uiso   1.00
C71    C     0.54490   0.15626   0.04363   0.00000  Uiso   1.00
C72    C     0.41742   0.09779   0.46157   0.00000  Uiso   1.00
C73    C     0.60711   0.18471   0.02523   0.00000  Uiso   1.00
C74    C     0.51942   0.15074   0.47156   0.00000  Uiso   1.00
C75    C     0.50462   0.13324   0.01525   0.00000  Uiso   1.00
C76    C     0.45195   0.09143   0.02829   0.00000  Uiso   1.00
C77    C     0.58262   0.17632   0.45305   0.00000  Uiso   1.00
C78    C     0.40793   0.07487   0.00274   0.00000  Uiso   1.00
C79    C     0.62644   0.19167   0.47896   0.00000  Uiso   1.00
C80    C     0.51869   0.32228   0.25857   0.00000  Uiso   1.00
C81    C     0.48122   0.01105   0.24155   0.00000  Uiso   1.00
C82    C     0.46113   0.16047   0.33318   0.00000  Uiso   1.00
Cu83   Cu    0.44071   0.16108   0.24516   0.00000  Uiso   1.00
Cu84   Cu    0.55929   0.17225   0.25483   0.00000  Uiso   1.00
F85    F     0.45928   0.14208   0.10821   0.00000  Uiso   1.00
F86    F     0.51813   0.21151   0.39918   0.00000  Uiso   1.00
F87    F     0.65842   0.03928   0.44473   0.00000  Uiso   1.00
F88    F     0.37130   0.23857   0.03776   0.00000  Uiso   1.00
F89    F     0.44555   0.06270   0.06397   0.00000  Uiso   1.00
F90    F     0.60556   0.17965   0.40861   0.00000  Uiso   1.00
H91    H     0.65145   0.05055   0.01982   0.00000  Uiso   1.00
H92    H     0.38273   0.19959   0.47013   0.00000  Uiso   1.00
H93    H     0.37651   0.23311   0.10975   0.00000  Uiso   1.00
H94    H     0.66569   0.11235   0.35551   0.00000  Uiso   1.00
H95    H     0.57789   0.32834   0.29642   0.00000  Uiso   1.00
H96    H     0.42203   0.00499   0.20368   0.00000  Uiso   1.00
H97    H     0.63745   0.22891   0.30893   0.00000  Uiso   1.00
H98    H     0.36240   0.10417   0.19126   0.00000  Uiso   1.00
N99    N     0.64839   0.18068   0.26212   0.00000  Uiso   1.00
N100   N     0.35161   0.15265   0.23788   0.00000  Uiso   1.00
O101   O     0.46148   0.23809   0.24686   0.00000  Uiso   1.00
O102   O     0.35411   0.21415   0.45757   0.00000  Uiso   1.00
O103   O     0.66619   0.22011   0.12736   0.00000  Uiso   1.00
O104   O     0.34275   0.08288   0.36778   0.00000  Uiso   1.00
O105   O     0.55829   0.01839   0.28366   0.00000  Uiso   1.00
O106   O     0.44159   0.31494   0.21648   0.00000  Uiso   1.00
O107   O     0.33838   0.21122   0.29322   0.00000  Uiso   1.00
O108   O     0.66154   0.12199   0.20687   0.00000  Uiso   1.00
O109   O     0.53852   0.09524   0.25314   0.00000  Uiso   1.00
O110   O     0.56163   0.24753   0.25502   0.00000  Uiso   1.00
O111   O     0.43837   0.08580   0.24498   0.00000  Uiso   1.00
O112   O     0.42185   0.15930   0.30855   0.00000  Uiso   1.00
O113   O     0.57815   0.17403   0.19145   0.00000  Uiso   1.00
O114   O     0.52199   0.16874   0.31671   0.00000  Uiso   1.00
O115   O     0.47801   0.16460   0.18329   0.00000  Uiso   1.00
O116   O     0.35571   0.03649   0.01956   0.00000  Uiso   1.00
C117   C     0.84756   0.26656   0.25260   0.00000  Uiso   1.00
C118   C     0.87203   0.17106   0.16652   0.00000  Uiso   1.00
C119   C     0.77077   0.14524   0.37986   0.00000  Uiso   1.00
C120   C     0.89674   0.17505   0.11795   0.00000  Uiso   1.00
C121   C     0.70818   0.08063   0.43409   0.00000  Uiso   1.00
C122   C     0.98053   0.20686   0.05362   0.00000  Uiso   1.00
C123   C     0.71778   0.10381   0.39366   0.00000  Uiso   1.00
C124   C     0.95999   0.19979   0.09956   0.00000  Uiso   1.00
C125   C     0.81081   0.16435   0.40818   0.00000  Uiso   1.00
C126   C     0.85579   0.15586   0.09002   0.00000  Uiso   1.00
C127   C     0.80567   0.13771   0.44674   0.00000  Uiso   1.00
C128   C     0.81908   0.06678   0.24745   0.00000  Uiso   1.00
C129   C     0.87823   0.15626   0.04363   0.00000  Uiso   1.00
C130   C     0.75075   0.09779   0.46157   0.00000  Uiso   1.00
C131   C     0.94045   0.18471   0.02523   0.00000  Uiso   1.00
C132   C     0.85276   0.15074   0.47156   0.00000  Uiso   1.00
C133   C     0.83796   0.13324   0.01525   0.00000  Uiso   1.00
C134   C     0.78528   0.09143   0.02829   0.00000  Uiso   1.00
C135   C     0.91595   0.17632   0.45305   0.00000  Uiso   1.00
C136   C     0.74127   0.07487   0.00274   0.00000  Uiso   1.00
C137   C     0.95977   0.19167   0.47896   0.00000  Uiso   1.00
C138   C     0.85203   0.32228   0.25857   0.00000  Uiso   1.00
C139   C     0.81455   0.01105   0.24155   0.00000  Uiso   1.00
C140   C     0.79447   0.16047   0.33318   0.00000  Uiso   1.00
Cu141  Cu    0.77404   0.16108   0.24516   0.00000  Uiso   1.00
Cu142  Cu    0.89263   0.17225   0.25483   0.00000  Uiso   1.00
F143   F     0.79261   0.14208   0.10821   0.00000  Uiso   1.00
F144   F     0.85146   0.21151   0.39918   0.00000  Uiso   1.00
F145   F     0.99175   0.03928   0.44473   0.00000  Uiso   1.00
F146   F     0.70464   0.23857   0.03776   0.00000  Uiso   1.00
F147   F     0.77889   0.06270   0.06397   0.00000  Uiso   1.00
F148   F     0.93890   0.17965   0.40861   0.00000  Uiso   1.00
H149   H     0.98478   0.05055   0.01982   0.00000  Uiso   1.00
H150   H     0.71606   0.19959   0.47013   0.00000  Uiso   1.00
H151   H     0.70984   0.23311   0.10975   0.00000  Uiso   1.00
H152   H     0.99903   0.11235   0.35551   0.00000  Uiso   1.00
H153   H     0.91123   0.32834   0.29642   0.00000  Uiso   1.00
H154   H     0.75536   0.00499   0.20368   0.00000  Uiso   1.00
H155   H     0.97078   0.22891   0.30893   0.00000  Uiso   1.00
H156   H     0.69573   0.10417   0.19126   0.00000  Uiso   1.00
N157   N     0.98173   0.18068   0.26212   0.00000  Uiso   1.00
N158   N     0.68494   0.15265   0.23788   0.00000  Uiso   1.00
O159   O     0.79482   0.23809   0.24686   0.00000  Uiso   1.00
O160   O     0.68744   0.21415   0.45757   0.00000  Uiso   1.00
O161   O     0.99952   0.22011   0.12736   0.00000  Uiso   1.00
O162   O     0.67608   0.08288   0.36778   0.00000  Uiso   1.00
O163   O     0.89162   0.01839   0.28366   0.00000  Uiso   1.00
O164   O     0.77492   0.31494   0.21648   0.00000  Uiso   1.00
O165   O     0.67172   0.21122   0.29322   0.00000  Uiso   1.00
O166   O     0.99488   0.12199   0.20687   0.00000  Uiso   1.00
O167   O     0.87185   0.09524   0.25314   0.00000  Uiso   1.00
O168   O     0.89496   0.24753   0.25502   0.00000  Uiso   1.00
O169   O     0.77171   0.08580   0.24498   0.00000  Uiso   1.00
O170   O     0.75518   0.15930   0.30855   0.00000  Uiso   1.00
O171   O     0.91149   0.17403   0.19145   0.00000  Uiso   1.00
O172   O     0.85532   0.16874   0.31671   0.00000  Uiso   1.00
O173   O     0.81134   0.16460   0.18329   0.00000  Uiso   1.00
O174   O     0.68904   0.03649   0.01956   0.00000  Uiso   1.00
C175   C     0.18089   0.59989   0.25260   0.00000  Uiso   1.00
C176   C     0.20537   0.50440   0.16652   0.00000  Uiso   1.00
C177   C     0.10411   0.47858   0.37986   0.00000  Uiso   1.00
C178   C     0.23007   0.50838   0.11795   0.00000  Uiso   1.00
C179   C     0.04151   0.41396   0.43409   0.00000  Uiso   1.00
C180   C     0.31386   0.54020   0.05362   0.00000  Uiso   1.00
C181   C     0.05112   0.43714   0.39366   0.00000  Uiso   1.00
C182   C     0.29333   0.53313   0.09956   0.00000  Uiso   1.00
C183   C     0.14414   0.49768   0.40818   0.00000  Uiso   1.00
C184   C     0.18912   0.48919   0.09002   0.00000  Uiso   1.00
C185   C     0.13900   0.47104   0.44674   0.00000  Uiso   1.00
C186   C     0.15241   0.40011   0.24745   0.00000  Uiso   1.00
C187   C     0.21156   0.48959   0.04363   0.00000  Uiso   1.00
C188   C     0.08409   0.43113   0.46157   0.00000  Uiso   1.00
C189   C     0.27378   0.51805   0.02523   0.00000  Uiso   1.00
C190   C     0.18609   0.48407   0.47156   0.00000  Uiso   1.00
C191   C     0.17129   0.46657   0.01525   0.00000  Uiso   1.00
C192   C     0.11862   0.42476   0.02829   0.00000  Uiso   1.00
C193   C     0.24928   0.50966   0.45305   0.00000  Uiso   1.00
C194   C     0.07460   0.40821   0.00274   0.00000  Uiso   1.00
C195   C     0.29311   0.52501   0.47896   0.00000  Uiso   1.00
C196   C     0.18536   0.65562   0.25857   0.00000  Uiso   1.00
C197   C     0.14789   0.34438   0.24155   0.00000  Uiso   1.00
C198   C     0.12780   0.49381   0.33318   0.00000  Uiso   1.00
Cu199  Cu    0.10737   0.49441   0.24516   0.00000  Uiso   1.00
Cu200  Cu    0.22596   0.50559   0.25483   0.00000  Uiso   1.00
F201   F     0.12595   0.47541   0.10821   0.00000  Uiso   1.00
F202   F     0.18480   0.54484   0.39918   0.00000  Uiso   1.00
F203   F     0.32509   0.37262   0.44473   0.00000  Uiso   1.00
F204   F     0.03797   0.57190   0.03776   0.00000  Uiso   1.00
F205   F     0.11222   0.39603   0.06397   0.00000  Uiso   1.00
F206   F     0.27223   0.51299   0.40861   0.00000  Uiso   1.00
H207   H     0.31812   0.38388   0.01982   0.00000  Uiso   1.00
H208   H     0.04939   0.53292   0.47013   0.00000  Uiso   1.00
H209   H     0.04318   0.56644   0.10975   0.00000  Uiso   1.00
H210   H     0.33236   0.44569   0.35551   0.00000  Uiso   1.00
H211   H     0.24456   0.66167   0.29642   0.00000  Uiso   1.00
H212   H     0.08870   0.33832   0.20368   0.00000  Uiso   1.00
H213   H     0.30412   0.56224   0.30893   0.00000  Uiso   1.00
H214   H     0.02907   0.43751   0.19126   0.00000  Uiso   1.00
N215   N     0.31506   0.51401   0.26212   0.00000  Uiso   1.00
N216   N     0.01827   0.48599   0.23788   0.00000  Uiso   1.00
O217   O     0.12815   0.57142   0.24686   0.00000  Uiso   1.00
O218   O     0.02077   0.54748   0.45757   0.00000  Uiso   1.00
O219   O     0.33286   0.55345   0.12736   0.00000  Uiso   1.00
O220   O     0.00941   0.41621   0.36778   0.00000  Uiso   1.00
O221   O     0.22496   0.35172   0.28366   0.00000  Uiso   1.00
O222   O     0.10825   0.64827   0.21648   0.00000  Uiso   1.00
O223   O     0.00505   0.54456   0.29322   0.00000  Uiso   1.00
O224   O     0.32821   0.45533   0.20687   0.00000  Uiso   1.00
O225   O     0.20518   0.42858   0.25314   0.00000  Uiso   1.00
O226   O     0.22829   0.58086   0.25502   0.00000  Uiso   1.00
O227   O     0.10504   0.41914   0.24498   0.00000  Uiso   1.00
O228   O     0.08851   0.49263   0.30855   0.00000  Uiso   1.00
O229   O     0.24482   0.50737   0.19145   0.00000  Uiso   1.00
O230   O     0.18866   0.50207   0.31671   0.00000  Uiso   1.00
O231   O     0.14468   0.49793   0.18329   0.00000  Uiso   1.00
O232   O     0.02238   0.36983   0.01956   0.00000  Uiso   1.00
C233   C     0.51422   0.59989   0.25260   0.00000  Uiso   1.00
C234   C     0.53870   0.50440   0.16652   0.00000  Uiso   1.00
C235   C     0.43744   0.47858   0.37986   0.00000  Uiso   1.00
C236   C     0.56340   0.50838   0.11795   0.00000  Uiso   1.00
C237   C     0.37484   0.41396   0.43409   0.00000  Uiso   1.00
C238   C     0.64720   0.54020   0.05362   0.00000  Uiso   1.00
C239   C     0.38445   0.43714   0.39366   0.00000  Uiso   1.00
C240   C     0.62666   0.53313   0.09956   0.00000  Uiso   1.00
C241   C     0.47747   0.49768   0.40818   0.00000  Uiso   1.00
C242   C     0.52246   0.48919   0.09002   0.00000  Uiso   1.00
C243   C     0.47233   0.47104   0.44674   0.00000  Uiso   1.00
C244   C     0.48574   0.40011   0.24745   0.00000  Uiso   1.00
C245   C     0.54490   0.48959   0.04363   0.00000  Uiso   1.00
C246   C     0.41742   0.43113   0.46157   0.00000  Uiso   1.00
C247   C     0.60711   0.51805   0.02523   0.00000  Uiso   1.00
C248   C     0.51942   0.48407   0.47156   0.00000  Uiso   1.00
C249   C     0.50462   0.46657   0.01525   0.00000  Uiso   1.00
C250   C     0.45195   0.42476   0.02829   0.00000  Uiso   1.00
C251   C     0.58262   0.50966   0.45305   0.00000  Uiso   1.00
C252   C     0.40793   0.40821   0.00274   0.00000  Uiso   1.00
C253   C     0.62644   0.52501   0.47896   0.00000  Uiso   1.00
C254   C     0.51869   0.65562   0.25857   0.00000  Uiso   1.00
C255   C     0.48122   0.34438   0.24155   0.00000  Uiso   1.00
C256   C     0.46113   0.49381   0.33318   0.00000  Uiso   1.00
Cu257  Cu    0.44071   0.49441   0.24516   0.00000  Uiso   1.00
Cu258  Cu    0.55929   0.50559   0.25483   0.00000  Uiso   1.00
F259   F     0.45928   0.47541   0.10821   0.00000  Uiso   1.00
F260   F     0.51813   0.54484   0.39918   0.00000  Uiso   1.00
F261   F     0.65842   0.37262   0.44473   0.00000  Uiso   1.00
F262   F     0.37130   0.57190   0.03776   0.00000  Uiso   1.00
F263   F     0.44555   0.39603   0.06397   0.00000  Uiso   1.00
F264   F     0.60556   0.51299   0.40861   0.00000  Uiso   1.00
H265   H     0.65145   0.38388   0.01982   0.00000  Uiso   1.00
H266   H     0.38273   0.53292   0.47013   0.00000  Uiso   1.00
H267   H     0.37651   0.56644   0.10975   0.00000  Uiso   1.00
H268   H     0.66569   0.44569   0.35551   0.00000  Uiso   1.00
H269   H     0.57789   0.66167   0.29642   0.00000  Uiso   1.00
H270   H     0.42203   0.33832   0.20368   0.00000  Uiso   1.00
H271   H     0.63745   0.56224   0.30893   0.00000  Uiso   1.00
H272   H     0.36240   0.43751   0.19126   0.00000  Uiso   1.00
N273   N     0.64839   0.51401   0.26212   0.00000  Uiso   1.00
N274   N     0.35161   0.48599   0.23788   0.00000  Uiso   1.00
O275   O     0.46148   0.57142   0.24686   0.00000  Uiso   1.00
O276   O     0.35411   0.54748   0.45757   0.00000  Uiso   1.00
O277   O     0.66619   0.55345   0.12736   0.00000  Uiso   1.00
O278   O     0.34275   0.41621   0.36778   0.00000  Uiso   1.00
O279   O     0.55829   0.35172   0.28366   0.00000  Uiso   1.00
O280   O     0.44159   0.64827   0.21648   0.00000  Uiso   1.00
O281   O     0.33838   0.54456   0.29322   0.00000  Uiso   1.00
O282   O     0.66154   0.45533   0.20687   0.00000  Uiso   1.00
O283   O     0.53852   0.42858   0.25314   0.00000  Uiso   1.00
O284   O     0.56163   0.58086   0.25502   0.00000  Uiso   1.00
O285   O     0.43837   0.41914   0.24498   0.00000  Uiso   1.00
O286   O     0.42185   0.49263   0.30855   0.00000  Uiso   1.00
O287   O     0.57815   0.50737   0.19145   0.00000  Uiso   1.00
O288   O     0.52199   0.50207   0.31671   0.00000  Uiso   1.00
O289   O     0.47801   0.49793   0.18329   0.00000  Uiso   1.00
O290   O     0.35571   0.36983   0.01956   0.00000  Uiso   1.00
C291   C     0.84756   0.59989   0.25260   0.00000  Uiso   1.00
C292   C     0.87203   0.50440   0.16652   0.00000  Uiso   1.00
C293   C     0.77077   0.47858   0.37986   0.00000  Uiso   1.00
C294   C     0.89674   0.50838   0.11795   0.00000  Uiso   1.00
C295   C     0.70818   0.41396   0.43409   0.00000  Uiso   1.00
C296   C     0.98053   0.54020   0.05362   0.00000  Uiso   1.00
C297   C     0.71778   0.43714   0.39366   0.00000  Uiso   1.00
C298   C     0.95999   0.53313   0.09956   0.00000  Uiso   1.00
C299   C     0.81081   0.49768   0.40818   0.00000  Uiso   1.00
C300   C     0.85579   0.48919   0.09002   0.00000  Uiso   1.00
C301   C     0.80567   0.47104   0.44674   0.00000  Uiso   1.00
C302   C     0.81908   0.40011   0.24745   0.00000  Uiso   1.00
C303   C     0.87823   0.48959   0.04363   0.00000  Uiso   1.00
C304   C     0.75075   0.43113   0.46157   0.00000  Uiso   1.00
C305   C     0.94045   0.51805   0.02523   0.00000  Uiso   1.00
C306   C     0.85276   0.48407   0.47156   0.00000  Uiso   1.00
C307   C     0.83796   0.46657   0.01525   0.00000  Uiso   1.00
C308   C     0.78528   0.42476   0.02829   0.00000  Uiso   1.00
C309   C     0.91595   0.50966   0.45305   0.00000  Uiso   1.00
C310   C     0.74127   0.40821   0.00274   0.00000  Uiso   1.00
C311   C     0.95977   0.52501   0.47896   0.00000  Uiso   1.00
C312   C     0.85203   0.65562   0.25857   0.00000  Uiso   1.00
C313   C     0.81455   0.34438   0.24155   0.00000  Uiso   1.00
C314   C     0.79447   0.49381   0.33318   0.00000  Uiso   1.00
Cu315  Cu    0.77404   0.49441   0.24516   0.00000  Uiso   1.00
Cu316  Cu    0.89263   0.50559   0.25483   0.00000  Uiso   1.00
F317   F     0.79261   0.47541   0.10821   0.00000  Uiso   1.00
F318   F     0.85146   0.54484   0.39918   0.00000  Uiso   1.00
F319   F     0.99175   0.37262   0.44473   0.00000  Uiso   1.00
F320   F     0.70464   0.57190   0.03776   0.00000  Uiso   1.00
F321   F     0.77889   0.39603   0.06397   0.00000  Uiso   1.00
F322   F     0.93890   0.51299   0.40861   0.00000  Uiso   1.00
H323   H     0.98478   0.38388   0.01982   0.00000  Uiso   1.00
H324   H     0.71606   0.53292   0.47013   0.00000  Uiso   1.00
H325   H     0.70984   0.56644   0.10975   0.00000  Uiso   1.00
H326   H     0.99903   0.44569   0.35551   0.00000  Uiso   1.00
H327   H     0.91123   0.66167   0.29642   0.00000  Uiso   1.00
H328   H     0.75536   0.33832   0.20368   0.00000  Uiso   1.00
H329   H     0.97078   0.56224   0.30893   0.00000  Uiso   1.00
H330   H     0.69573   0.43751   0.19126   0.00000  Uiso   1.00
N331   N     0.98173   0.51401   0.26212   0.00000  Uiso   1.00
N332   N     0.68494   0.48599   0.23788   0.00000  Uiso   1.00
O333   O     0.79482   0.57142   0.24686   0.00000  Uiso   1.00
O334   O     0.68744   0.54748   0.45757   0.00000  Uiso   1.00
O335   O     0.99952   0.55345   0.12736   0.00000  Uiso   1.00
O336   O     0.67608   0.41621   0.36778   0.00000  Uiso   1.00
O337   O     0.89162   0.35172   0.28366   0.00000  Uiso   1.00
O338   O     0.77492   0.64827   0.21648   0.00000  Uiso   1.00
O339   O     0.67172   0.54456   0.29322   0.00000  Uiso   1.00
O340   O     0.99488   0.45533   0.20687   0.00000  Uiso   1.00
O341   O     0.87185   0.42858   0.25314   0.00000  Uiso   1.00
O342   O     0.89496   0.58086   0.25502   0.00000  Uiso   1.00
O343   O     0.77171   0.41914   0.24498   0.00000  Uiso   1.00
O344   O     0.75518   0.49263   0.30855   0.00000  Uiso   1.00
O345   O     0.91149   0.50737   0.19145   0.00000  Uiso   1.00
O346   O     0.85532   0.50207   0.31671   0.00000  Uiso   1.00
O347   O     0.81134   0.49793   0.18329   0.00000  Uiso   1.00
O348   O     0.68904   0.36983   0.01956   0.00000  Uiso   1.00
C349   C     0.18089   0.93322   0.25260   0.00000  Uiso   1.00
C350   C     0.20537   0.83773   0.16652   0.00000  Uiso   1.00
C351   C     0.10411   0.81191   0.37986   0.00000  Uiso   1.00
C352   C     0.23007   0.84171   0.11795   0.00000  Uiso   1.00
C353   C     0.04151   0.74729   0.43409   0.00000  Uiso   1.00
C354   C     0.31386   0.87353   0.05362   0.00000  Uiso   1.00
C355   C     0.05112   0.77048   0.39366   0.00000  Uiso   1.00
C356   C     0.29333   0.86646   0.09956   0.00000  Uiso   1.00
C357   C     0.14414   0.83102   0.40818   0.00000  Uiso   1.00
C358   C     0.18912   0.82253   0.09002   0.00000  Uiso   1.00
C359   C     0.13900   0.80437   0.44674   0.00000  Uiso   1.00
C360   C     0.15241   0.73344   0.24745   0.00000  Uiso   1.00
C361   C     0.21156   0.82293   0.04363   0.00000  Uiso   1.00
C362   C     0.08409   0.76446   0.46157   0.00000  Uiso   1.00
C363   C     0.27378   0.85138   0.02523   0.00000  Uiso   1.00
C364   C     0.18609   0.81741   0.47156   0.00000  Uiso   1.00
C365   C     0.17129   0.79990   0.01525   0.00000  Uiso   1.00
C366   C     0.11862   0.75809   0.02829   0.00000  Uiso   1.00
C367   C     0.24928   0.84299   0.45305   0.00000  Uiso   1.00
C368   C     0.07460   0.74154   0.00274   0.00000  Uiso   1.00
C369   C     0.29311   0.85834   0.47896   0.00000  Uiso   1.00
C370   C     0.18536   0.98895   0.25857   0.00000  Uiso   1.00
C371   C     0.14789   0.67771   0.24155   0.00000  Uiso   1.00
C372   C     0.12780   0.82714   0.33318   0.00000  Uiso   1.00
Cu373  Cu    0.10737   0.82775   0.24516   0.00000  Uiso   1.00
Cu374  Cu    0.22596   0.83892   0.25483   0.00000  Uiso   1.00
F375   F     0.12595   0.80874   0.10821   0.00000  Uiso   1.00
F376   F     0.18480   0.87818   0.39918   0.00000  Uiso   1.00
F377   F     0.32509   0.70595   0.44473   0.00000  Uiso   1.00
F378   F     0.03797   0.90524   0.03776   0.00000  Uiso   1.00
F379   F     0.11222   0.72937   0.06397   0.00000  Uiso   1.00
F380   F     0.27223   0.84632   0.40861   0.00000  Uiso   1.00
H381   H     0.31812   0.71722   0.01982   0.00000  Uiso   1.00
H382   H     0.04939   0.86626   0.47013   0.00000  Uiso   1.00
H383   H     0.04318   0.89977   0.10975   0.00000  Uiso   1.00
H384   H     0.33236   0.77902   0.35551   0.00000  Uiso   1.00
H385   H     0.24456   0.99501   0.29642   0.00000  Uiso   1.00
H386   H     0.08870   0.67166   0.20368   0.00000  Uiso   1.00
H387   H     0.30412   0.89557   0.30893   0.00000  Uiso   1.00
H388   H     0.02907   0.77084   0.19126   0.00000  Uiso   1.00
N389   N     0.31506   0.84735   0.26212   0.00000  Uiso   1.00
N390   N     0.01827   0.81932   0.23788   0.00000  Uiso   1.00
O391   O     0.12815   0.90476   0.24686   0.00000  Uiso   1.00
O392   O     0.02077   0.88082   0.45757   0.00000  Uiso   1.00
O393   O     0.33286   0.88678   0.12736   0.00000  Uiso   1.00
O394   O     0.00941   0.74955   0.36778   0.00000  Uiso   1.00
O395   O     0.22496   0.68506   0.28366   0.00000  Uiso   1.00
O396   O     0.10825   0.98160   0.21648   0.00000  Uiso   1.00
O397   O     0.00505   0.87789   0.29322   0.00000  Uiso   1.00
O398   O     0.32821   0.78866   0.20687   0.00000  Uiso   1.00
O399   O     0.20518   0.76191   0.25314   0.00000  Uiso   1.00
O400   O     0.22829   0.91420   0.25502   0.00000  Uiso   1.00
O401   O     0.10504   0.75247   0.24498   0.00000  Uiso   1.00
O402   O     0.08851   0.82597   0.30855   0.00000  Uiso   1.00
O403   O     0.24482   0.84070   0.19145   0.00000  Uiso   1.00
O404   O     0.18866   0.83540   0.31671   0.00000  Uiso   1.00
O405   O     0.14468   0.83126   0.18329   0.00000  Uiso   1.00
O406   O     0.02238   0.70316   0.01956   0.00000  Uiso   1.00
C407   C     0.51422   0.93322   0.25260   0.00000  Uiso   1.00
C408   C     0.53870   0.83773   0.16652   0.00000  Uiso   1.00
C409   C     0.43744   0.81191   0.37986   0.00000  Uiso   1.00
C410   C     0.56340   0.84171   0.11795   0.00000  Uiso   1.00
C411   C     0.37484   0.74729   0.43409   0.00000  Uiso   1.00
C412   C     0.64720   0.87353   0.05362   0.00000  Uiso   1.00
C413   C     0.38445   0.77048   0.39366   0.00000  Uiso   1.00
C414   C     0.62666   0.86646   0.09956   0.00000  Uiso   1.00
C415   C     0.47747   0.83102   0.40818   0.00000  Uiso   1.00
C416   C     0.52246   0.82253   0.09002   0.00000  Uiso   1.00
C417   C     0.47233   0.80437   0.44674   0.00000  Uiso   1.00
C418   C     0.48574   0.73344   0.24745   0.00000  Uiso   1.00
C419   C     0.54490   0.82293   0.04363   0.00000  Uiso   1.00
C420   C     0.41742   0.76446   0.46157   0.00000  Uiso   1.00
C421   C     0.60711   0.85138   0.02523   0.00000  Uiso   1.00
C422   C     0.51942   0.81741   0.47156   0.00000  Uiso   1.00
C423   C     0.50462   0.79990   0.01525   0.00000  Uiso   1.00
C424   C     0.45195   0.75809   0.02829   0.00000  Uiso   1.00
C425   C     0.58262   0.84299   0.45305   0.00000  Uiso   1.00
C426   C     0.40793   0.74154   0.00274   0.00000  Uiso   1.00
C427   C     0.62644   0.85834   0.47896   0.00000  Uiso   1.00
C428   C     0.51869   0.98895   0.25857   0.00000  Uiso   1.00
C429   C     0.48122   0.67771   0.24155   0.00000  Uiso   1.00
C430   C     0.46113   0.82714   0.33318   0.00000  Uiso   1.00
Cu431  Cu    0.44071   0.82775   0.24516   0.00000  Uiso   1.00
Cu432  Cu    0.55929   0.83892   0.25483   0.00000  Uiso   1.00
F433   F     0.45928   0.80874   0.10821   0.00000  Uiso   1.00
F434   F     0.51813   0.87818   0.39918   0.00000  Uiso   1.00
F435   F     0.65842   0.70595   0.44473   0.00000  Uiso   1.00
F436   F     0.37130   0.90524   0.03776   0.00000  Uiso   1.00
F437   F     0.44555   0.72937   0.06397   0.00000  Uiso   1.00
F438   F     0.60556   0.84632   0.40861   0.00000  Uiso   1.00
H439   H     0.65145   0.71722   0.01982   0.00000  Uiso   1.00
H440   H     0.38273   0.86626   0.47013   0.00000  Uiso   1.00
H441   H     0.37651   0.89977   0.10975   0.00000  Uiso   1.00
H442   H     0.66569   0.77902   0.35551   0.00000  Uiso   1.00
H443   H     0.57789   0.99501   0.29642   0.00000  Uiso   1.00
H444   H     0.42203   0.67166   0.20368   0.00000  Uiso   1.00
H445   H     0.63745   0.89557   0.30893   0.00000  Uiso   1.00
H446   H     0.36240   0.77084   0.19126   0.00000  Uiso   1.00
N447   N     0.64839   0.84735   0.26212   0.00000  Uiso   1.00
N448   N     0.35161   0.81932   0.23788   0.00000  Uiso   1.00
O449   O     0.46148   0.90476   0.24686   0.00000  Uiso   1.00
O450   O     0.35411   0.88082   0.45757   0.00000  Uiso   1.00
O451   O     0.66619   0.88678   0.12736   0.00000  Uiso   1.00
O452   O     0.34275   0.74955   0.36778   0.00000  Uiso   1.00
O453   O     0.55829   0.68506   0.28366   0.00000  Uiso   1.00
O454   O     0.44159   0.98160   0.21648   0.00000  Uiso   1.00
O455   O     0.33838   0.87789   0.29322   0.00000  Uiso   1.00
O456   O     0.66154   0.78866   0.20687   0.00000  Uiso   1.00
O457   O     0.53852   0.76191   0.25314   0.00000  Uiso   1.00
O458   O     0.56163   0.91420   0.25502   0.00000  Uiso   1.00
O459   O     0.43837   0.75247   0.24498   0.00000  Uiso   1.00
O460   O     0.42185   0.82597   0.30855   0.00000  Uiso   1.00
O461   O     0.57815   0.84070   0.19145   0.00000  Uiso   1.00
O462   O     0.52199   0.83540   0.31671   0.00000  Uiso   1.00
O463   O     0.47801   0.83126   0.18329   0.00000  Uiso   1.00
O464   O     0.35571   0.70316   0.01956   0.00000  Uiso   1.00
C465   C     0.84756   0.93322   0.25260   0.00000  Uiso   1.00
C466   C     0.87203   0.83773   0.16652   0.00000  Uiso   1.00
C467   C     0.77077   0.81191   0.37986   0.00000  Uiso   1.00
C468   C     0.89674   0.84171   0.11795   0.00000  Uiso   1.00
C469   C     0.70818   0.74729   0.43409   0.00000  Uiso   1.00
C470   C     0.98053   0.87353   0.05362   0.00000  Uiso   1.00
C471   C     0.71778   0.77048   0.39366   0.00000  Uiso   1.00
C472   C     0.95999   0.86646   0.09956   0.00000  Uiso   1.00
C473   C     0.81081   0.83102   0.40818   0.00000  Uiso   1.00
C474   C     0.85579   0.82253   0.09002   0.00000  Uiso   1.00
C475   C     0.80567   0.80437   0.44674   0.00000  Uiso   1.00
C476   C     0.81908   0.73344   0.24745   0.00000  Uiso   1.00
C477   C     0.87823   0.82293   0.04363   0.00000  Uiso   1.00
C478   C     0.75075   0.76446   0.46157   0.00000  Uiso   1.00
C479   C     0.94045   0.85138   0.02523   0.00000  Uiso   1.00
C480   C     0.85276   0.81741   0.47156   0.00000  Uiso   1.00
C481   C     0.83796   0.79990   0.01525   0.00000  Uiso   1.00
C482   C     0.78528   0.75809   0.02829   0.00000  Uiso   1.00
C483   C     0.91595   0.84299   0.45305   0.00000  Uiso   1.00
C484   C     0.74127   0.74154   0.00274   0.00000  Uiso   1.00
C485   C     0.95977   0.85834   0.47896   0.00000  Uiso   1.00
C486   C     0.85203   0.98895   0.25857   0.00000  Uiso   1.00
C487   C     0.81455   0.67771   0.24155   0.00000  Uiso   1.00
C488   C     0.79447   0.82714   0.33318   0.00000  Uiso   1.00
Cu489  Cu    0.77404   0.82775   0.24516   0.00000  Uiso   1.00
Cu490  Cu    0.89263   0.83892   0.25483   0.00000  Uiso   1.00
F491   F     0.79261   0.80874   0.10821   0.00000  Uiso   1.00
F492   F     0.85146   0.87818   0.39918   0.00000  Uiso   1.00
F493   F     0.99175   0.70595   0.44473   0.00000  Uiso   1.00
F494   F     0.70464   0.90524   0.03776   0.00000  Uiso   1.00
F495   F     0.77889   0.72937   0.06397   0.00000  Uiso   1.00
F496   F     0.93890   0.84632   0.40861   0.00000  Uiso   1.00
H497   H     0.98478   0.71722   0.01982   0.00000  Uiso   1.00
H498   H     0.71606   0.86626   0.47013   0.00000  Uiso   1.00
H499   H     0.70984   0.89977   0.10975   0.00000  Uiso   1.00
H500   H     0.99903   0.77902   0.35551   0.00000  Uiso   1.00
H501   H     0.91123   0.99501   0.29642   0.00000  Uiso   1.00
H502   H     0.75536   0.67166   0.20368   0.00000  Uiso   1.00
H503   H     0.97078   0.89557   0.30893   0.00000  Uiso   1.00
H504   H     0.69573   0.77084   0.19126   0.00000  Uiso   1.00
N505   N     0.98173   0.84735   0.26212   0.00000  Uiso   1.00
N506   N     0.68494   0.81932   0.23788   0.00000  Uiso   1.00
O507   O     0.79482   0.90476   0.24686   0.00000  Uiso   1.00
O508   O     0.68744   0.88082   0.45757   0.00000  Uiso   1.00
O509   O     0.99952   0.88678   0.12736   0.00000  Uiso   1.00
O510   O     0.67608   0.74955   0.36778   0.00000  Uiso   1.00
O511   O     0.89162   0.68506   0.28366   0.00000  Uiso   1.00
O512   O     0.77492   0.98160   0.21648   0.00000  Uiso   1.00
O513   O     0.67172   0.87789   0.29322   0.00000  Uiso   1.00
O514   O     0.99488   0.78866   0.20687   0.00000  Uiso   1.00
O515   O     0.87185   0.76191   0.25314   0.00000  Uiso   1.00
O516   O     0.89496   0.91420   0.25502   0.00000  Uiso   1.00
O517   O     0.77171   0.75247   0.24498   0.00000  Uiso   1.00
O518   O     0.75518   0.82597   0.30855   0.00000  Uiso   1.00
O519   O     0.91149   0.84070   0.19145   0.00000  Uiso   1.00
O520   O     0.85532   0.83540   0.31671   0.00000  Uiso   1.00
O521   O     0.81134   0.83126   0.18329   0.00000  Uiso   1.00
O522   O     0.68904   0.70316   0.01956   0.00000  Uiso   1.00
C523   C     0.18089   0.26656   0.75260   0.00000  Uiso   1.00
C524   C     0.20537   0.17106   0.66652   0.00000  Uiso   1.00
C525   C     0.10411   0.14524   0.87986   0.00000  Uiso   1.00
C526   C     0.23007   0.17505   0.61795   0.00000  Uiso   1.00
C527   C     0.04151   0.08063   0.93409   0.00000  Uiso   1.00
C528   C     0.31386   0.20686   0.55362   0.00000  Uiso   1.00
C529   C     0.05112   0.10381   0.89366   0.00000  Uiso   1.00
C530   C     0.29333   0.19979   0.59956   0.00000  Uiso   1.00
C531   C     0.14414   0.16435   0.90818   0.00000  Uiso   1.00
C532   C     0.18912   0.15586   0.59002   0.00000  Uiso   1.00
C533   C     0.13900   0.13771   0.94674   0.00000  Uiso   1.00
C534   C     0.15241   0.06678   0.74745   0.00000  Uiso   1.00
C535   C     0.21156   0.15626   0.54363   0.00000  Uiso   1.00
C536   C     0.08409   0.09779   0.96157   0.00000  Uiso   1.00
C537   C     0.27378   0.18471   0.52523   0.00000  Uiso   1.00
C538   C     0.18609   0.15074   0.97156   0.00000  Uiso   1.00
C539   C     0.17129   0.13324   0.51525   0.00000  Uiso   1.00
C540   C     0.11862   0.09143   0.52829   0.00000  Uiso   1.00
C541   C     0.24928   0.17632   0.95305   0.00000  Uiso   1.00
C542   C     0.07460   0.07487   0.50274   0.00000  Uiso   1.00
C543   C     0.29311   0.19167   0.97896   0.00000  Uiso   1.00
C544   C     0.18536   0.32228   0.75857   0.00000  Uiso   1.00
C545   C     0.14789   0.01105   0.74155   0.00000  Uiso   1.00
C546   C     0.12780   0.16047   0.83318   0.00000  Uiso   1.00
Cu547  Cu    0.10737   0.16108   0.74516   0.00000  Uiso   1.00
Cu548  Cu    0.22596   0.17225   0.75483   0.00000  Uiso   1.00
F549   F     0.12595   0.14208   0.60821   0.00000  Uiso   1.00
F550   F     0.18480   0.21151   0.89918   0.00000  Uiso   1.00
F551   F     0.32509   0.03928   0.94473   0.00000  Uiso   1.00
F552   F     0.03797   0.23857   0.53776   0.00000  Uiso   1.00
F553   F     0.11222   0.06270   0.56397   0.00000  Uiso   1.00
F554   F     0.27223   0.17965   0.90861   0.00000  Uiso   1.00
H555   H     0.31812   0.05055   0.51982   0.00000  Uiso   1.00
H556   H     0.04939   0.19959   0.97013   0.00000  Uiso   1.00
H557   H     0.04318   0.23311   0.60975   0.00000  Uiso   1.00
H558   H     0.33236   0.11235   0.85551   0.00000  Uiso   1.00
H559   H     0.24456   0.32834   0.79642   0.00000  Uiso   1.00
H560   H     0.08870   0.00499   0.70368   0.00000  Uiso   1.00
H561   H     0.30412   0.22891   0.80893   0.00000  Uiso   1.00
H562   H     0.02907   0.10417   0.69126   0.00000  Uiso   1.00
N563   N     0.31506   0.18068   0.76212   0.00000  Uiso   1.00
N564   N     0.01827   0.15265   0.73788   0.00000  Uiso   1.00
O565   O     0.12815   0.23809   0.74686   0.00000  Uiso   1.00
O566   O     0.02077   0.21415   0.95757   0.00000  Uiso   1.00
O567   O     0.33286   0.22011   0.62736   0.00000  Uiso   1.00
O568   O     0.00941   0.08288   0.86778   0.00000  Uiso   1.00
O569   O     0.22496   0.01839   0.78366   0.00000  Uiso   1.00
O570   O     0.10825   0.31494   0.71648   0.00000  Uiso   1.00
O571   O     0.00505   0.21122   0.79322   0.00000  Uiso   1.00
O572   O     0.32821   0.12199   0.70687   0.00000  Uiso   1.00
O573   O     0.20518   0.09524   0.75314   0.00000  Uiso   1.00
O574   O     0.22829   0.24753   0.75502   0.00000  Uiso   1.00
O575   O     0.10504   0.08580   0.74498   0.00000  Uiso   1.00
O576   O     0.08851   0.15930   0.80855   0.00000  Uiso   1.00
O577   O     0.24482   0.17403   0.69145   0.00000  Uiso   1.00
O578   O     0.18866   0.16874   0.81671   0.00000  Uiso   1.00
O579   O     0.14468   0.16460   0.68329   0.00000  Uiso   1.00
O580   O     0.02238   0.03649   0.51956   0.00000  Uiso   1.00
C581   C     0.51422   0.26656   0.75260   0.00000  Uiso   1.00
C582   C     0.53870   0.17106   0.66652   0.00000  Uiso   1.00
C583   C     0.43744   0.14524   0.87986   0.00000  Uiso   1.00
C584   C     0.56340   0.17505   0.61795   0.00000  Uiso   1.00
C585   C     0.37484   0.08063   0.93409   0.00000  Uiso   1.00
C586   C     0.64720   0.20686   0.55362   0.00000  Uiso   1.00
C587   C     0.38445   0.10381   0.89366   0.00000  Uiso   1.00
C588   C     0.62666   0.19979   0.59956   0.00000  Uiso   1.00
C589   C     0.47747   0.16435   0.90818   0.00000  Uiso   1.00
C590   C     0.52246   0.15586   0.59002   0.00000  Uiso   1.00
C591   C     0.47233   0.13771   0.94674   0.00000  Uiso   1.00
C592   C     0.48574   0.06678   0.74745   0.00000  Uiso   1.00
C593   C     0.54490   0.15626   0.54363   0.00000  Uiso   1.00
C594   C     0.41742   0.09779   0.96157   0.00000  Uiso   1.00
C595   C     0.60711   0.18471   0.52523   0.00000  Uiso   1.00
C596   C     0.51942   0.15074   0.97156   0.00000  Uiso   1.00
C597   C     0.50462   0.13324   0.51525   0.00000  Uiso   1.00
C598   C     0.45195   0.09143   0.52829   0.00000  Uiso   1.00
C599   C     0.58262   0.17632   0.95305   0.00000  Uiso   1.00
C600   C     0.40793   0.07487   0.50274   0.00000  Uiso   1.00
C601   C     0.62644   0.19167   0.97896   0.00000  Uiso   1.00
C602   C     0.51869   0.32228   0.75857   0.00000  Uiso   1.00
C603   C     0.48122   0.01105   0.74155   0.00000  Uiso   1.00
C604   C     0.46113   0.16047   0.83318   0.00000  Uiso   1.00
Cu605  Cu    0.44071   0.16108   0.74516   0.00000  Uiso   1.00
Cu606  Cu    0.55929   0.17225   0.75483   0.00000  Uiso   1.00
F607   F     0.45928   0.14208   0.60821   0.00000  Uiso   1.00
F608   F     0.51813   0.21151   0.89918   0.00000  Uiso   1.00
F609   F     0.65842   0.03928   0.94473   0.00000  Uiso   1.00
F610   F     0.37130   0.23857   0.53776   0.00000  Uiso   1.00
F611   F     0.44555   0.06270   0.56397   0.00000  Uiso   1.00
F612   F     0.60556   0.17965   0.90861   0.00000  Uiso   1.00
H613   H     0.65145   0.05055   0.51982   0.00000  Uiso   1.00
H614   H     0.38273   0.19959   0.97013   0.00000  Uiso   1.00
H615   H     0.37651   0.23311   0.60975   0.00000  Uiso   1.00
H616   H     0.66569   0.11235   0.85551   0.00000  Uiso   1.00
H617   H     0.57789   0.32834   0.79642   0.00000  Uiso   1.00
H618   H     0.42203   0.00499   0.70368   0.00000  Uiso   1.00
H619   H     0.63745   0.22891   0.80893   0.00000  Uiso   1.00
H620   H     0.36240   0.10417   0.69126   0.00000  Uiso   1.00
N621   N     0.64839   0.18068   0.76212   0.00000  Uiso   1.00
N622   N     0.35161   0.15265   0.73788   0.00000  Uiso   1.00
O623   O     0.46148   0.23809   0.74686   0.00000  Uiso   1.00
O624   O     0.35411   0.21415   0.95757   0.00000  Uiso   1.00
O625   O     0.66619   0.22011   0.62736   0.00000  Uiso   1.00
O626   O     0.34275   0.08288   0.86778   0.00000  Uiso   1.00
O627   O     0.55829   0.01839   0.78366   0.00000  Uiso   1.00
O628   O     0.44159   0.31494   0.71648   0.00000  Uiso   1.00
O629   O     0.33838   0.21122   0.79322   0.00000  Uiso   1.00
O630   O     0.66154   0.12199   0.70687   0.00000  Uiso   1.00
O631   O     0.53852   0.09524   0.75314   0.00000  Uiso   1.00
O632   O     0.56163   0.24753   0.75502   0.00000  Uiso   1.00
O633   O     0.43837   0.08580   0.74498   0.00000  Uiso   1.00
O634   O     0.42185   0.15930   0.80855   0.00000  Uiso   1.00
O635   O     0.57815   0.17403   0.69145   0.00000  Uiso   1.00
O636   O     0.52199   0.16874   0.81671   0.00000  Uiso   1.00
O637   O     0.47801   0.16460   0.68329   0.00000  Uiso   1.00
O638   O     0.35571   0.03649   0.51956   0.00000  Uiso   1.00
C639   C     0.84756   0.26656   0.75260   0.00000  Uiso   1.00
C640   C     0.87203   0.17106   0.66652   0.00000  Uiso   1.00
C641   C     0.77077   0.14524   0.87986   0.00000  Uiso   1.00
C642   C     0.89674   0.17505   0.61795   0.00000  Uiso   1.00
C643   C     0.70818   0.08063   0.93409   0.00000  Uiso   1.00
C644   C     0.98053   0.20686   0.55362   0.00000  Uiso   1.00
C645   C     0.71778   0.10381   0.89366   0.00000  Uiso   1.00
C646   C     0.95999   0.19979   0.59956   0.00000  Uiso   1.00
C647   C     0.81081   0.16435   0.90818   0.00000  Uiso   1.00
C648   C     0.85579   0.15586   0.59002   0.00000  Uiso   1.00
C649   C     0.80567   0.13771   0.94674   0.00000  Uiso   1.00
C650   C     0.81908   0.06678   0.74745   0.00000  Uiso   1.00
C651   C     0.87823   0.15626   0.54363   0.00000  Uiso   1.00
C652   C     0.75075   0.09779   0.96157   0.00000  Uiso   1.00
C653   C     0.94045   0.18471   0.52523   0.00000  Uiso   1.00
C654   C     0.85276   0.15074   0.97156   0.00000  Uiso   1.00
C655   C     0.83796   0.13324   0.51525   0.00000  Uiso   1.00
C656   C     0.78528   0.09143   0.52829   0.00000  Uiso   1.00
C657   C     0.91595   0.17632   0.95305   0.00000  Uiso   1.00
C658   C     0.74127   0.07487   0.50274   0.00000  Uiso   1.00
C659   C     0.95977   0.19167   0.97896   0.00000  Uiso   1.00
C660   C     0.85203   0.32228   0.75857   0.00000  Uiso   1.00
C661   C     0.81455   0.01105   0.74155   0.00000  Uiso   1.00
C662   C     0.79447   0.16047   0.83318   0.00000  Uiso   1.00
Cu663  Cu    0.77404   0.16108   0.74516   0.00000  Uiso   1.00
Cu664  Cu    0.89263   0.17225   0.75483   0.00000  Uiso   1.00
F665   F     0.79261   0.14208   0.60821   0.00000  Uiso   1.00
F666   F     0.85146   0.21151   0.89918   0.00000  Uiso   1.00
F667   F     0.99175   0.03928   0.94473   0.00000  Uiso   1.00
F668   F     0.70464   0.23857   0.53776   0.00000  Uiso   1.00
F669   F     0.77889   0.06270   0.56397   0.00000  Uiso   1.00
F670   F     0.93890   0.17965   0.90861   0.00000  Uiso   1.00
H671   H     0.98478   0.05055   0.51982   0.00000  Uiso   1.00
H672   H     0.71606   0.19959   0.97013   0.00000  Uiso   1.00
H673   H     0.70984   0.23311   0.60975   0.00000  Uiso   1.00
H674   H     0.99903   0.11235   0.85551   0.00000  Uiso   1.00
H675   H     0.91123   0.32834   0.79642   0.00000  Uiso   1.00
H676   H     0.75536   0.00499   0.70368   0.00000  Uiso   1.00
H677   H     0.97078   0.22891   0.80893   0.00000  Uiso   1.00
H678   H     0.69573   0.10417   0.69126   0.00000  Uiso   1.00
N679   N     0.98173   0.18068   0.76212   0.00000  Uiso   1.00
N680   N     0.68494   0.15265   0.73788   0.00000  Uiso   1.00
O681   O     0.79482   0.23809   0.74686   0.00000  Uiso   1.00
O682   O     0.68744   0.21415   0.95757   0.00000  Uiso   1.00
O683   O     0.99952   0.22011   0.62736   0.00000  Uiso   1.00
O684   O     0.67608   0.08288   0.86778   0.00000  Uiso   1.00
O685   O     0.89162   0.01839   0.78366   0.00000  Uiso   1.00
O686   O     0.77492   0.31494   0.71648   0.00000  Uiso   1.00
O687   O     0.67172   0.21122   0.79322   0.00000  Uiso   1.00
O688   O     0.99488   0.12199   0.70687   0.00000  Uiso   1.00
O689   O     0.87185   0.09524   0.75314   0.00000  Uiso   1.00
O690   O     0.89496   0.24753   0.75502   0.00000  Uiso   1.00
O691   O     0.77171   0.08580   0.74498   0.00000  Uiso   1.00
O692   O     0.75518   0.15930   0.80855   0.00000  Uiso   1.00
O693   O     0.91149   0.17403   0.69145   0.00000  Uiso   1.00
O694   O     0.85532   0.16874   0.81671   0.00000  Uiso   1.00
O695   O     0.81134   0.16460   0.68329   0.00000  Uiso   1.00
O696   O     0.68904   0.03649   0.51956   0.00000  Uiso   1.00
C697   C     0.18089   0.59989   0.75260   0.00000  Uiso   1.00
C698   C     0.20537   0.50440   0.66652   0.00000  Uiso   1.00
C699   C     0.10411   0.47858   0.87986   0.00000  Uiso   1.00
C700   C     0.23007   0.50838   0.61795   0.00000  Uiso   1.00
C701   C     0.04151   0.41396   0.93409   0.00000  Uiso   1.00
C702   C     0.31386   0.54020   0.55362   0.00000  Uiso   1.00
C703   C     0.05112   0.43714   0.89366   0.00000  Uiso   1.00
C704   C     0.29333   0.53313   0.59956   0.00000  Uiso   1.00
C705   C     0.14414   0.49768   0.90818   0.00000  Uiso   1.00
C706   C     0.18912   0.48919   0.59002   0.00000  Uiso   1.00
C707   C     0.13900   0.47104   0.94674   0.00000  Uiso   1.00
C708   C     0.15241   0.40011   0.74745   0.00000  Uiso   1.00
C709   C     0.21156   0.48959   0.54363   0.00000  Uiso   1.00
C710   C     0.08409   0.43113   0.96157   0.00000  Uiso   1.00
C711   C     0.27378   0.51805   0.52523   0.00000  Uiso   1.00
C712   C     0.18609   0.48407   0.97156   0.00000  Uiso   1.00
C713   C     0.17129   0.46657   0.51525   0.00000  Uiso   1.00
C714   C     0.11862   0.42476   0.52829   0.00000  Uiso   1.00
C715   C     0.24928   0.50966   0.95305   0.00000  Uiso   1.00
C716   C     0.07460   0.40821   0.50274   0.00000  Uiso   1.00
C717   C     0.29311   0.52501   0.97896   0.00000  Uiso   1.00
C718   C     0.18536   0.65562   0.75857   0.00000  Uiso   1.00
C719   C     0.14789   0.34438   0.74155   0.00000  Uiso   1.00
C720   C     0.12780   0.49381   0.83318   0.00000  Uiso   1.00
Cu721  Cu    0.10737   0.49441   0.74516   0.00000  Uiso   1.00
Cu722  Cu    0.22596   0.50559   0.75483   0.00000  Uiso   1.00
F723   F     0.12595   0.47541   0.60821   0.00000  Uiso   1.00
F724   F     0.18480   0.54484   0.89918   0.00000  Uiso   1.00
F725   F     0.32509   0.37262   0.94473   0.00000  Uiso   1.00
F726   F     0.03797   0.57190   0.53776   0.00000  Uiso   1.00
F727   F     0.11222   0.39603   0.56397   0.00000  Uiso   1.00
F728   F     0.27223   0.51299   0.90861   0.00000  Uiso   1.00
H729   H     0.31812   0.38388   0.51982   0.00000  Uiso   1.00
H730   H     0.04939   0.53292   0.97013   0.00000  Uiso   1.00
H731   H     0.04318   0.56644   0.60975   0.00000  Uiso   1.00
H732   H     0.33236   0.44569   0.85551   0.00000  Uiso   1.00
H733   H     0.24456   0.66167   0.79642   0.00000  Uiso   1.00
H734   H     0.08870   0.33832   0.70368   0.00000  Uiso   1.00
H735   H     0.30412   0.56224   0.80893   0.00000  Uiso   1.00
H736   H     0.02907   0.43751   0.69126   0.00000  Uiso   1.00
N737   N     0.31506   0.51401   0.76212   0.00000  Uiso   1.00
N738   N     0.01827   0.48599   0.73788   0.00000  Uiso   1.00
O739   O     0.12815   0.57142   0.74686   0.00000  Uiso   1.00
O740   O     0.02077   0.54748   0.95757   0.00000  Uiso   1.00
O741   O     0.33286   0.55345   0.62736   0.00000  Uiso   1.00
O742   O     0.00941   0.41621   0.86778   0.00000  Uiso   1.00
O743   O     0.22496   0.35172   0.78366   0.00000  Uiso   1.00
O744   O     0.10825   0.64827   0.71648   0.00000  Uiso   1.00
O745   O     0.00505   0.54456   0.79322   0.00000  Uiso   1.00
O746   O     0.32821   0.45533   0.70687   0.00000  Uiso   1.00
O747   O     0.20518   0.42858   0.75314   0.00000  Uiso   1.00
O748   O     0.22829   0.58086   0.75502   0.00000  Uiso   1.00
O749   O     0.10504   0.41914   0.74498   0.00000  Uiso   1.00
O750   O     0.08851   0.49263   0.80855   0.00000  Uiso   1.00
O751   O     0.24482   0.50737   0.69145   0.00000  Uiso   1.00
O752   O     0.18866   0.50207   0.81671   0.00000  Uiso   1.00
O753   O     0.14468   0.49793   0.68329   0.00000  Uiso   1.00
O754   O     0.02238   0.36983   0.51956   0.00000  Uiso   1.00
C755   C     0.51422   0.59989   0.75260   0.00000  Uiso   1.00
C756   C     0.53870   0.50440   0.66652   0.00000  Uiso   1.00
C757   C     0.43744   0.47858   0.87986   0.00000  Uiso   1.00
C758   C     0.56340   0.50838   0.61795   0.00000  Uiso   1.00
C759   C     0.37484   0.41396   0.93409   0.00000  Uiso   1.00
C760   C     0.64720   0.54020   0.55362   0.00000  Uiso   1.00
C761   C     0.38445   0.43714   0.89366   0.00000  Uiso   1.00
C762   C     0.62666   0.53313   0.59956   0.00000  Uiso   1.00
C763   C     0.47747   0.49768   0.90818   0.00000  Uiso   1.00
C764   C     0.52246   0.48919   0.59002   0.00000  Uiso   1.00
C765   C     0.47233   0.47104   0.94674   0.00000  Uiso   1.00
C766   C     0.48574   0.40011   0.74745   0.00000  Uiso   1.00
C767   C     0.54490   0.48959   0.54363   0.00000  Uiso   1.00
C768   C     0.41742   0.43113   0.96157   0.00000  Uiso   1.00
C769   C     0.60711   0.51805   0.52523   0.00000  Uiso   1.00
C770   C     0.51942   0.48407   0.97156   0.00000  Uiso   1.00
C771   C     0.50462   0.46657   0.51525   0.00000  Uiso   1.00
C772   C     0.45195   0.42476   0.52829   0.00000  Uiso   1.00
C773   C     0.58262   0.50966   0.95305   0.00000  Uiso   1.00
C774   C     0.40793   0.40821   0.50274   0.00000  Uiso   1.00
C775   C     0.62644   0.52501   0.97896   0.00000  Uiso   1.00
C776   C     0.51869   0.65562   0.75857   0.00000  Uiso   1.00
C777   C     0.48122   0.34438   0.74155   0.00000  Uiso   1.00
C778   C     0.46113   0.49381   0.83318   0.00000  Uiso   1.00
Cu779  Cu    0.44071   0.49441   0.74516   0.00000  Uiso   1.00
Cu780  Cu    0.55929   0.50559   0.75483   0.00000  Uiso   1.00
F781   F     0.45928   0.47541   0.60821   0.00000  Uiso   1.00
F782   F     0.51813   0.54484   0.89918   0.00000  Uiso   1.00
F783   F     0.65842   0.37262   0.94473   0.00000  Uiso   1.00
F784   F     0.37130   0.57190   0.53776   0.00000  Uiso   1.00
F785   F     0.44555   0.39603   0.56397   0.00000  Uiso   1.00
F786   F     0.60556   0.51299   0.90861   0.00000  Uiso   1.00
H787   H     0.65145   0.38388   0.51982   0.00000  Uiso   1.00
H788   H     0.38273   0.53292   0.97013   0.00000  Uiso   1.00
H789   H     0.37651   0.56644   0.60975   0.00000  Uiso   1.00
H790   H     0.66569   0.44569   0.85551   0.00000  Uiso   1.00
H791   H     0.57789   0.66167   0.79642   0.00000  Uiso   1.00
H792   H     0.42203   0.33832   0.70368   0.00000  Uiso   1.00
H793   H     0.63745   0.56224   0.80893   0.00000  Uiso   1.00
H794   H     0.36240   0.43751   0.69126   0.00000  Uiso   1.00
N795   N     0.64839   0.51401   0.76212   0.00000  Uiso   1.00
N796   N     0.35161   0.48599   0.73788   0.00000  Uiso   1.00
O797   O     0.46148   0.57142   0.74686   0.00000  Uiso   1.00
O798   O     0.35411   0.54748   0.95757   0.00000  Uiso   1.00
O799   O     0.66619   0.55345   0.62736   0.00000  Uiso   1.00
O800   O     0.34275   0.41621   0.86778   0.00000  Uiso   1.00
O801   O     0.55829   0.35172   0.78366   0.00000  Uiso   1.00
O802   O     0.44159   0.64827   0.71648   0.00000  Uiso   1.00
O803   O     0.33838   0.54456   0.79322   0.00000  Uiso   1.00
O804   O     0.66154   0.45533   0.70687   0.00000  Uiso   1.00
O805   O     0.53852   0.42858   0.75314   0.00000  Uiso   1.00
O806   O     0.56163   0.58086   0.75502   0.00000  Uiso   1.00
O807   O     0.43837   0.41914   0.74498   0.00000  Uiso   1.00
O808   O     0.42185   0.49263   0.80855   0.00000  Uiso   1.00
O809   O     0.57815   0.50737   0.69145   0.00000  Uiso   1.00
O810   O     0.52199   0.50207   0.81671   0.00000  Uiso   1.00
O811   O     0.47801   0.49793   0.68329   0.00000  Uiso   1.00
O812   O     0.35571   0.36983   0.51956   0.00000  Uiso   1.00
C813   C     0.84756   0.59989   0.75260   0.00000  Uiso   1.00
C814   C     0.87203   0.50440   0.66652   0.00000  Uiso   1.00
C815   C     0.77077   0.47858   0.87986   0.00000  Uiso   1.00
C816   C     0.89674   0.50838   0.61795   0.00000  Uiso   1.00
C817   C     0.70818   0.41396   0.93409   0.00000  Uiso   1.00
C818   C     0.98053   0.54020   0.55362   0.00000  Uiso   1.00
C819   C     0.71778   0.43714   0.89366   0.00000  Uiso   1.00
C820   C     0.95999   0.53313   0.59956   0.00000  Uiso   1.00
C821   C     0.81081   0.49768   0.90818   0.00000  Uiso   1.00
C822   C     0.85579   0.48919   0.59002   0.00000  Uiso   1.00
C823   C     0.80567   0.47104   0.94674   0.00000  Uiso   1.00
C824   C     0.81908   0.40011   0.74745   0.00000  Uiso   1.00
C825   C     0.87823   0.48959   0.54363   0.00000  Uiso   1.00
C826   C     0.75075   0.43113   0.96157   0.00000  Uiso   1.00
C827   C     0.94045   0.51805   0.52523   0.00000  Uiso   1.00
C828   C     0.85276   0.48407   0.97156   0.00000  Uiso   1.00
C829   C     0.83796   0.46657   0.51525   0.00000  Uiso   1.00
C830   C     0.78528   0.42476   0.52829   0.00000  Uiso   1.00
C831   C     0.91595   0.50966   0.95305   0.00000  Uiso   1.00
C832   C     0.74127   0.40821   0.50274   0.00000  Uiso   1.00
C833   C     0.95977   0.52501   0.97896   0.00000  Uiso   1.00
C834   C     0.85203   0.65562   0.75857   0.00000  Uiso   1.00
C835   C     0.81455   0.34438   0.74155   0.00000  Uiso   1.00
C836   C     0.79447   0.49381   0.83318   0.00000  Uiso   1.00
Cu837  Cu    0.77404   0.49441   0.74516   0.00000  Uiso   1.00
Cu838  Cu    0.89263   0.50559   0.75483   0.00000  Uiso   1.00
F839   F     0.79261   0.47541   0.60821   0.00000  Uiso   1.00
F840   F     0.85146   0.54484   0.89918   0.00000  Uiso   1.00
F841   F     0.99175   0.37262   0.94473   0.00000  Uiso   1.00
F842   F     0.70464   0.57190   0.53776   0.00000  Uiso   1.00
F843   F     0.77889   0.39603   0.56397   0.00000  Uiso   1.00
F844   F     0.93890   0.51299   0.90861   0.00000  Uiso   1.00
H845   H     0.98478   0.38388   0.51982   0.00000  Uiso   1.00
H846   H     0.71606   0.53292   0.97013   0.00000  Uiso   1.00
H847   H     0.70984   0.56644   0.60975   0.00000  Uiso   1.00
H848   H     0.99903   0.44569   0.85551   0.00000  Uiso   1.00
H849   H     0.91123   0.66167   0.79642   0.00000  Uiso   1.00
H850   H     0.75536   0.33832   0.70368   0.00000  Uiso   1.00
H851   H     0.97078   0.56224   0.80893   0.00000  Uiso   1.00
H852   H     0.69573   0.43751   0.69126   0.00000  Uiso   1.00
N853   N     0.98173   0.51401   0.76212   0.00000  Uiso   1.00
N854   N     0.68494   0.48599   0.73788   0.00000  Uiso   1.00
O855   O     0.79482   0.57142   0.74686   0.00000  Uiso   1.00
O856   O     0.68744   0.54748   0.95757   0.00000  Uiso   1.00
O857   O     0.99952   0.55345   0.62736   0.00000  Uiso   1.00
O858   O     0.67608   0.41621   0.86778   0.00000  Uiso   1.00
O859   O     0.89162   0.35172   0.78366   0.00000  Uiso   1.00
O860   O     0.77492   0.64827   0.71648   0.00000  Uiso   1.00
O861   O     0.67172   0.54456   0.79322   0.00000  Uiso   1.00
O862   O     0.99488   0.45533   0.70687   0.00000  Uiso   1.00
O863   O     0.87185   0.42858   0.75314   0.00000  Uiso   1.00
O864   O     0.89496   0.58086   0.75502   0.00000  Uiso   1.00
O865   O     0.77171   0.41914   0.74498   0.00000  Uiso   1.00
O866   O     0.75518   0.49263   0.80855   0.00000  Uiso   1.00
O867   O     0.91149   0.50737   0.69145   0.00000  Uiso   1.00
O868   O     0.85532   0.50207   0.81671   0.00000  Uiso   1.00
O869   O     0.81134   0.49793   0.68329   0.00000  Uiso   1.00
O870   O     0.68904   0.36983   0.51956   0.00000  Uiso   1.00
C871   C     0.18089   0.93322   0.75260   0.00000  Uiso   1.00
C872   C     0.20537   0.83773   0.66652   0.00000  Uiso   1.00
C873   C     0.10411   0.81191   0.87986   0.00000  Uiso   1.00
C874   C     0.23007   0.84171   0.61795   0.00000  Uiso   1.00
C875   C     0.04151   0.74729   0.93409   0.00000  Uiso   1.00
C876   C     0.31386   0.87353   0.55362   0.00000  Uiso   1.00
C877   C     0.05112   0.77048   0.89366   0.00000  Uiso   1.00
C878   C     0.29333   0.86646   0.59956   0.00000  Uiso   1.00
C879   C     0.14414   0.83102   0.90818   0.00000  Uiso   1.00
C880   C     0.18912   0.82253   0.59002   0.00000  Uiso   1.00
C881   C     0.13900   0.80437   0.94674   0.00000  Uiso   1.00
C882   C     0.15241   0.73344   0.74745   0.00000  Uiso   1.00
C883   C     0.21156   0.82293   0.54363   0.00000  Uiso   1.00
C884   C     0.08409   0.76446   0.96157   0.00000  Uiso   1.00
C885   C     0.27378   0.85138   0.52523   0.00000  Uiso   1.00
C886   C     0.18609   0.81741   0.97156   0.00000  Uiso   1.00
C887   C     0.17129   0.79990   0.51525   0.00000  Uiso   1.00
C888   C     0.11862   0.75809   0.52829   0.00000  Uiso   1.00
C889   C     0.24928   0.84299   0.95305   0.00000  Uiso   1.00
C890   C     0.07460   0.74154   0.50274   0.00000  Uiso   1.00
C891   C     0.29311   0.85834   0.97896   0.00000  Uiso   1.00
C892   C     0.18536   0.98895   0.75857   0.00000  Uiso   1.00
C893   C     0.14789   0.67771   0.74155   0.00000  Uiso   1.00
C894   C     0.12780   0.82714   0.83318   0.00000  Uiso   1.00
Cu895  Cu    0.10737   0.82775   0.74516   0.00000  Uiso   1.00
Cu896  Cu    0.22596   0.83892   0.75483   0.00000  Uiso   1.00
F897   F     0.12595   0.80874   0.60821   0.00000  Uiso   1.00
F898   F     0.18480   0.87818   0.89918   0.00000  Uiso   1.00
F899   F     0.32509   0.70595   0.94473   0.00000  Uiso   1.00
F900   F     0.03797   0.90524   0.53776   0.00000  Uiso   1.00
F901   F     0.11222   0.72937   0.56397   0.00000  Uiso   1.00
F902   F     0.27223   0.84632   0.90861   0.00000  Uiso   1.00
H903   H     0.31812   0.71722   0.51982   0.00000  Uiso   1.00
H904   H     0.04939   0.86626   0.97013   0.00000  Uiso   1.00
H905   H     0.04318   0.89977   0.60975   0.00000  Uiso   1.00
H906   H     0.33236   0.77902   0.85551   0.00000  Uiso   1.00
H907   H     0.24456   0.99501   0.79642   0.00000  Uiso   1.00
H908   H     0.08870   0.67166   0.70368   0.00000  Uiso   1.00
H909   H     0.30412   0.89557   0.80893   0.00000  Uiso   1.00
H910   H     0.02907   0.77084   0.69126   0.00000  Uiso   1.00
N911   N     0.31506   0.84735   0.76212   0.00000  Uiso   1.00
N912   N     0.01827   0.81932   0.73788   0.00000  Uiso   1.00
O913   O     0.12815   0.90476   0.74686   0.00000  Uiso   1.00
O914   O     0.02077   0.88082   0.95757   0.00000  Uiso   1.00
O915   O     0.33286   0.88678   0.62736   0.00000  Uiso   1.00
O916   O     0.00941   0.74955   0.86778   0.00000  Uiso   1.00
O917   O     0.22496   0.68506   0.78366   0.00000  Uiso   1.00
O918   O     0.10825   0.98160   0.71648   0.00000  Uiso   1.00
O919   O     0.00505   0.87789   0.79322   0.00000  Uiso   1.00
O920   O     0.32821   0.78866   0.70687   0.00000  Uiso   1.00
O921   O     0.20518   0.76191   0.75314   0.00000  Uiso   1.00
O922   O     0.22829   0.91420   0.75502   0.00000  Uiso   1.00
O923   O     0.10504   0.75247   0.74498   0.00000  Uiso   1.00
O924   O     0.08851   0.82597   0.80855   0.00000  Uiso   1.00
O925   O     0.24482   0.84070   0.69145   0.00000  Uiso   1.00
O926   O     0.18866   0.83540   0.81671   0.00000  Uiso   1.00
O927   O     0.14468   0.83126   0.68329   0.00000  Uiso   1.00
O928   O     0.02238   0.70316   0.51956   0.00000  Uiso   1.00
C929   C     0.51422   0.93322   0.75260   0.00000  Uiso   1.00
C930   C     0.53870   0.83773   0.66652   0.00000  Uiso   1.00
C931   C     0.43744   0.81191   0.87986   0.00000  Uiso   1.00
C932   C     0.56340   0.84171   0.61795   0.00000  Uiso   1.00
C933   C     0.37484   0.74729   0.93409   0.00000  Uiso   1.00
C934   C     0.64720   0.87353   0.55362   0.00000  Uiso   1.00
C935   C     0.38445   0.77048   0.89366   0.00000  Uiso   1.00
C936   C     0.62666   0.86646   0.59956   0.00000  Uiso   1.00
C937   C     0.47747   0.83102   0.90818   0.00000  Uiso   1.00
C938   C     0.52246   0.82253   0.59002   0.00000  Uiso   1.00
C939   C     0.47233   0.80437   0.94674   0.00000  Uiso   1.00
C940   C     0.48574   0.73344   0.74745   0.00000  Uiso   1.00
C941   C     0.54490   0.82293   0.54363   0.00000  Uiso   1.00
C942   C     0.41742   0.76446   0.96157   0.00000  Uiso   1.00
C943   C     0.60711   0.85138   0.52523   0.00000  Uiso   1.00
C944   C     0.51942   0.81741   0.97156   0.00000  Uiso   1.00
C945   C     0.50462   0.79990   0.51525   0.00000  Uiso   1.00
C946   C     0.45195   0.75809   0.52829   0.00000  Uiso   1.00
C947   C     0.58262   0.84299   0.95305   0.00000  Uiso   1.00
C948   C     0.40793   0.74154   0.50274   0.00000  Uiso   1.00
C949   C     0.62644   0.85834   0.97896   0.00000  Uiso   1.00
C950   C     0.51869   0.98895   0.75857   0.00000  Uiso   1.00
C951   C     0.48122   0.67771   0.74155   0.00000  Uiso   1.00
C952   C     0.46113   0.82714   0.83318   0.00000  Uiso   1.00
Cu953  Cu    0.44071   0.82775   0.74516   0.00000  Uiso   1.00
Cu954  Cu    0.55929   0.83892   0.75483   0.00000  Uiso   1.00
F955   F     0.45928   0.80874   0.60821   0.00000  Uiso   1.00
F956   F     0.51813   0.87818   0.89918   0.00000  Uiso   1.00
F957   F     0.65842   0.70595   0.94473   0.00000  Uiso   1.00
F958   F     0.37130   0.90524   0.53776   0.00000  Uiso   1.00
F959   F     0.44555   0.72937   0.56397   0.00000  Uiso   1.00
F960   F     0.60556   0.84632   0.90861   0.00000  Uiso   1.00
H961   H     0.65145   0.71722   0.51982   0.00000  Uiso   1.00
H962   H     0.38273   0.86626   0.97013   0.00000  Uiso   1.00
H963   H     0.37651   0.89977   0.60975   0.00000  Uiso   1.00
H964   H     0.66569   0.77902   0.85551   0.00000  Uiso   1.00
H965   H     0.57789   0.99501   0.79642   0.00000  Uiso   1.00
H966   H     0.42203   0.67166   0.70368   0.00000  Uiso   1.00
H967   H     0.63745   0.89557   0.80893   0.00000  Uiso   1.00
H968   H     0.36240   0.77084   0.69126   0.00000  Uiso   1.00
N969   N     0.64839   0.84735   0.76212   0.00000  Uiso   1.00
N970   N     0.35161   0.81932   0.73788   0.00000  Uiso   1.00
O971   O     0.46148   0.90476   0.74686   0.00000  Uiso   1.00
O972   O     0.35411   0.88082   0.95757   0.00000  Uiso   1.00
O973   O     0.66619   0.88678   0.62736   0.00000  Uiso   1.00
O974   O     0.34275   0.74955   0.86778   0.00000  Uiso   1.00
O975   O     0.55829   0.68506   0.78366   0.00000  Uiso   1.00
O976   O     0.44159   0.98160   0.71648   0.00000  Uiso   1.00
O977   O     0.33838   0.87789   0.79322   0.00000  Uiso   1.00
O978   O     0.66154   0.78866   0.70687   0.00000  Uiso   1.00
O979   O     0.53852   0.76191   0.75314   0.00000  Uiso   1.00
O980   O     0.56163   0.91420   0.75502   0.00000  Uiso   1.00
O981   O     0.43837   0.75247   0.74498   0.00000  Uiso   1.00
O982   O     0.42185   0.82597   0.80855   0.00000  Uiso   1.00
O983   O     0.57815   0.84070   0.69145   0.00000  Uiso   1.00
O984   O     0.52199   0.83540   0.81671   0.00000  Uiso   1.00
O985   O     0.47801   0.83126   0.68329   0.00000  Uiso   1.00
O986   O     0.35571   0.70316   0.51956   0.00000  Uiso   1.00
C987   C     0.84756   0.93322   0.75260   0.00000  Uiso   1.00
C988   C     0.87203   0.83773   0.66652   0.00000  Uiso   1.00
C989   C     0.77077   0.81191   0.87986   0.00000  Uiso   1.00
C990   C     0.89674   0.84171   0.61795   0.00000  Uiso   1.00
C991   C     0.70818   0.74729   0.93409   0.00000  Uiso   1.00
C992   C     0.98053   0.87353   0.55362   0.00000  Uiso   1.00
C993   C     0.71778   0.77048   0.89366   0.00000  Uiso   1.00
C994   C     0.95999   0.86646   0.59956   0.00000  Uiso   1.00
C995   C     0.81081   0.83102   0.90818   0.00000  Uiso   1.00
C996   C     0.85579   0.82253   0.59002   0.00000  Uiso   1.00
C997   C     0.80567   0.80437   0.94674   0.00000  Uiso   1.00
C998   C     0.81908   0.73344   0.74745   0.00000  Uiso   1.00
C999   C     0.87823   0.82293   0.54363   0.00000  Uiso   1.00
C1000  C     0.75075   0.76446   0.96157   0.00000  Uiso   1.00
C1001  C     0.94045   0.85138   0.52523   0.00000  Uiso   1.00
C1002  C     0.85276   0.81741   0.97156   0.00000  Uiso   1.00
C1003  C     0.83796   0.79990   0.51525   0.00000  Uiso   1.00
C1004  C     0.78528   0.75809   0.52829   0.00000  Uiso   1.00
C1005  C     0.91595   0.84299   0.95305   0.00000  Uiso   1.00
C1006  C     0.74127   0.74154   0.50274   0.00000  Uiso   1.00
C1007  C     0.95977   0.85834   0.97896   0.00000  Uiso   1.00
C1008  C     0.85203   0.98895   0.75857   0.00000  Uiso   1.00
C1009  C     0.81455   0.67771   0.74155   0.00000  Uiso   1.00
C1010  C     0.79447   0.82714   0.83318   0.00000  Uiso   1.00
Cu1011 Cu    0.77404   0.82775   0.74516   0.00000  Uiso   1.00
Cu1012 Cu    0.89263   0.83892   0.75483   0.00000  Uiso   1.00
F1013  F     0.79261   0.80874   0.60821   0.00000  Uiso   1.00
F1014  F     0.85146   0.87818   0.89918   0.00000  Uiso   1.00
F1015  F     0.99175   0.70595   0.94473   0.00000  Uiso   1.00
F1016  F     0.70464   0.90524   0.53776   0.00000  Uiso   1.00
F1017  F     0.77889   0.72937   0.56397   0.00000  Uiso   1.00
F1018  F     0.93890   0.84632   0.90861   0.00000  Uiso   1.00
H1019  H     0.98478   0.71722   0.51982   0.00000  Uiso   1.00
H1020  H     0.71606   0.86626   0.97013   0.00000  Uiso   1.00
H1021  H     0.70984   0.89977   0.60975   0.00000  Uiso   1.00
H1022  H     0.99903   0.77902   0.85551   0.00000  Uiso   1.00
H1023  H     0.91123   0.99501   0.79642   0.00000  Uiso   1.00
H1024  H     0.75536   0.67166   0.70368   0.00000  Uiso   1.00
H1025  H     0.97078   0.89557   0.80893   0.00000  Uiso   1.00
H1026  H     0.69573   0.77084   0.69126   0.00000  Uiso   1.00
N1027  N     0.98173   0.84735   0.76212   0.00000  Uiso   1.00
N1028  N     0.68494   0.81932   0.73788   0.00000  Uiso   1.00
O1029  O     0.79482   0.90476   0.74686   0.00000  Uiso   1.00
O1030  O     0.68744   0.88082   0.95757   0.00000  Uiso   1.00
O1031  O     0.99952   0.88678   0.62736   0.00000  Uiso   1.00
O1032  O     0.67608   0.74955   0.86778   0.00000  Uiso   1.00
O1033  O     0.89162   0.68506   0.78366   0.00000  Uiso   1.00
O1034  O     0.77492   0.98160   0.71648   0.00000  Uiso   1.00
O1035  O     0.67172   0.87789   0.79322   0.00000  Uiso   1.00
O1036  O     0.99488   0.78866   0.70687   0.00000  Uiso   1.00
O1037  O     0.87185   0.76191   0.75314   0.00000  Uiso   1.00
O1038  O     0.89496   0.91420   0.75502   0.00000  Uiso   1.00
O1039  O     0.77171   0.75247   0.74498   0.00000  Uiso   1.00
O1040  O     0.75518   0.82597   0.80855   0.00000  Uiso   1.00
O1041  O     0.91149   0.84070   0.69145   0.00000  Uiso   1.00
O1042  O     0.85532   0.83540   0.81671   0.00000  Uiso   1.00
O1043  O     0.81134   0.83126   0.68329   0.00000  Uiso   1.00
O1044  O     0.68904   0.70316   0.51956   0.00000  Uiso   1.00
loop_
_geom_bond_atom_site_label_1
_geom_bond_atom_site_label_2
_geom_bond_distance
_geom_bond_site_symmetry_2
_ccdc_geom_bond_type
C1     C22     1.441   .     S
C1     O52     1.293   .     A
C1     O43     1.289   .     A
C2     C4      1.484   .     S
C2     O57     1.303   .     A
C2     O55     1.304   .     A
C3     C9      1.399   .     A
C3     C7      1.415   .     A
C3     C24     1.478   .     S
C4     C8      1.409   .     A
C4     C10     1.404   .     A
C5     C14     1.414   .     A
C5     C7      1.396   .     A
C5     F145    1.358   1_455 S
C6     C8      1.408   .     A
C6     C15     1.416   .     A
C6     F88     1.359   .     S
C7     O46     1.377   .     S
C8     O45     1.384   .     S
C9     C11     1.412   .     A
C9     F28     1.360   .     S
C10    F27     1.359   .     S
C10    C13     1.411   .     A
C11    C14     1.423   .     A
C11    C16     1.425   .     A
C12    O53     1.293   .     A
C12    C23     1.441   .     S
C12    O51     1.289   .     A
C13    C17     1.424   .     A
C13    C15     1.420   .     A
C14    C542    1.414   .     S
C15    C543    1.417   1_554 S
C16    C19     1.415   .     A
C16    C539    1.413   .     S
C17    C18     1.413   .     A
C17    C538    1.413   1_554 S
C18    C20     1.392   .     A
C18    F31     1.359   .     S
C19    F32     1.358   .     S
C19    C21     1.394   .     A
C20    O58     1.376   .     S
C20    C536    1.414   1_554 S
C21    C537    1.417   .     S
C21    O102    1.376   .     S
C22    C197    1.351   .     S
C22    O221    1.389   .     S
C23    C370    1.351   1_545 S
C23    O396    1.389   1_545 S
C24    O56     1.302   .     A
C24    O54     1.301   .     A
Cu25   N42     2.023   .     S
Cu25   O43     1.965   .     S
Cu25   Cu26    2.693   .     S
Cu25   O57     1.906   .     S
Cu25   O53     1.963   .     S
Cu25   O54     1.922   .     S
Cu26   O52     1.963   .     S
Cu26   O55     1.922   .     S
Cu26   O51     1.965   .     S
Cu26   N41     2.023   .     S
Cu26   O56     1.906   .     S
F29    C63     1.358   .     S
F30    C122    1.359   1_455 S
H33    O116    0.991   .     S
H34    O44     0.988   .     S
H35    O161    0.990   1_455 S
H36    O104    0.989   .     S
H37    O221    0.991   .     S
H38    O396    0.991   1_545 S
H39    O107    0.990   .     S
H40    O166    0.990   1_455 S
N41    N100    1.286   .     S
N41    O107    1.338   .     S
N42    N157    1.286   1_455 S
N42    O166    1.338   1_455 S
O44    C137    1.376   1_455 S
O45    H93     0.990   .     S
O46    H152    0.989   1_455 S
O47    C370    1.389   1_545 S
O47    H385    0.991   1_545 S
O48    C197    1.389   .     S
O48    H212    0.991   .     S
O49    H155    0.990   1_455 S
O49    N157    1.338   1_455 S
O50    H98     0.990   .     S
O50    N100    1.338   .     S
O58    H149    0.991   1_455 S
C59    C80     1.441   .     S
C59    O110    1.293   .     A
C59    O101    1.289   .     A
C60    C62     1.484   .     S
C60    O115    1.303   .     A
C60    O113    1.304   .     A
C61    C67     1.399   .     A
C61    C65     1.415   .     A
C61    C82     1.478   .     S
C62    C66     1.409   .     A
C62    C68     1.404   .     A
C63    C72     1.414   .     A
C63    C65     1.396   .     A
C64    C66     1.408   .     A
C64    C73     1.416   .     A
C64    F146    1.359   .     S
C65    O104    1.377   .     S
C66    O103    1.384   .     S
C67    C69     1.412   .     A
C67    F86     1.360   .     S
C68    F85     1.359   .     S
C68    C71     1.411   .     A
C69    C72     1.423   .     A
C69    C74     1.425   .     A
C70    O111    1.293   .     A
C70    C81     1.441   .     S
C70    O109    1.289   .     A
C71    C75     1.424   .     A
C71    C73     1.420   .     A
C72    C600    1.414   .     S
C73    C601    1.417   1_554 S
C74    C77     1.415   .     A
C74    C597    1.413   .     S
C75    C76     1.413   .     A
C75    C596    1.413   1_554 S
C76    C78     1.392   .     A
C76    F89     1.359   .     S
C77    F90     1.358   .     S
C77    C79     1.394   .     A
C78    O116    1.376   .     S
C78    C594    1.414   1_554 S
C79    C595    1.417   .     S
C79    O160    1.376   .     S
C80    C255    1.351   .     S
C80    O279    1.389   .     S
C81    C428    1.351   1_545 S
C81    O454    1.389   1_545 S
C82    O114    1.302   .     A
C82    O112    1.301   .     A
Cu83   N100    2.023   .     S
Cu83   O101    1.965   .     S
Cu83   Cu84    2.693   .     S
Cu83   O115    1.906   .     S
Cu83   O111    1.963   .     S
Cu83   O112    1.922   .     S
Cu84   O110    1.963   .     S
Cu84   O113    1.922   .     S
Cu84   O109    1.965   .     S
Cu84   N99     2.023   .     S
Cu84   O114    1.906   .     S
F87    C121    1.358   .     S
H91    O174    0.991   .     S
H92    O102    0.988   .     S
H94    O162    0.989   .     S
H95    O279    0.991   .     S
H96    O454    0.991   1_545 S
H97    O165    0.990   .     S
N99    N158    1.286   .     S
N99    O165    1.338   .     S
O103   H151    0.990   .     S
O105   C428    1.389   1_545 S
O105   H443    0.991   1_545 S
O106   C255    1.389   .     S
O106   H270    0.991   .     S
O108   H156    0.990   .     S
O108   N158    1.338   .     S
C117   C138    1.441   .     S
C117   O168    1.293   .     A
C117   O159    1.289   .     A
C118   C120    1.484   .     S
C118   O173    1.303   .     A
C118   O171    1.304   .     A
C119   C125    1.399   .     A
C119   C123    1.415   .     A
C119   C140    1.478   .     S
C120   C124    1.409   .     A
C120   C126    1.404   .     A
C121   C130    1.414   .     A
C121   C123    1.396   .     A
C122   C124    1.408   .     A
C122   C131    1.416   .     A
C122   F30     1.359   1_655 S
C123   O162    1.377   .     S
C124   O161    1.384   .     S
C125   C127    1.412   .     A
C125   F144    1.360   .     S
C126   F143    1.359   .     S
C126   C129    1.411   .     A
C127   C130    1.423   .     A
C127   C132    1.425   .     A
C128   O169    1.293   .     A
C128   C139    1.441   .     S
C128   O167    1.289   .     A
C129   C133    1.424   .     A
C129   C131    1.420   .     A
C130   C658    1.414   .     S
C131   C659    1.417   1_554 S
C132   C135    1.415   .     A
C132   C655    1.413   .     S
C133   C134    1.413   .     A
C133   C654    1.413   1_554 S
C134   C136    1.392   .     A
C134   F147    1.359   .     S
C135   F148    1.358   .     S
C135   C137    1.394   .     A
C136   O174    1.376   .     S
C136   C652    1.414   1_554 S
C137   C653    1.417   .     S
C137   O44     1.376   1_655 S
C138   C313    1.351   .     S
C138   O337    1.389   .     S
C139   C486    1.351   1_545 S
C139   O512    1.389   1_545 S
C140   O172    1.302   .     A
C140   O170    1.301   .     A
Cu141  N158    2.023   .     S
Cu141  O159    1.965   .     S
Cu141  Cu142   2.693   .     S
Cu141  O173    1.906   .     S
Cu141  O169    1.963   .     S
Cu141  O170    1.922   .     S
Cu142  O168    1.963   .     S
Cu142  O171    1.922   .     S
Cu142  O167    1.965   .     S
Cu142  N157    2.023   .     S
Cu142  O172    1.906   .     S
F145   C5      1.358   1_655 S
H149   O58     0.991   1_655 S
H150   O160    0.988   .     S
H152   O46     0.989   1_655 S
H153   O337    0.991   .     S
H154   O512    0.991   1_545 S
H155   O49     0.990   1_655 S
N157   N42     1.286   1_655 S
N157   O49     1.338   1_655 S
O161   H35     0.990   1_655 S
O163   C486    1.389   1_545 S
O163   H501    0.991   1_545 S
O164   C313    1.389   .     S
O164   H328    0.991   .     S
O166   H40     0.990   1_655 S
O166   N42     1.338   1_655 S
C175   C196    1.441   .     S
C175   O226    1.293   .     A
C175   O217    1.289   .     A
C176   C178    1.484   .     S
C176   O231    1.303   .     A
C176   O229    1.304   .     A
C177   C183    1.399   .     A
C177   C181    1.415   .     A
C177   C198    1.478   .     S
C178   C182    1.409   .     A
C178   C184    1.404   .     A
C179   C188    1.414   .     A
C179   C181    1.396   .     A
C179   F319    1.358   1_455 S
C180   C182    1.408   .     A
C180   C189    1.416   .     A
C180   F262    1.359   .     S
C181   O220    1.377   .     S
C182   O219    1.384   .     S
C183   C185    1.412   .     A
C183   F202    1.360   .     S
C184   F201    1.359   .     S
C184   C187    1.411   .     A
C185   C188    1.423   .     A
C185   C190    1.425   .     A
C186   O227    1.293   .     A
C186   C197    1.441   .     S
C186   O225    1.289   .     A
C187   C191    1.424   .     A
C187   C189    1.420   .     A
C188   C716    1.414   .     S
C189   C717    1.417   1_554 S
C190   C193    1.415   .     A
C190   C713    1.413   .     S
C191   C192    1.413   .     A
C191   C712    1.413   1_554 S
C192   C194    1.392   .     A
C192   F205    1.359   .     S
C193   F206    1.358   .     S
C193   C195    1.394   .     A
C194   O232    1.376   .     S
C194   C710    1.414   1_554 S
C195   C711    1.417   .     S
C195   O276    1.376   .     S
C196   C371    1.351   .     S
C196   O395    1.389   .     S
C198   O230    1.302   .     A
C198   O228    1.301   .     A
Cu199  N216    2.023   .     S
Cu199  O217    1.965   .     S
Cu199  Cu200   2.693   .     S
Cu199  O231    1.906   .     S
Cu199  O227    1.963   .     S
Cu199  O228    1.922   .     S
Cu200  O226    1.963   .     S
Cu200  O229    1.922   .     S
Cu200  O225    1.965   .     S
Cu200  N215    2.023   .     S
Cu200  O230    1.906   .     S
F203   C237    1.358   .     S
F204   C296    1.359   1_455 S
H207   O290    0.991   .     S
H208   O218    0.988   .     S
H209   O335    0.990   1_455 S
H210   O278    0.989   .     S
H211   O395    0.991   .     S
H213   O281    0.990   .     S
H214   O340    0.990   1_455 S
N215   N274    1.286   .     S
N215   O281    1.338   .     S
N216   N331    1.286   1_455 S
N216   O340    1.338   1_455 S
O218   C311    1.376   1_455 S
O219   H267    0.990   .     S
O220   H326    0.989   1_455 S
O222   C371    1.389   .     S
O222   H386    0.991   .     S
O223   H329    0.990   1_455 S
O223   N331    1.338   1_455 S
O224   H272    0.990   .     S
O224   N274    1.338   .     S
O232   H323    0.991   1_455 S
C233   C254    1.441   .     S
C233   O284    1.293   .     A
C233   O275    1.289   .     A
C234   C236    1.484   .     S
C234   O289    1.303   .     A
C234   O287    1.304   .     A
C235   C241    1.399   .     A
C235   C239    1.415   .     A
C235   C256    1.478   .     S
C236   C240    1.409   .     A
C236   C242    1.404   .     A
C237   C246    1.414   .     A
C237   C239    1.396   .     A
C238   C240    1.408   .     A
C238   C247    1.416   .     A
C238   F320    1.359   .     S
C239   O278    1.377   .     S
C240   O277    1.384   .     S
C241   C243    1.412   .     A
C241   F260    1.360   .     S
C242   F259    1.359   .     S
C242   C245    1.411   .     A
C243   C246    1.423   .     A
C243   C248    1.425   .     A
C244   O285    1.293   .     A
C244   C255    1.441   .     S
C244   O283    1.289   .     A
C245   C249    1.424   .     A
C245   C247    1.420   .     A
C246   C774    1.414   .     S
C247   C775    1.417   1_554 S
C248   C251    1.415   .     A
C248   C771    1.413   .     S
C249   C250    1.413   .     A
C249   C770    1.413   1_554 S
C250   C252    1.392   .     A
C250   F263    1.359   .     S
C251   F264    1.358   .     S
C251   C253    1.394   .     A
C252   O290    1.376   .     S
C252   C768    1.414   1_554 S
C253   C769    1.417   .     S
C253   O334    1.376   .     S
C254   C429    1.351   .     S
C254   O453    1.389   .     S
C256   O288    1.302   .     A
C256   O286    1.301   .     A
Cu257  N274    2.023   .     S
Cu257  O275    1.965   .     S
Cu257  Cu258   2.693   .     S
Cu257  O289    1.906   .     S
Cu257  O285    1.963   .     S
Cu257  O286    1.922   .     S
Cu258  O284    1.963   .     S
Cu258  O287    1.922   .     S
Cu258  O283    1.965   .     S
Cu258  N273    2.023   .     S
Cu258  O288    1.906   .     S
F261   C295    1.358   .     S
H265   O348    0.991   .     S
H266   O276    0.988   .     S
H268   O336    0.989   .     S
H269   O453    0.991   .     S
H271   O339    0.990   .     S
N273   N332    1.286   .     S
N273   O339    1.338   .     S
O277   H325    0.990   .     S
O280   C429    1.389   .     S
O280   H444    0.991   .     S
O282   H330    0.990   .     S
O282   N332    1.338   .     S
C291   C312    1.441   .     S
C291   O342    1.293   .     A
C291   O333    1.289   .     A
C292   C294    1.484   .     S
C292   O347    1.303   .     A
C292   O345    1.304   .     A
C293   C299    1.399   .     A
C293   C297    1.415   .     A
C293   C314    1.478   .     S
C294   C298    1.409   .     A
C294   C300    1.404   .     A
C295   C304    1.414   .     A
C295   C297    1.396   .     A
C296   C298    1.408   .     A
C296   C305    1.416   .     A
C296   F204    1.359   1_655 S
C297   O336    1.377   .     S
C298   O335    1.384   .     S
C299   C301    1.412   .     A
C299   F318    1.360   .     S
C300   F317    1.359   .     S
C300   C303    1.411   .     A
C301   C304    1.423   .     A
C301   C306    1.425   .     A
C302   O343    1.293   .     A
C302   C313    1.441   .     S
C302   O341    1.289   .     A
C303   C307    1.424   .     A
C303   C305    1.420   .     A
C304   C832    1.414   .     S
C305   C833    1.417   1_554 S
C306   C309    1.415   .     A
C306   C829    1.413   .     S
C307   C308    1.413   .     A
C307   C828    1.413   1_554 S
C308   C310    1.392   .     A
C308   F321    1.359   .     S
C309   F322    1.358   .     S
C309   C311    1.394   .     A
C310   O348    1.376   .     S
C310   C826    1.414   1_554 S
C311   C827    1.417   .     S
C311   O218    1.376   1_655 S
C312   C487    1.351   .     S
C312   O511    1.389   .     S
C314   O346    1.302   .     A
C314   O344    1.301   .     A
Cu315  N332    2.023   .     S
Cu315  O333    1.965   .     S
Cu315  Cu316   2.693   .     S
Cu315  O347    1.906   .     S
Cu315  O343    1.963   .     S
Cu315  O344    1.922   .     S
Cu316  O342    1.963   .     S
Cu316  O345    1.922   .     S
Cu316  O341    1.965   .     S
Cu316  N331    2.023   .     S
Cu316  O346    1.906   .     S
F319   C179    1.358   1_655 S
H323   O232    0.991   1_655 S
H324   O334    0.988   .     S
H326   O220    0.989   1_655 S
H327   O511    0.991   .     S
H329   O223    0.990   1_655 S
N331   N216    1.286   1_655 S
N331   O223    1.338   1_655 S
O335   H209    0.990   1_655 S
O338   C487    1.389   .     S
O338   H502    0.991   .     S
O340   H214    0.990   1_655 S
O340   N216    1.338   1_655 S
C349   C370    1.441   .     S
C349   O400    1.293   .     A
C349   O391    1.289   .     A
C350   C352    1.484   .     S
C350   O405    1.303   .     A
C350   O403    1.304   .     A
C351   C357    1.399   .     A
C351   C355    1.415   .     A
C351   C372    1.478   .     S
C352   C356    1.409   .     A
C352   C358    1.404   .     A
C353   C362    1.414   .     A
C353   C355    1.396   .     A
C353   F493    1.358   1_455 S
C354   C356    1.408   .     A
C354   C363    1.416   .     A
C354   F436    1.359   .     S
C355   O394    1.377   .     S
C356   O393    1.384   .     S
C357   C359    1.412   .     A
C357   F376    1.360   .     S
C358   F375    1.359   .     S
C358   C361    1.411   .     A
C359   C362    1.423   .     A
C359   C364    1.425   .     A
C360   O401    1.293   .     A
C360   C371    1.441   .     S
C360   O399    1.289   .     A
C361   C365    1.424   .     A
C361   C363    1.420   .     A
C362   C890    1.414   .     S
C363   C891    1.417   1_554 S
C364   C367    1.415   .     A
C364   C887    1.413   .     S
C365   C366    1.413   .     A
C365   C886    1.413   1_554 S
C366   C368    1.392   .     A
C366   F379    1.359   .     S
C367   F380    1.358   .     S
C367   C369    1.394   .     A
C368   O406    1.376   .     S
C368   C884    1.414   1_554 S
C369   C885    1.417   .     S
C369   O450    1.376   .     S
C370   C23     1.351   1_565 S
C370   O47     1.389   1_565 S
C372   O404    1.302   .     A
C372   O402    1.301   .     A
Cu373  N390    2.023   .     S
Cu373  O391    1.965   .     S
Cu373  Cu374   2.693   .     S
Cu373  O405    1.906   .     S
Cu373  O401    1.963   .     S
Cu373  O402    1.922   .     S
Cu374  O400    1.963   .     S
Cu374  O403    1.922   .     S
Cu374  O399    1.965   .     S
Cu374  N389    2.023   .     S
Cu374  O404    1.906   .     S
F377   C411    1.358   .     S
F378   C470    1.359   1_455 S
H381   O464    0.991   .     S
H382   O392    0.988   .     S
H383   O509    0.990   1_455 S
H384   O452    0.989   .     S
H385   O47     0.991   1_565 S
H387   O455    0.990   .     S
H388   O514    0.990   1_455 S
N389   N448    1.286   .     S
N389   O455    1.338   .     S
N390   N505    1.286   1_455 S
N390   O514    1.338   1_455 S
O392   C485    1.376   1_455 S
O393   H441    0.990   .     S
O394   H500    0.989   1_455 S
O396   C23     1.389   1_565 S
O396   H38     0.991   1_565 S
O397   H503    0.990   1_455 S
O397   N505    1.338   1_455 S
O398   H446    0.990   .     S
O398   N448    1.338   .     S
O406   H497    0.991   1_455 S
C407   C428    1.441   .     S
C407   O458    1.293   .     A
C407   O449    1.289   .     A
C408   C410    1.484   .     S
C408   O463    1.303   .     A
C408   O461    1.304   .     A
C409   C415    1.399   .     A
C409   C413    1.415   .     A
C409   C430    1.478   .     S
C410   C414    1.409   .     A
C410   C416    1.404   .     A
C411   C420    1.414   .     A
C411   C413    1.396   .     A
C412   C414    1.408   .     A
C412   C421    1.416   .     A
C412   F494    1.359   .     S
C413   O452    1.377   .     S
C414   O451    1.384   .     S
C415   C417    1.412   .     A
C415   F434    1.360   .     S
C416   F433    1.359   .     S
C416   C419    1.411   .     A
C417   C420    1.423   .     A
C417   C422    1.425   .     A
C418   O459    1.293   .     A
C418   C429    1.441   .     S
C418   O457    1.289   .     A
C419   C423    1.424   .     A
C419   C421    1.420   .     A
C420   C948    1.414   .     S
C421   C949    1.417   1_554 S
C422   C425    1.415   .     A
C422   C945    1.413   .     S
C423   C424    1.413   .     A
C423   C944    1.413   1_554 S
C424   C426    1.392   .     A
C424   F437    1.359   .     S
C425   F438    1.358   .     S
C425   C427    1.394   .     A
C426   O464    1.376   .     S
C426   C942    1.414   1_554 S
C427   C943    1.417   .     S
C427   O508    1.376   .     S
C428   C81     1.351   1_565 S
C428   O105    1.389   1_565 S
C430   O462    1.302   .     A
C430   O460    1.301   .     A
Cu431  N448    2.023   .     S
Cu431  O449    1.965   .     S
Cu431  Cu432   2.693   .     S
Cu431  O463    1.906   .     S
Cu431  O459    1.963   .     S
Cu431  O460    1.922   .     S
Cu432  O458    1.963   .     S
Cu432  O461    1.922   .     S
Cu432  O457    1.965   .     S
Cu432  N447    2.023   .     S
Cu432  O462    1.906   .     S
F435   C469    1.358   .     S
H439   O522    0.991   .     S
H440   O450    0.988   .     S
H442   O510    0.989   .     S
H443   O105    0.991   1_565 S
H445   O513    0.990   .     S
N447   N506    1.286   .     S
N447   O513    1.338   .     S
O451   H499    0.990   .     S
O454   C81     1.389   1_565 S
O454   H96     0.991   1_565 S
O456   H504    0.990   .     S
O456   N506    1.338   .     S
C465   C486    1.441   .     S
C465   O516    1.293   .     A
C465   O507    1.289   .     A
C466   C468    1.484   .     S
C466   O521    1.303   .     A
C466   O519    1.304   .     A
C467   C473    1.399   .     A
C467   C471    1.415   .     A
C467   C488    1.478   .     S
C468   C472    1.409   .     A
C468   C474    1.404   .     A
C469   C478    1.414   .     A
C469   C471    1.396   .     A
C470   C472    1.408   .     A
C470   C479    1.416   .     A
C470   F378    1.359   1_655 S
C471   O510    1.377   .     S
C472   O509    1.384   .     S
C473   C475    1.412   .     A
C473   F492    1.360   .     S
C474   F491    1.359   .     S
C474   C477    1.411   .     A
C475   C478    1.423   .     A
C475   C480    1.425   .     A
C476   O517    1.293   .     A
C476   C487    1.441   .     S
C476   O515    1.289   .     A
C477   C481    1.424   .     A
C477   C479    1.420   .     A
C478   C1006   1.414   .     S
C479   C1007   1.417   1_554 S
C480   C483    1.415   .     A
C480   C1003   1.413   .     S
C481   C482    1.413   .     A
C481   C1002   1.413   1_554 S
C482   C484    1.392   .     A
C482   F495    1.359   .     S
C483   F496    1.358   .     S
C483   C485    1.394   .     A
C484   O522    1.376   .     S
C484   C1000   1.414   1_554 S
C485   C1001   1.417   .     S
C485   O392    1.376   1_655 S
C486   C139    1.351   1_565 S
C486   O163    1.389   1_565 S
C488   O520    1.302   .     A
C488   O518    1.301   .     A
Cu489  N506    2.023   .     S
Cu489  O507    1.965   .     S
Cu489  Cu490   2.693   .     S
Cu489  O521    1.906   .     S
Cu489  O517    1.963   .     S
Cu489  O518    1.922   .     S
Cu490  O516    1.963   .     S
Cu490  O519    1.922   .     S
Cu490  O515    1.965   .     S
Cu490  N505    2.023   .     S
Cu490  O520    1.906   .     S
F493   C353    1.358   1_655 S
H497   O406    0.991   1_655 S
H498   O508    0.988   .     S
H500   O394    0.989   1_655 S
H501   O163    0.991   1_565 S
H503   O397    0.990   1_655 S
N505   N390    1.286   1_655 S
N505   O397    1.338   1_655 S
O509   H383    0.990   1_655 S
O512   C139    1.389   1_565 S
O512   H154    0.991   1_565 S
O514   H388    0.990   1_655 S
O514   N390    1.338   1_655 S
C523   C544    1.441   .     S
C523   O574    1.293   .     A
C523   O565    1.289   .     A
C524   C526    1.484   .     S
C524   O579    1.303   .     A
C524   O577    1.304   .     A
C525   C531    1.399   .     A
C525   C529    1.415   .     A
C525   C546    1.478   .     S
C526   C530    1.409   .     A
C526   C532    1.404   .     A
C527   C536    1.414   .     A
C527   C529    1.396   .     A
C527   F667    1.358   1_455 S
C528   C530    1.408   .     A
C528   C537    1.416   .     A
C528   F610    1.359   .     S
C529   O568    1.377   .     S
C530   O567    1.384   .     S
C531   C533    1.412   .     A
C531   F550    1.360   .     S
C532   F549    1.359   .     S
C532   C535    1.411   .     A
C533   C536    1.423   .     A
C533   C538    1.425   .     A
C534   O575    1.293   .     A
C534   C545    1.441   .     S
C534   O573    1.289   .     A
C535   C539    1.424   .     A
C535   C537    1.420   .     A
C536   C20     1.414   1_556 S
C538   C541    1.415   .     A
C538   C17     1.413   1_556 S
C539   C540    1.413   .     A
C540   C542    1.392   .     A
C540   F553    1.359   .     S
C541   F554    1.358   .     S
C541   C543    1.394   .     A
C542   O580    1.376   .     S
C543   C15     1.417   1_556 S
C543   O624    1.376   .     S
C544   C719    1.351   .     S
C544   O743    1.389   .     S
C545   C892    1.351   1_545 S
C545   O918    1.389   1_545 S
C546   O578    1.302   .     A
C546   O576    1.301   .     A
Cu547  N564    2.023   .     S
Cu547  O565    1.965   .     S
Cu547  Cu548   2.693   .     S
Cu547  O579    1.906   .     S
Cu547  O575    1.963   .     S
Cu547  O576    1.922   .     S
Cu548  O574    1.963   .     S
Cu548  O577    1.922   .     S
Cu548  O573    1.965   .     S
Cu548  N563    2.023   .     S
Cu548  O578    1.906   .     S
F551   C585    1.358   .     S
F552   C644    1.359   1_455 S
H555   O638    0.991   .     S
H556   O566    0.988   .     S
H557   O683    0.990   1_455 S
H558   O626    0.989   .     S
H559   O743    0.991   .     S
H560   O918    0.991   1_545 S
H561   O629    0.990   .     S
H562   O688    0.990   1_455 S
N563   N622    1.286   .     S
N563   O629    1.338   .     S
N564   N679    1.286   1_455 S
N564   O688    1.338   1_455 S
O566   C659    1.376   1_455 S
O567   H615    0.990   .     S
O568   H674    0.989   1_455 S
O569   C892    1.389   1_545 S
O569   H907    0.991   1_545 S
O570   C719    1.389   .     S
O570   H734    0.991   .     S
O571   H677    0.990   1_455 S
O571   N679    1.338   1_455 S
O572   H620    0.990   .     S
O572   N622    1.338   .     S
O580   H671    0.991   1_455 S
C581   C602    1.441   .     S
C581   O632    1.293   .     A
C581   O623    1.289   .     A
C582   C584    1.484   .     S
C582   O637    1.303   .     A
C582   O635    1.304   .     A
C583   C589    1.399   .     A
C583   C587    1.415   .     A
C583   C604    1.478   .     S
C584   C588    1.409   .     A
C584   C590    1.404   .     A
C585   C594    1.414   .     A
C585   C587    1.396   .     A
C586   C588    1.408   .     A
C586   C595    1.416   .     A
C586   F668    1.359   .     S
C587   O626    1.377   .     S
C588   O625    1.384   .     S
C589   C591    1.412   .     A
C589   F608    1.360   .     S
C590   F607    1.359   .     S
C590   C593    1.411   .     A
C591   C594    1.423   .     A
C591   C596    1.425   .     A
C592   O633    1.293   .     A
C592   C603    1.441   .     S
C592   O631    1.289   .     A
C593   C597    1.424   .     A
C593   C595    1.420   .     A
C594   C78     1.414   1_556 S
C596   C599    1.415   .     A
C596   C75     1.413   1_556 S
C597   C598    1.413   .     A
C598   C600    1.392   .     A
C598   F611    1.359   .     S
C599   F612    1.358   .     S
C599   C601    1.394   .     A
C600   O638    1.376   .     S
C601   C73     1.417   1_556 S
C601   O682    1.376   .     S
C602   C777    1.351   .     S
C602   O801    1.389   .     S
C603   C950    1.351   1_545 S
C603   O976    1.389   1_545 S
C604   O636    1.302   .     A
C604   O634    1.301   .     A
Cu605  N622    2.023   .     S
Cu605  O623    1.965   .     S
Cu605  Cu606   2.693   .     S
Cu605  O637    1.906   .     S
Cu605  O633    1.963   .     S
Cu605  O634    1.922   .     S
Cu606  O632    1.963   .     S
Cu606  O635    1.922   .     S
Cu606  O631    1.965   .     S
Cu606  N621    2.023   .     S
Cu606  O636    1.906   .     S
F609   C643    1.358   .     S
H613   O696    0.991   .     S
H614   O624    0.988   .     S
H616   O684    0.989   .     S
H617   O801    0.991   .     S
H618   O976    0.991   1_545 S
H619   O687    0.990   .     S
N621   N680    1.286   .     S
N621   O687    1.338   .     S
O625   H673    0.990   .     S
O627   C950    1.389   1_545 S
O627   H965    0.991   1_545 S
O628   C777    1.389   .     S
O628   H792    0.991   .     S
O630   H678    0.990   .     S
O630   N680    1.338   .     S
C639   C660    1.441   .     S
C639   O690    1.293   .     A
C639   O681    1.289   .     A
C640   C642    1.484   .     S
C640   O695    1.303   .     A
C640   O693    1.304   .     A
C641   C647    1.399   .     A
C641   C645    1.415   .     A
C641   C662    1.478   .     S
C642   C646    1.409   .     A
C642   C648    1.404   .     A
C643   C652    1.414   .     A
C643   C645    1.396   .     A
C644   C646    1.408   .     A
C644   C653    1.416   .     A
C644   F552    1.359   1_655 S
C645   O684    1.377   .     S
C646   O683    1.384   .     S
C647   C649    1.412   .     A
C647   F666    1.360   .     S
C648   F665    1.359   .     S
C648   C651    1.411   .     A
C649   C652    1.423   .     A
C649   C654    1.425   .     A
C650   O691    1.293   .     A
C650   C661    1.441   .     S
C650   O689    1.289   .     A
C651   C655    1.424   .     A
C651   C653    1.420   .     A
C652   C136    1.414   1_556 S
C654   C657    1.415   .     A
C654   C133    1.413   1_556 S
C655   C656    1.413   .     A
C656   C658    1.392   .     A
C656   F669    1.359   .     S
C657   F670    1.358   .     S
C657   C659    1.394   .     A
C658   O696    1.376   .     S
C659   C131    1.417   1_556 S
C659   O566    1.376   1_655 S
C660   C835    1.351   .     S
C660   O859    1.389   .     S
C661   C1008   1.351   1_545 S
C661   O1034   1.389   1_545 S
C662   O694    1.302   .     A
C662   O692    1.301   .     A
Cu663  N680    2.023   .     S
Cu663  O681    1.965   .     S
Cu663  Cu664   2.693   .     S
Cu663  O695    1.906   .     S
Cu663  O691    1.963   .     S
Cu663  O692    1.922   .     S
Cu664  O690    1.963   .     S
Cu664  O693    1.922   .     S
Cu664  O689    1.965   .     S
Cu664  N679    2.023   .     S
Cu664  O694    1.906   .     S
F667   C527    1.358   1_655 S
H671   O580    0.991   1_655 S
H672   O682    0.988   .     S
H674   O568    0.989   1_655 S
H675   O859    0.991   .     S
H676   O1034   0.991   1_545 S
H677   O571    0.990   1_655 S
N679   N564    1.286   1_655 S
N679   O571    1.338   1_655 S
O683   H557    0.990   1_655 S
O685   C1008   1.389   1_545 S
O685   H1023   0.991   1_545 S
O686   C835    1.389   .     S
O686   H850    0.991   .     S
O688   H562    0.990   1_655 S
O688   N564    1.338   1_655 S
C697   C718    1.441   .     S
C697   O748    1.293   .     A
C697   O739    1.289   .     A
C698   C700    1.484   .     S
C698   O753    1.303   .     A
C698   O751    1.304   .     A
C699   C705    1.399   .     A
C699   C703    1.415   .     A
C699   C720    1.478   .     S
C700   C704    1.409   .     A
C700   C706    1.404   .     A
C701   C710    1.414   .     A
C701   C703    1.396   .     A
C701   F841    1.358   1_455 S
C702   C704    1.408   .     A
C702   C711    1.416   .     A
C702   F784    1.359   .     S
C703   O742    1.377   .     S
C704   O741    1.384   .     S
C705   C707    1.412   .     A
C705   F724    1.360   .     S
C706   F723    1.359   .     S
C706   C709    1.411   .     A
C707   C710    1.423   .     A
C707   C712    1.425   .     A
C708   O749    1.293   .     A
C708   C719    1.441   .     S
C708   O747    1.289   .     A
C709   C713    1.424   .     A
C709   C711    1.420   .     A
C710   C194    1.414   1_556 S
C712   C715    1.415   .     A
C712   C191    1.413   1_556 S
C713   C714    1.413   .     A
C714   C716    1.392   .     A
C714   F727    1.359   .     S
C715   F728    1.358   .     S
C715   C717    1.394   .     A
C716   O754    1.376   .     S
C717   C189    1.417   1_556 S
C717   O798    1.376   .     S
C718   C893    1.351   .     S
C718   O917    1.389   .     S
C720   O752    1.302   .     A
C720   O750    1.301   .     A
Cu721  N738    2.023   .     S
Cu721  O739    1.965   .     S
Cu721  Cu722   2.693   .     S
Cu721  O753    1.906   .     S
Cu721  O749    1.963   .     S
Cu721  O750    1.922   .     S
Cu722  O748    1.963   .     S
Cu722  O751    1.922   .     S
Cu722  O747    1.965   .     S
Cu722  N737    2.023   .     S
Cu722  O752    1.906   .     S
F725   C759    1.358   .     S
F726   C818    1.359   1_455 S
H729   O812    0.991   .     S
H730   O740    0.988   .     S
H731   O857    0.990   1_455 S
H732   O800    0.989   .     S
H733   O917    0.991   .     S
H735   O803    0.990   .     S
H736   O862    0.990   1_455 S
N737   N796    1.286   .     S
N737   O803    1.338   .     S
N738   N853    1.286   1_455 S
N738   O862    1.338   1_455 S
O740   C833    1.376   1_455 S
O741   H789    0.990   .     S
O742   H848    0.989   1_455 S
O744   C893    1.389   .     S
O744   H908    0.991   .     S
O745   H851    0.990   1_455 S
O745   N853    1.338   1_455 S
O746   H794    0.990   .     S
O746   N796    1.338   .     S
O754   H845    0.991   1_455 S
C755   C776    1.441   .     S
C755   O806    1.293   .     A
C755   O797    1.289   .     A
C756   C758    1.484   .     S
C756   O811    1.303   .     A
C756   O809    1.304   .     A
C757   C763    1.399   .     A
C757   C761    1.415   .     A
C757   C778    1.478   .     S
C758   C762    1.409   .     A
C758   C764    1.404   .     A
C759   C768    1.414   .     A
C759   C761    1.396   .     A
C760   C762    1.408   .     A
C760   C769    1.416   .     A
C760   F842    1.359   .     S
C761   O800    1.377   .     S
C762   O799    1.384   .     S
C763   C765    1.412   .     A
C763   F782    1.360   .     S
C764   F781    1.359   .     S
C764   C767    1.411   .     A
C765   C768    1.423   .     A
C765   C770    1.425   .     A
C766   O807    1.293   .     A
C766   C777    1.441   .     S
C766   O805    1.289   .     A
C767   C771    1.424   .     A
C767   C769    1.420   .     A
C768   C252    1.414   1_556 S
C770   C773    1.415   .     A
C770   C249    1.413   1_556 S
C771   C772    1.413   .     A
C772   C774    1.392   .     A
C772   F785    1.359   .     S
C773   F786    1.358   .     S
C773   C775    1.394   .     A
C774   O812    1.376   .     S
C775   C247    1.417   1_556 S
C775   O856    1.376   .     S
C776   C951    1.351   .     S
C776   O975    1.389   .     S
C778   O810    1.302   .     A
C778   O808    1.301   .     A
Cu779  N796    2.023   .     S
Cu779  O797    1.965   .     S
Cu779  Cu780   2.693   .     S
Cu779  O811    1.906   .     S
Cu779  O807    1.963   .     S
Cu779  O808    1.922   .     S
Cu780  O806    1.963   .     S
Cu780  O809    1.922   .     S
Cu780  O805    1.965   .     S
Cu780  N795    2.023   .     S
Cu780  O810    1.906   .     S
F783   C817    1.358   .     S
H787   O870    0.991   .     S
H788   O798    0.988   .     S
H790   O858    0.989   .     S
H791   O975    0.991   .     S
H793   O861    0.990   .     S
N795   N854    1.286   .     S
N795   O861    1.338   .     S
O799   H847    0.990   .     S
O802   C951    1.389   .     S
O802   H966    0.991   .     S
O804   H852    0.990   .     S
O804   N854    1.338   .     S
C813   C834    1.441   .     S
C813   O864    1.293   .     A
C813   O855    1.289   .     A
C814   C816    1.484   .     S
C814   O869    1.303   .     A
C814   O867    1.304   .     A
C815   C821    1.399   .     A
C815   C819    1.415   .     A
C815   C836    1.478   .     S
C816   C820    1.409   .     A
C816   C822    1.404   .     A
C817   C826    1.414   .     A
C817   C819    1.396   .     A
C818   C820    1.408   .     A
C818   C827    1.416   .     A
C818   F726    1.359   1_655 S
C819   O858    1.377   .     S
C820   O857    1.384   .     S
C821   C823    1.412   .     A
C821   F840    1.360   .     S
C822   F839    1.359   .     S
C822   C825    1.411   .     A
C823   C826    1.423   .     A
C823   C828    1.425   .     A
C824   O865    1.293   .     A
C824   C835    1.441   .     S
C824   O863    1.289   .     A
C825   C829    1.424   .     A
C825   C827    1.420   .     A
C826   C310    1.414   1_556 S
C828   C831    1.415   .     A
C828   C307    1.413   1_556 S
C829   C830    1.413   .     A
C830   C832    1.392   .     A
C830   F843    1.359   .     S
C831   F844    1.358   .     S
C831   C833    1.394   .     A
C832   O870    1.376   .     S
C833   C305    1.417   1_556 S
C833   O740    1.376   1_655 S
C834   C1009   1.351   .     S
C834   O1033   1.389   .     S
C836   O868    1.302   .     A
C836   O866    1.301   .     A
Cu837  N854    2.023   .     S
Cu837  O855    1.965   .     S
Cu837  Cu838   2.693   .     S
Cu837  O869    1.906   .     S
Cu837  O865    1.963   .     S
Cu837  O866    1.922   .     S
Cu838  O864    1.963   .     S
Cu838  O867    1.922   .     S
Cu838  O863    1.965   .     S
Cu838  N853    2.023   .     S
Cu838  O868    1.906   .     S
F841   C701    1.358   1_655 S
H845   O754    0.991   1_655 S
H846   O856    0.988   .     S
H848   O742    0.989   1_655 S
H849   O1033   0.991   .     S
H851   O745    0.990   1_655 S
N853   N738    1.286   1_655 S
N853   O745    1.338   1_655 S
O857   H731    0.990   1_655 S
O860   C1009   1.389   .     S
O860   H1024   0.991   .     S
O862   H736    0.990   1_655 S
O862   N738    1.338   1_655 S
C871   C892    1.441   .     S
C871   O922    1.293   .     A
C871   O913    1.289   .     A
C872   C874    1.484   .     S
C872   O927    1.303   .     A
C872   O925    1.304   .     A
C873   C879    1.399   .     A
C873   C877    1.415   .     A
C873   C894    1.478   .     S
C874   C878    1.409   .     A
C874   C880    1.404   .     A
C875   C884    1.414   .     A
C875   C877    1.396   .     A
C875   F1015   1.358   1_455 S
C876   C878    1.408   .     A
C876   C885    1.416   .     A
C876   F958    1.359   .     S
C877   O916    1.377   .     S
C878   O915    1.384   .     S
C879   C881    1.412   .     A
C879   F898    1.360   .     S
C880   F897    1.359   .     S
C880   C883    1.411   .     A
C881   C884    1.423   .     A
C881   C886    1.425   .     A
C882   O923    1.293   .     A
C882   C893    1.441   .     S
C882   O921    1.289   .     A
C883   C887    1.424   .     A
C883   C885    1.420   .     A
C884   C368    1.414   1_556 S
C886   C889    1.415   .     A
C886   C365    1.413   1_556 S
C887   C888    1.413   .     A
C888   C890    1.392   .     A
C888   F901    1.359   .     S
C889   F902    1.358   .     S
C889   C891    1.394   .     A
C890   O928    1.376   .     S
C891   C363    1.417   1_556 S
C891   O972    1.376   .     S
C892   C545    1.351   1_565 S
C892   O569    1.389   1_565 S
C894   O926    1.302   .     A
C894   O924    1.301   .     A
Cu895  N912    2.023   .     S
Cu895  O913    1.965   .     S
Cu895  Cu896   2.693   .     S
Cu895  O927    1.906   .     S
Cu895  O923    1.963   .     S
Cu895  O924    1.922   .     S
Cu896  O922    1.963   .     S
Cu896  O925    1.922   .     S
Cu896  O921    1.965   .     S
Cu896  N911    2.023   .     S
Cu896  O926    1.906   .     S
F899   C933    1.358   .     S
F900   C992    1.359   1_455 S
H903   O986    0.991   .     S
H904   O914    0.988   .     S
H905   O1031   0.990   1_455 S
H906   O974    0.989   .     S
H907   O569    0.991   1_565 S
H909   O977    0.990   .     S
H910   O1036   0.990   1_455 S
N911   N970    1.286   .     S
N911   O977    1.338   .     S
N912   N1027   1.286   1_455 S
N912   O1036   1.338   1_455 S
O914   C1007   1.376   1_455 S
O915   H963    0.990   .     S
O916   H1022   0.989   1_455 S
O918   C545    1.389   1_565 S
O918   H560    0.991   1_565 S
O919   H1025   0.990   1_455 S
O919   N1027   1.338   1_455 S
O920   H968    0.990   .     S
O920   N970    1.338   .     S
O928   H1019   0.991   1_455 S
C929   C950    1.441   .     S
C929   O980    1.293   .     A
C929   O971    1.289   .     A
C930   C932    1.484   .     S
C930   O985    1.303   .     A
C930   O983    1.304   .     A
C931   C937    1.399   .     A
C931   C935    1.415   .     A
C931   C952    1.478   .     S
C932   C936    1.409   .     A
C932   C938    1.404   .     A
C933   C942    1.414   .     A
C933   C935    1.396   .     A
C934   C936    1.408   .     A
C934   C943    1.416   .     A
C934   F1016   1.359   .     S
C935   O974    1.377   .     S
C936   O973    1.384   .     S
C937   C939    1.412   .     A
C937   F956    1.360   .     S
C938   F955    1.359   .     S
C938   C941    1.411   .     A
C939   C942    1.423   .     A
C939   C944    1.425   .     A
C940   O981    1.293   .     A
C940   C951    1.441   .     S
C940   O979    1.289   .     A
C941   C945    1.424   .     A
C941   C943    1.420   .     A
C942   C426    1.414   1_556 S
C944   C947    1.415   .     A
C944   C423    1.413   1_556 S
C945   C946    1.413   .     A
C946   C948    1.392   .     A
C946   F959    1.359   .     S
C947   F960    1.358   .     S
C947   C949    1.394   .     A
C948   O986    1.376   .     S
C949   C421    1.417   1_556 S
C949   O1030   1.376   .     S
C950   C603    1.351   1_565 S
C950   O627    1.389   1_565 S
C952   O984    1.302   .     A
C952   O982    1.301   .     A
Cu953  N970    2.023   .     S
Cu953  O971    1.965   .     S
Cu953  Cu954   2.693   .     S
Cu953  O985    1.906   .     S
Cu953  O981    1.963   .     S
Cu953  O982    1.922   .     S
Cu954  O980    1.963   .     S
Cu954  O983    1.922   .     S
Cu954  O979    1.965   .     S
Cu954  N969    2.023   .     S
Cu954  O984    1.906   .     S
F957   C991    1.358   .     S
H961   O1044   0.991   .     S
H962   O972    0.988   .     S
H964   O1032   0.989   .     S
H965   O627    0.991   1_565 S
H967   O1035   0.990   .     S
N969   N1028   1.286   .     S
N969   O1035   1.338   .     S
O973   H1021   0.990   .     S
O976   C603    1.389   1_565 S
O976   H618    0.991   1_565 S
O978   H1026   0.990   .     S
O978   N1028   1.338   .     S
C987   C1008   1.441   .     S
C987   O1038   1.293   .     A
C987   O1029   1.289   .     A
C988   C990    1.484   .     S
C988   O1043   1.303   .     A
C988   O1041   1.304   .     A
C989   C995    1.399   .     A
C989   C993    1.415   .     A
C989   C1010   1.478   .     S
C990   C994    1.409   .     A
C990   C996    1.404   .     A
C991   C1000   1.414   .     A
C991   C993    1.396   .     A
C992   C994    1.408   .     A
C992   C1001   1.416   .     A
C992   F900    1.359   1_655 S
C993   O1032   1.377   .     S
C994   O1031   1.384   .     S
C995   C997    1.412   .     A
C995   F1014   1.360   .     S
C996   F1013   1.359   .     S
C996   C999    1.411   .     A
C997   C1000   1.423   .     A
C997   C1002   1.425   .     A
C998   O1039   1.293   .     A
C998   C1009   1.441   .     S
C998   O1037   1.289   .     A
C999   C1003   1.424   .     A
C999   C1001   1.420   .     A
C1000  C484    1.414   1_556 S
C1002  C1005   1.415   .     A
C1002  C481    1.413   1_556 S
C1003  C1004   1.413   .     A
C1004  C1006   1.392   .     A
C1004  F1017   1.359   .     S
C1005  F1018   1.358   .     S
C1005  C1007   1.394   .     A
C1006  O1044   1.376   .     S
C1007  C479    1.417   1_556 S
C1007  O914    1.376   1_655 S
C1008  C661    1.351   1_565 S
C1008  O685    1.389   1_565 S
C1010  O1042   1.302   .     A
C1010  O1040   1.301   .     A
Cu1011 N1028   2.023   .     S
Cu1011 O1029   1.965   .     S
Cu1011 Cu1012  2.693   .     S
Cu1011 O1043   1.906   .     S
Cu1011 O1039   1.963   .     S
Cu1011 O1040   1.922   .     S
Cu1012 O1038   1.963   .     S
Cu1012 O1041   1.922   .     S
Cu1012 O1037   1.965   .     S
Cu1012 N1027   2.023   .     S
Cu1012 O1042   1.906   .     S
F1015  C875    1.358   1_655 S
H1019  O928    0.991   1_655 S
H1020  O1030   0.988   .     S
H1022  O916    0.989   1_655 S
H1023  O685    0.991   1_565 S
H1025  O919    0.990   1_655 S
N1027  N912    1.286   1_655 S
N1027  O919    1.338   1_655 S
O1031  H905    0.990   1_655 S
O1034  C661    1.389   1_565 S
O1034  H676    0.991   1_565 S
O1036  H910    0.990   1_655 S
O1036  N912    1.338   1_655 S
