data_str_m1_o1_o17_pcu_sym.125
_audit_creation_date              2020-01-03
_audit_creation_method            'Materials Studio'
_symmetry_space_group_name_H-M    'P1'
_symmetry_Int_Tables_number       1
_symmetry_cell_setting            triclinic
loop_
_symmetry_equiv_pos_as_xyz
  x,y,z
_cell_length_a                    36.6765
_cell_length_b                    36.6764
_cell_length_c                    34.4056
_cell_angle_alpha                 89.9991
_cell_angle_beta                  89.9999
_cell_angle_gamma                 90.0434
loop_
_atom_site_label
_atom_site_type_symbol
_atom_site_fract_x
_atom_site_fract_y
_atom_site_fract_z
_atom_site_U_iso_or_equiv
_atom_site_adp_type
_atom_site_occupancy
C1     C     0.49927   0.28328   0.41769   0.00000  Uiso   1.00
C2     C     0.24644   0.46685   0.08214   0.00000  Uiso   1.00
C3     C     0.21649   0.49688   0.54135   0.00000  Uiso   1.00
C4     C     0.00309   0.28350   0.45865   0.00000  Uiso   1.00
C5     C     0.49478   0.21669   0.54102   0.00000  Uiso   1.00
C6     C     0.21670   0.49473   0.45898   0.00000  Uiso   1.00
C7     C     0.28350   0.00313   0.54135   0.00000  Uiso   1.00
C8     C     0.24690   0.46649   0.95865   0.00000  Uiso   1.00
C9     C     0.25525   0.03330   0.04102   0.00000  Uiso   1.00
C10    C     0.03331   0.25522   0.95898   0.00000  Uiso   1.00
C11    C     0.46650   0.24691   0.04135   0.00000  Uiso   1.00
C12    C     0.25310   0.03350   0.95865   0.00000  Uiso   1.00
C13    C     0.46685   0.24646   0.91786   0.00000  Uiso   1.00
C14    C     0.24475   0.46670   0.04102   0.00000  Uiso   1.00
C15    C     0.46671   0.24476   0.95898   0.00000  Uiso   1.00
C16    C     0.03351   0.25308   0.04136   0.00000  Uiso   1.00
C17    C     0.09812   0.34812   0.25000   0.00000  Uiso   1.00
C18    C     0.40193   0.15193   0.75000   0.00000  Uiso   1.00
C19    C     0.15186   0.09814   0.25000   0.00000  Uiso   1.00
C20    C     0.34805   0.40195   0.75000   0.00000  Uiso   1.00
C21    C     0.40188   0.15188   0.25000   0.00000  Uiso   1.00
C22    C     0.09807   0.34807   0.75000   0.00000  Uiso   1.00
C23    C     0.34814   0.40186   0.25000   0.00000  Uiso   1.00
C24    C     0.03329   0.24926   0.08231   0.00000  Uiso   1.00
C25    C     0.15195   0.09806   0.75000   0.00000  Uiso   1.00
C26    C     0.09814   0.15186   0.75000   0.00000  Uiso   1.00
C27    C     0.40195   0.34806   0.25000   0.00000  Uiso   1.00
C28    C     0.15188   0.40188   0.75000   0.00000  Uiso   1.00
C29    C     0.34807   0.09807   0.25000   0.00000  Uiso   1.00
C30    C     0.40186   0.34814   0.75000   0.00000  Uiso   1.00
C31    C     0.09805   0.15195   0.25000   0.00000  Uiso   1.00
C32    C     0.34812   0.09812   0.75000   0.00000  Uiso   1.00
C33    C     0.15193   0.40193   0.25000   0.00000  Uiso   1.00
C34    C     0.00001   0.25000   0.47928   0.00000  Uiso   1.00
C35    C     0.25072   0.46671   0.91769   0.00000  Uiso   1.00
C36    C     0.00001   0.25000   0.52046   0.00000  Uiso   1.00
C37    C     0.25000   0.00001   0.47954   0.00000  Uiso   1.00
C38    C     0.25000   0.00001   0.52072   0.00000  Uiso   1.00
C39    C     0.25000  -0.00000   0.97928   0.00000  Uiso   1.00
C40    C     0.25000  -0.00000   0.02046   0.00000  Uiso   1.00
C41    C     0.00001   0.24999   0.97954   0.00000  Uiso   1.00
C42    C     0.00001   0.24999   0.02072   0.00000  Uiso   1.00
C43    C     0.02076   0.33079   0.37248   0.00000  Uiso   1.00
C44    C     0.03101   0.16710   0.60952   0.00000  Uiso   1.00
C45    C     0.16706   0.03092   0.39052   0.00000  Uiso   1.00
C46    C     0.25355   0.03315   0.08214   0.00000  Uiso   1.00
C47    C     0.33078   0.02082   0.62752   0.00000  Uiso   1.00
C48    C     0.47928   0.16920   0.37248   0.00000  Uiso   1.00
C49    C     0.46899   0.33291   0.60946   0.00000  Uiso   1.00
C50    C     0.33294   0.46908   0.39055   0.00000  Uiso   1.00
C51    C     0.16922   0.47916   0.62752   0.00000  Uiso   1.00
C52    C     0.27077   0.08079   0.87248   0.00000  Uiso   1.00
C53    C     0.28094   0.41707   0.10949   0.00000  Uiso   1.00
C54    C     0.41709   0.28101   0.89054   0.00000  Uiso   1.00
C55    C     0.08080   0.27077   0.12752   0.00000  Uiso   1.00
C56    C     0.22921   0.41921   0.87248   0.00000  Uiso   1.00
C57    C     0.03316   0.25353   0.91786   0.00000  Uiso   1.00
C58    C     0.21904   0.08293   0.10948   0.00000  Uiso   1.00
C59    C     0.08290   0.21899   0.89048   0.00000  Uiso   1.00
C60    C     0.41920   0.22927   0.12752   0.00000  Uiso   1.00
C61    C     0.46672   0.25074   0.08231   0.00000  Uiso   1.00
C62    C     0.00000   0.25000   0.39786   0.00000  Uiso   1.00
C63    C     0.00000   0.25000   0.60203   0.00000  Uiso   1.00
C64    C     0.25000   0.00000   0.39797   0.00000  Uiso   1.00
C65    C     0.49647   0.21684   0.58214   0.00000  Uiso   1.00
C66    C     0.25000   0.00000   0.60214   0.00000  Uiso   1.00
C67    C     0.25000  -0.00000   0.89786   0.00000  Uiso   1.00
C68    C     0.25000  -0.00000   0.10203   0.00000  Uiso   1.00
C69    C     0.00000   0.25000   0.89797   0.00000  Uiso   1.00
C70    C     0.00000   0.25000   0.10214   0.00000  Uiso   1.00
C71    C     0.48878   0.18411   0.47922   0.00000  Uiso   1.00
C72    C     0.01281   0.31570   0.52004   0.00000  Uiso   1.00
C73    C     0.31568   0.01290   0.47996   0.00000  Uiso   1.00
C74    C     0.18413   0.48867   0.52078   0.00000  Uiso   1.00
C75    C     0.01126   0.31588   0.47922   0.00000  Uiso   1.00
C76    C     0.21685   0.49643   0.41786   0.00000  Uiso   1.00
C77    C     0.48723   0.18428   0.52004   0.00000  Uiso   1.00
C78    C     0.18430   0.48713   0.47996   0.00000  Uiso   1.00
C79    C     0.31586   0.01135   0.52078   0.00000  Uiso   1.00
C80    C     0.23872   0.43412   0.97922   0.00000  Uiso   1.00
C81    C     0.26284   0.06570   0.02004   0.00000  Uiso   1.00
C82    C     0.06572   0.26278   0.97996   0.00000  Uiso   1.00
C83    C     0.43412   0.23874   0.02078   0.00000  Uiso   1.00
C84    C     0.26129   0.06588   0.97922   0.00000  Uiso   1.00
C85    C     0.23717   0.43430   0.02004   0.00000  Uiso   1.00
C86    C     0.43430   0.23719   0.97996   0.00000  Uiso   1.00
C87    C     0.28328   0.49930   0.58231   0.00000  Uiso   1.00
C88    C     0.06589   0.26123   0.02078   0.00000  Uiso   1.00
C89    C     0.25000   0.00000   0.35570   0.00000  Uiso   1.00
C90    C     0.25000   0.00000   0.64433   0.00000  Uiso   1.00
C91    C     0.00000   0.25000   0.35567   0.00000  Uiso   1.00
C92    C     0.00000   0.25000   0.64430   0.00000  Uiso   1.00
C93    C     0.00000   0.25000   0.85570   0.00000  Uiso   1.00
C94    C     0.00000   0.25000   0.14433   0.00000  Uiso   1.00
C95    C     0.25000   0.00000   0.85567   0.00000  Uiso   1.00
C96    C     0.25000  -0.00000   0.14430   0.00000  Uiso   1.00
C97    C     0.17997   0.07003   0.25000   0.00000  Uiso   1.00
C98    C     0.00075   0.21671   0.41769   0.00000  Uiso   1.00
C99    C     0.32000   0.43000   0.75000   0.00000  Uiso   1.00
C100   C     0.42998   0.17998   0.25000   0.00000  Uiso   1.00
C101   C     0.07000   0.32000   0.75000   0.00000  Uiso   1.00
C102   C     0.32003   0.42997   0.25000   0.00000  Uiso   1.00
C103   C     0.18000   0.07000   0.75000   0.00000  Uiso   1.00
C104   C     0.07002   0.32002   0.25000   0.00000  Uiso   1.00
C105   C     0.43000   0.18000   0.75000   0.00000  Uiso   1.00
C106   C     0.17998   0.42998   0.75000   0.00000  Uiso   1.00
C107   C     0.32000   0.07000   0.25000   0.00000  Uiso   1.00
C108   C     0.42997   0.32003   0.75000   0.00000  Uiso   1.00
C109   C     0.00354   0.28315   0.58214   0.00000  Uiso   1.00
C110   C     0.07000   0.18000   0.25000   0.00000  Uiso   1.00
C111   C     0.32002   0.07002   0.75000   0.00000  Uiso   1.00
C112   C     0.18000   0.43000   0.25000   0.00000  Uiso   1.00
C113   C     0.07003   0.17997   0.75000   0.00000  Uiso   1.00
C114   C     0.43000   0.32000   0.25000   0.00000  Uiso   1.00
C115   C     0.13781   0.38934   0.21444   0.00000  Uiso   1.00
C116   C     0.36230   0.11072   0.78555   0.00000  Uiso   1.00
C117   C     0.11047   0.13765   0.21446   0.00000  Uiso   1.00
C118   C     0.38946   0.36254   0.78553   0.00000  Uiso   1.00
C119   C     0.36210   0.11075   0.21444   0.00000  Uiso   1.00
C120   C     0.28315   0.00358   0.41786   0.00000  Uiso   1.00
C121   C     0.13766   0.38932   0.78555   0.00000  Uiso   1.00
C122   C     0.38951   0.36233   0.21446   0.00000  Uiso   1.00
C123   C     0.11046   0.13737   0.78553   0.00000  Uiso   1.00
C124   C     0.13756   0.11038   0.78553   0.00000  Uiso   1.00
C125   C     0.36251   0.38943   0.21447   0.00000  Uiso   1.00
C126   C     0.11064   0.36221   0.78556   0.00000  Uiso   1.00
C127   C     0.38921   0.13777   0.21445   0.00000  Uiso   1.00
C128   C     0.36236   0.38954   0.78554   0.00000  Uiso   1.00
C129   C     0.13746   0.11055   0.21447   0.00000  Uiso   1.00
C130   C     0.38932   0.13783   0.78556   0.00000  Uiso   1.00
C131   C     0.21671   0.00070   0.58231   0.00000  Uiso   1.00
C132   C     0.11070   0.36232   0.21445   0.00000  Uiso   1.00
C133   C     0.38783   0.13932   0.71444   0.00000  Uiso   1.00
C134   C     0.11232   0.36070   0.28555   0.00000  Uiso   1.00
C135   C     0.36046   0.38765   0.71446   0.00000  Uiso   1.00
C136   C     0.13945   0.11254   0.28553   0.00000  Uiso   1.00
C137   C     0.11221   0.36064   0.71444   0.00000  Uiso   1.00
C138   C     0.38777   0.13921   0.28556   0.00000  Uiso   1.00
C139   C     0.13962   0.11244   0.71447   0.00000  Uiso   1.00
C140   C     0.36057   0.38749   0.28553   0.00000  Uiso   1.00
C141   C     0.38768   0.36050   0.28554   0.00000  Uiso   1.00
C142   C     0.24928   0.03328   0.91769   0.00000  Uiso   1.00
C143   C     0.11263   0.13955   0.71448   0.00000  Uiso   1.00
C144   C     0.36075   0.11210   0.28556   0.00000  Uiso   1.00
C145   C     0.13932   0.38766   0.71445   0.00000  Uiso   1.00
C146   C     0.11235   0.13953   0.28554   0.00000  Uiso   1.00
C147   C     0.38746   0.36054   0.71447   0.00000  Uiso   1.00
C148   C     0.13934   0.38781   0.28556   0.00000  Uiso   1.00
C149   C     0.36072   0.11230   0.71445   0.00000  Uiso   1.00
C150   C     0.49693   0.21649   0.45865   0.00000  Uiso   1.00
C151   C     0.00524   0.28330   0.54102   0.00000  Uiso   1.00
C152   C     0.28329   0.00528   0.45898   0.00000  Uiso   1.00
H153   H     0.45243   0.14413   0.46518   0.00000  Uiso   1.00
H154   H     0.00316   0.36959   0.46681   0.00000  Uiso   1.00
H155   H     0.04631   0.31470   0.37522   0.00000  Uiso   1.00
H156   H     0.47999   0.18405   0.62861   0.00000  Uiso   1.00
H157   H     0.02764   0.14037   0.62423   0.00000  Uiso   1.00
H158   H     0.04836   0.18496   0.62788   0.00000  Uiso   1.00
H159   H     0.04476   0.16247   0.58117   0.00000  Uiso   1.00
H160   H     0.18406   0.47993   0.37138   0.00000  Uiso   1.00
H161   H     0.14033   0.02753   0.37581   0.00000  Uiso   1.00
H162   H     0.18490   0.04830   0.37217   0.00000  Uiso   1.00
H163   H     0.16240   0.04464   0.41888   0.00000  Uiso   1.00
H164   H     0.33423   0.47393   0.59167   0.00000  Uiso   1.00
H165   H     0.45011   0.14422   0.53142   0.00000  Uiso   1.00
H166   H     0.35928   0.02665   0.61857   0.00000  Uiso   1.00
H167   H     0.33095   0.01215   0.65842   0.00000  Uiso   1.00
H168   H     0.31467   0.04637   0.62478   0.00000  Uiso   1.00
H169   H     0.02619   0.16580   0.40830   0.00000  Uiso   1.00
H170   H     0.47348   0.14069   0.38143   0.00000  Uiso   1.00
H171   H     0.48795   0.16903   0.34157   0.00000  Uiso   1.00
H172   H     0.45372   0.18528   0.37522   0.00000  Uiso   1.00
H173   H     0.01999   0.31595   0.62862   0.00000  Uiso   1.00
H174   H     0.47235   0.35964   0.62417   0.00000  Uiso   1.00
H175   H     0.45162   0.31506   0.62781   0.00000  Uiso   1.00
H176   H     0.49460   0.13062   0.53340   0.00000  Uiso   1.00
H177   H     0.45528   0.33754   0.58109   0.00000  Uiso   1.00
H178   H     0.31593   0.02005   0.37137   0.00000  Uiso   1.00
H179   H     0.35966   0.47246   0.37582   0.00000  Uiso   1.00
H180   H     0.31510   0.45167   0.37224   0.00000  Uiso   1.00
H181   H     0.33762   0.45540   0.41893   0.00000  Uiso   1.00
H182   H     0.16576   0.02607   0.59170   0.00000  Uiso   1.00
H183   H     0.14072   0.47333   0.61857   0.00000  Uiso   1.00
H184   H     0.16905   0.48782   0.65843   0.00000  Uiso   1.00
H185   H     0.18533   0.45362   0.62477   0.00000  Uiso   1.00
H186   H     0.22387   0.08422   0.90831   0.00000  Uiso   1.00
H187   H     0.14433   0.44993   0.46858   0.00000  Uiso   1.00
H188   H     0.27658   0.10929   0.88143   0.00000  Uiso   1.00
H189   H     0.26210   0.08096   0.84157   0.00000  Uiso   1.00
H190   H     0.29632   0.06470   0.87522   0.00000  Uiso   1.00
H191   H     0.22995   0.43406   0.12862   0.00000  Uiso   1.00
H192   H     0.27755   0.39034   0.12421   0.00000  Uiso   1.00
H193   H     0.29831   0.43491   0.12785   0.00000  Uiso   1.00
H194   H     0.29467   0.41242   0.08114   0.00000  Uiso   1.00
H195   H     0.43405   0.23001   0.87138   0.00000  Uiso   1.00
H196   H     0.39036   0.27765   0.87583   0.00000  Uiso   1.00
H197   H     0.43495   0.29838   0.87219   0.00000  Uiso   1.00
H198   H     0.13063   0.49438   0.46660   0.00000  Uiso   1.00
H199   H     0.41246   0.29472   0.91891   0.00000  Uiso   1.00
H200   H     0.08421   0.22384   0.09172   0.00000  Uiso   1.00
H201   H     0.10930   0.27658   0.11856   0.00000  Uiso   1.00
H202   H     0.08097   0.26211   0.15843   0.00000  Uiso   1.00
H203   H     0.06470   0.29632   0.12477   0.00000  Uiso   1.00
H204   H     0.27612   0.41578   0.90829   0.00000  Uiso   1.00
H205   H     0.22339   0.39071   0.88144   0.00000  Uiso   1.00
H206   H     0.23787   0.41904   0.84157   0.00000  Uiso   1.00
H207   H     0.20366   0.43531   0.87523   0.00000  Uiso   1.00
H208   H     0.27003   0.06594   0.12862   0.00000  Uiso   1.00
H209   H     0.35576   0.04777   0.53482   0.00000  Uiso   1.00
H210   H     0.22242   0.10965   0.12419   0.00000  Uiso   1.00
H211   H     0.20166   0.06508   0.12782   0.00000  Uiso   1.00
H212   H     0.20532   0.08758   0.08111   0.00000  Uiso   1.00
H213   H     0.06595   0.27001   0.87139   0.00000  Uiso   1.00
H214   H     0.10963   0.22236   0.87577   0.00000  Uiso   1.00
H215   H     0.06504   0.20165   0.87211   0.00000  Uiso   1.00
H216   H     0.08753   0.20524   0.91883   0.00000  Uiso   1.00
H217   H     0.41580   0.27617   0.09169   0.00000  Uiso   1.00
H218   H     0.39070   0.22347   0.11857   0.00000  Uiso   1.00
H219   H     0.41903   0.23794   0.15843   0.00000  Uiso   1.00
H220   H     0.36959   0.00334   0.53319   0.00000  Uiso   1.00
H221   H     0.43529   0.20371   0.12479   0.00000  Uiso   1.00
H222   H     0.20236   0.39416   0.96517   0.00000  Uiso   1.00
H223   H     0.24680   0.38040   0.96682   0.00000  Uiso   1.00
H224   H     0.30001   0.10571   0.03142   0.00000  Uiso   1.00
H225   H     0.49688   0.13040   0.46681   0.00000  Uiso   1.00
H226   H     0.25554   0.11937   0.03340   0.00000  Uiso   1.00
H227   H     0.10577   0.29990   0.96857   0.00000  Uiso   1.00
H228   H     0.11938   0.25542   0.96660   0.00000  Uiso   1.00
H229   H     0.39416   0.20238   0.03482   0.00000  Uiso   1.00
H230   H     0.38041   0.24684   0.03319   0.00000  Uiso   1.00
H231   H     0.29767   0.10582   0.96518   0.00000  Uiso   1.00
H232   H     0.25322   0.11959   0.96681   0.00000  Uiso   1.00
H233   H     0.20002   0.39426   0.03140   0.00000  Uiso   1.00
H234   H     0.24449   0.38063   0.03342   0.00000  Uiso   1.00
H235   H     0.39428   0.20004   0.96858   0.00000  Uiso   1.00
H236   H     0.04996   0.35573   0.53142   0.00000  Uiso   1.00
H237   H     0.38063   0.24451   0.96660   0.00000  Uiso   1.00
H238   H     0.10587   0.29759   0.03481   0.00000  Uiso   1.00
H239   H     0.11960   0.25313   0.03319   0.00000  Uiso   1.00
H240   H     0.16327   0.38200   0.16255   0.00000  Uiso   1.00
H241   H     0.13058   0.41487   0.16260   0.00000  Uiso   1.00
H242   H     0.33728   0.11805   0.83761   0.00000  Uiso   1.00
H243   H     0.36972   0.08497   0.83720   0.00000  Uiso   1.00
H244   H     0.11760   0.16293   0.16242   0.00000  Uiso   1.00
H245   H     0.08474   0.13017   0.16276   0.00000  Uiso   1.00
H246   H     0.38234   0.33794   0.83780   0.00000  Uiso   1.00
H247   H     0.00549   0.36937   0.53340   0.00000  Uiso   1.00
H248   H     0.41553   0.37029   0.83692   0.00000  Uiso   1.00
H249   H     0.33649   0.11824   0.16266   0.00000  Uiso   1.00
H250   H     0.36918   0.08537   0.16249   0.00000  Uiso   1.00
H251   H     0.16261   0.38205   0.83766   0.00000  Uiso   1.00
H252   H     0.13018   0.41513   0.83715   0.00000  Uiso   1.00
H253   H     0.38233   0.33700   0.16245   0.00000  Uiso   1.00
H254   H     0.41519   0.36976   0.16272   0.00000  Uiso   1.00
H255   H     0.11744   0.16183   0.83790   0.00000  Uiso   1.00
H256   H     0.08424   0.12948   0.83682   0.00000  Uiso   1.00
H257   H     0.16271   0.11739   0.83767   0.00000  Uiso   1.00
H258   H     0.35564   0.05012   0.46858   0.00000  Uiso   1.00
H259   H     0.12995   0.08452   0.83715   0.00000  Uiso   1.00
H260   H     0.33786   0.38226   0.16223   0.00000  Uiso   1.00
H261   H     0.37022   0.41545   0.16304   0.00000  Uiso   1.00
H262   H     0.11796   0.33678   0.83748   0.00000  Uiso   1.00
H263   H     0.08509   0.36947   0.83738   0.00000  Uiso   1.00
H264   H     0.38177   0.16290   0.16247   0.00000  Uiso   1.00
H265   H     0.41485   0.13046   0.16272   0.00000  Uiso   1.00
H266   H     0.33707   0.38240   0.83758   0.00000  Uiso   1.00
H267   H     0.36983   0.41526   0.83724   0.00000  Uiso   1.00
H268   H     0.16207   0.11767   0.16220   0.00000  Uiso   1.00
H269   H     0.36936   0.00567   0.46659   0.00000  Uiso   1.00
H270   H     0.12971   0.08448   0.16307   0.00000  Uiso   1.00
H271   H     0.38193   0.16334   0.83743   0.00000  Uiso   1.00
H272   H     0.41480   0.13064   0.83743   0.00000  Uiso   1.00
H273   H     0.11800   0.33734   0.16236   0.00000  Uiso   1.00
H274   H     0.08491   0.36978   0.16283   0.00000  Uiso   1.00
H275   H     0.41334   0.13194   0.66258   0.00000  Uiso   1.00
H276   H     0.38064   0.16481   0.66257   0.00000  Uiso   1.00
H277   H     0.08734   0.36799   0.33764   0.00000  Uiso   1.00
H278   H     0.11978   0.33491   0.33717   0.00000  Uiso   1.00
H279   H     0.36760   0.41293   0.66242   0.00000  Uiso   1.00
H280   H     0.14421   0.45226   0.53482   0.00000  Uiso   1.00
H281   H     0.33474   0.38017   0.66276   0.00000  Uiso   1.00
H282   H     0.13233   0.08792   0.33780   0.00000  Uiso   1.00
H283   H     0.16552   0.12028   0.33693   0.00000  Uiso   1.00
H284   H     0.08678   0.36796   0.66253   0.00000  Uiso   1.00
H285   H     0.11947   0.33508   0.66262   0.00000  Uiso   1.00
H286   H     0.41290   0.13177   0.33753   0.00000  Uiso   1.00
H287   H     0.38046   0.16485   0.33728   0.00000  Uiso   1.00
H288   H     0.13261   0.08730   0.66233   0.00000  Uiso   1.00
H289   H     0.16548   0.12005   0.66286   0.00000  Uiso   1.00
H290   H     0.36774   0.41215   0.33777   0.00000  Uiso   1.00
H291   H     0.13041   0.49670   0.53319   0.00000  Uiso   1.00
H292   H     0.33455   0.37979   0.33696   0.00000  Uiso   1.00
H293   H     0.41300   0.36768   0.33755   0.00000  Uiso   1.00
H294   H     0.38025   0.33481   0.33728   0.00000  Uiso   1.00
H295   H     0.08817   0.13256   0.66210   0.00000  Uiso   1.00
H296   H     0.12052   0.16576   0.66318   0.00000  Uiso   1.00
H297   H     0.36824   0.08648   0.33735   0.00000  Uiso   1.00
H298   H     0.33537   0.11918   0.33751   0.00000  Uiso   1.00
H299   H     0.13205   0.41261   0.66234   0.00000  Uiso   1.00
H300   H     0.16514   0.38017   0.66285   0.00000  Uiso   1.00
H301   H     0.08707   0.13240   0.33758   0.00000  Uiso   1.00
H302   H     0.04762   0.35585   0.46518   0.00000  Uiso   1.00
H303   H     0.11983   0.16526   0.33725   0.00000  Uiso   1.00
H304   H     0.41206   0.36767   0.66220   0.00000  Uiso   1.00
H305   H     0.37971   0.33447   0.66308   0.00000  Uiso   1.00
H306   H     0.13200   0.41327   0.33745   0.00000  Uiso   1.00
H307   H     0.16487   0.38058   0.33740   0.00000  Uiso   1.00
H308   H     0.36805   0.08729   0.66239   0.00000  Uiso   1.00
H309   H     0.33497   0.11972   0.66280   0.00000  Uiso   1.00
H310   H     0.47385   0.33421   0.40830   0.00000  Uiso   1.00
H311   H     0.02657   0.35930   0.38143   0.00000  Uiso   1.00
H312   H     0.01209   0.33097   0.34157   0.00000  Uiso   1.00
N313   N     0.47927   0.15142   0.45860   0.00000  Uiso   1.00
N314   N     0.27371   0.09835   0.04007   0.00000  Uiso   1.00
N315   N     0.09838   0.27361   0.95992   0.00000  Uiso   1.00
N316   N     0.40143   0.22923   0.04140   0.00000  Uiso   1.00
N317   N     0.27082   0.09856   0.95860   0.00000  Uiso   1.00
N318   N     0.22631   0.40165   0.04008   0.00000  Uiso   1.00
N319   N     0.40165   0.22633   0.95992   0.00000  Uiso   1.00
N320   N     0.09859   0.27075   0.04140   0.00000  Uiso   1.00
N321   N     0.15197   0.40343   0.17851   0.00000  Uiso   1.00
N322   N     0.34829   0.09658   0.82149   0.00000  Uiso   1.00
N323   N     0.09624   0.15164   0.17853   0.00000  Uiso   1.00
N324   N     0.02366   0.34836   0.54008   0.00000  Uiso   1.00
N325   N     0.40377   0.34876   0.82146   0.00000  Uiso   1.00
N326   N     0.34784   0.09676   0.17851   0.00000  Uiso   1.00
N327   N     0.15163   0.40350   0.82149   0.00000  Uiso   1.00
N328   N     0.40370   0.34830   0.17853   0.00000  Uiso   1.00
N329   N     0.09605   0.15105   0.82146   0.00000  Uiso   1.00
N330   N     0.15146   0.09607   0.82147   0.00000  Uiso   1.00
N331   N     0.34870   0.40371   0.17854   0.00000  Uiso   1.00
N332   N     0.09654   0.34807   0.82149   0.00000  Uiso   1.00
N333   N     0.40328   0.15186   0.17851   0.00000  Uiso   1.00
N334   N     0.34836   0.40376   0.82147   0.00000  Uiso   1.00
N335   N     0.34832   0.02381   0.45992   0.00000  Uiso   1.00
N336   N     0.15124   0.09623   0.17854   0.00000  Uiso   1.00
N337   N     0.40338   0.15202   0.82149   0.00000  Uiso   1.00
N338   N     0.09653   0.34834   0.17851   0.00000  Uiso   1.00
N339   N     0.40202   0.15338   0.67851   0.00000  Uiso   1.00
N340   N     0.09833   0.34653   0.32149   0.00000  Uiso   1.00
N341   N     0.34624   0.40164   0.67853   0.00000  Uiso   1.00
N342   N     0.15377   0.09876   0.32146   0.00000  Uiso   1.00
N343   N     0.09807   0.34654   0.67851   0.00000  Uiso   1.00
N344   N     0.40186   0.15328   0.32149   0.00000  Uiso   1.00
N345   N     0.15394   0.09854   0.67853   0.00000  Uiso   1.00
N346   N     0.15145   0.47912   0.54140   0.00000  Uiso   1.00
N347   N     0.34629   0.40130   0.32147   0.00000  Uiso   1.00
N348   N     0.40170   0.34630   0.32147   0.00000  Uiso   1.00
N349   N     0.09895   0.15395   0.67854   0.00000  Uiso   1.00
N350   N     0.34676   0.09783   0.32149   0.00000  Uiso   1.00
N351   N     0.15351   0.40163   0.67852   0.00000  Uiso   1.00
N352   N     0.09836   0.15376   0.32147   0.00000  Uiso   1.00
N353   N     0.40124   0.34623   0.67854   0.00000  Uiso   1.00
N354   N     0.15343   0.40197   0.32149   0.00000  Uiso   1.00
N355   N     0.34658   0.09829   0.67851   0.00000  Uiso   1.00
N356   N     0.49171   0.31574   0.39615   0.00000  Uiso   1.00
N357   N     0.02077   0.34857   0.45860   0.00000  Uiso   1.00
N358   N     0.49563   0.18359   0.60372   0.00000  Uiso   1.00
N359   N     0.18360   0.49556   0.39629   0.00000  Uiso   1.00
N360   N     0.31575   0.49176   0.60384   0.00000  Uiso   1.00
N361   N     0.00833   0.18426   0.39615   0.00000  Uiso   1.00
N362   N     0.00437   0.31641   0.60371   0.00000  Uiso   1.00
N363   N     0.31640   0.00444   0.39629   0.00000  Uiso   1.00
N364   N     0.18425   0.00823   0.60385   0.00000  Uiso   1.00
N365   N     0.24172   0.06574   0.89615   0.00000  Uiso   1.00
N366   N     0.24558   0.43360   0.10371   0.00000  Uiso   1.00
N367   N     0.43360   0.24563   0.89629   0.00000  Uiso   1.00
N368   N     0.47640   0.15162   0.54008   0.00000  Uiso   1.00
N369   N     0.06574   0.24171   0.10386   0.00000  Uiso   1.00
N370   N     0.25827   0.43426   0.89615   0.00000  Uiso   1.00
N371   N     0.25441   0.06640   0.10371   0.00000  Uiso   1.00
N372   N     0.06641   0.25437   0.89628   0.00000  Uiso   1.00
N373   N     0.43426   0.25831   0.10385   0.00000  Uiso   1.00
N374   N     0.15167   0.47623   0.45992   0.00000  Uiso   1.00
N375   N     0.34854   0.02091   0.54140   0.00000  Uiso   1.00
N376   N     0.22921   0.40143   0.95860   0.00000  Uiso   1.00
O377   O     0.25000   0.00000   0.25000   0.00000  Uiso   1.00
O378   O     0.25000   0.46964   0.66245   0.00000  Uiso   1.00
O379   O     0.46964   0.25000   0.33755   0.00000  Uiso   1.00
O380   O     0.03037   0.25000   0.66245   0.00000  Uiso   1.00
O381   O     0.00000   0.21964   0.83755   0.00000  Uiso   1.00
O382   O     0.00000   0.28037   0.16245   0.00000  Uiso   1.00
O383   O     0.28037   0.00000   0.83755   0.00000  Uiso   1.00
O384   O     0.21964   0.00000   0.16245   0.00000  Uiso   1.00
O385   O     0.00000   0.28037   0.83755   0.00000  Uiso   1.00
O386   O     0.00000   0.21964   0.16245   0.00000  Uiso   1.00
O387   O     0.21964   0.00000   0.83755   0.00000  Uiso   1.00
O388   O     0.25000   0.00000   0.75000   0.00000  Uiso   1.00
O389   O     0.28037   0.00000   0.16245   0.00000  Uiso   1.00
O390   O     0.20725   0.07308   0.27302   0.00000  Uiso   1.00
O391   O     0.29276   0.42693   0.72698   0.00000  Uiso   1.00
O392   O     0.42693   0.20725   0.27302   0.00000  Uiso   1.00
O393   O     0.07308   0.29276   0.72698   0.00000  Uiso   1.00
O394   O     0.29276   0.42693   0.27302   0.00000  Uiso   1.00
O395   O     0.20725   0.07308   0.72698   0.00000  Uiso   1.00
O396   O     0.07308   0.29276   0.27302   0.00000  Uiso   1.00
O397   O     0.42693   0.20725   0.72698   0.00000  Uiso   1.00
O398   O     0.20725   0.42693   0.72698   0.00000  Uiso   1.00
O399   O     0.00000   0.25000   0.25000   0.00000  Uiso   1.00
O400   O     0.29276   0.07308   0.27302   0.00000  Uiso   1.00
O401   O     0.42693   0.29276   0.72698   0.00000  Uiso   1.00
O402   O     0.07308   0.20725   0.27302   0.00000  Uiso   1.00
O403   O     0.29276   0.07308   0.72698   0.00000  Uiso   1.00
O404   O     0.20725   0.42693   0.27302   0.00000  Uiso   1.00
O405   O     0.07308   0.20725   0.72698   0.00000  Uiso   1.00
O406   O     0.42693   0.29276   0.27302   0.00000  Uiso   1.00
O407   O     0.45725   0.32308   0.77302   0.00000  Uiso   1.00
O408   O     0.04276   0.17693   0.22698   0.00000  Uiso   1.00
O409   O     0.17693   0.45725   0.77302   0.00000  Uiso   1.00
O410   O     0.00000   0.25000   0.75000   0.00000  Uiso   1.00
O411   O     0.32308   0.04276   0.22698   0.00000  Uiso   1.00
O412   O     0.04276   0.17693   0.77302   0.00000  Uiso   1.00
O413   O     0.45725   0.32308   0.22698   0.00000  Uiso   1.00
O414   O     0.32308   0.04276   0.77302   0.00000  Uiso   1.00
O415   O     0.17693   0.45725   0.22698   0.00000  Uiso   1.00
O416   O     0.45725   0.17693   0.22698   0.00000  Uiso   1.00
O417   O     0.04276   0.32308   0.77302   0.00000  Uiso   1.00
O418   O     0.17693   0.04276   0.22698   0.00000  Uiso   1.00
O419   O     0.32308   0.45725   0.77302   0.00000  Uiso   1.00
O420   O     0.04276   0.32308   0.22698   0.00000  Uiso   1.00
O421   O     0.25000   0.46964   0.33755   0.00000  Uiso   1.00
O422   O     0.45725   0.17693   0.77302   0.00000  Uiso   1.00
O423   O     0.32308   0.45725   0.22698   0.00000  Uiso   1.00
O424   O     0.17693   0.04276   0.77302   0.00000  Uiso   1.00
O425   O     0.25000   0.03037   0.66245   0.00000  Uiso   1.00
O426   O     0.03037   0.25000   0.33755   0.00000  Uiso   1.00
O427   O     0.46964   0.25000   0.66245   0.00000  Uiso   1.00
O428   O     0.25000   0.03037   0.33755   0.00000  Uiso   1.00
Zn429  Zn    0.20660   0.00000   0.21735   0.00000  Uiso   1.00
Zn430  Zn    0.04341   0.25000   0.28265   0.00000  Uiso   1.00
Zn431  Zn    0.25000   0.45660   0.71735   0.00000  Uiso   1.00
Zn432  Zn    0.25000   0.04341   0.28265   0.00000  Uiso   1.00
Zn433  Zn    0.04341   0.25000   0.71735   0.00000  Uiso   1.00
Zn434  Zn    0.45660   0.25000   0.28265   0.00000  Uiso   1.00
Zn435  Zn    0.25000   0.04341   0.71735   0.00000  Uiso   1.00
Zn436  Zn    0.25000   0.45660   0.28265   0.00000  Uiso   1.00
Zn437  Zn    0.29341   0.00000   0.78265   0.00000  Uiso   1.00
Zn438  Zn    0.00000   0.20660   0.21735   0.00000  Uiso   1.00
Zn439  Zn    0.00000   0.29341   0.78265   0.00000  Uiso   1.00
Zn440  Zn    0.29341   0.00000   0.21735   0.00000  Uiso   1.00
Zn441  Zn    0.20660   0.00000   0.78265   0.00000  Uiso   1.00
Zn442  Zn    0.00000   0.29341   0.21735   0.00000  Uiso   1.00
Zn443  Zn    0.00000   0.20660   0.78265   0.00000  Uiso   1.00
Zn444  Zn    0.45660   0.25000   0.71735   0.00000  Uiso   1.00
C445   C     0.99927   0.28328   0.41769   0.00000  Uiso   1.00
C446   C     0.74644   0.46685   0.08214   0.00000  Uiso   1.00
C447   C     0.71649   0.49688   0.54135   0.00000  Uiso   1.00
C448   C     0.50309   0.28350   0.45865   0.00000  Uiso   1.00
C449   C     0.99478   0.21669   0.54102   0.00000  Uiso   1.00
C450   C     0.71670   0.49473   0.45898   0.00000  Uiso   1.00
C451   C     0.78350   0.00313   0.54135   0.00000  Uiso   1.00
C452   C     0.74690   0.46649   0.95865   0.00000  Uiso   1.00
C453   C     0.75525   0.03330   0.04102   0.00000  Uiso   1.00
C454   C     0.53331   0.25522   0.95898   0.00000  Uiso   1.00
C455   C     0.96650   0.24691   0.04135   0.00000  Uiso   1.00
C456   C     0.75310   0.03350   0.95865   0.00000  Uiso   1.00
C457   C     0.96685   0.24646   0.91786   0.00000  Uiso   1.00
C458   C     0.74475   0.46670   0.04102   0.00000  Uiso   1.00
C459   C     0.96671   0.24476   0.95898   0.00000  Uiso   1.00
C460   C     0.53351   0.25308   0.04136   0.00000  Uiso   1.00
C461   C     0.59812   0.34812   0.25000   0.00000  Uiso   1.00
C462   C     0.90193   0.15193   0.75000   0.00000  Uiso   1.00
C463   C     0.65186   0.09814   0.25000   0.00000  Uiso   1.00
C464   C     0.84805   0.40195   0.75000   0.00000  Uiso   1.00
C465   C     0.90188   0.15188   0.25000   0.00000  Uiso   1.00
C466   C     0.59807   0.34807   0.75000   0.00000  Uiso   1.00
C467   C     0.84814   0.40186   0.25000   0.00000  Uiso   1.00
C468   C     0.53329   0.24926   0.08231   0.00000  Uiso   1.00
C469   C     0.65195   0.09806   0.75000   0.00000  Uiso   1.00
C470   C     0.59814   0.15186   0.75000   0.00000  Uiso   1.00
C471   C     0.90195   0.34806   0.25000   0.00000  Uiso   1.00
C472   C     0.65188   0.40188   0.75000   0.00000  Uiso   1.00
C473   C     0.84807   0.09807   0.25000   0.00000  Uiso   1.00
C474   C     0.90186   0.34814   0.75000   0.00000  Uiso   1.00
C475   C     0.59805   0.15195   0.25000   0.00000  Uiso   1.00
C476   C     0.84812   0.09812   0.75000   0.00000  Uiso   1.00
C477   C     0.65193   0.40193   0.25000   0.00000  Uiso   1.00
C478   C     0.50001   0.25000   0.47928   0.00000  Uiso   1.00
C479   C     0.75072   0.46671   0.91769   0.00000  Uiso   1.00
C480   C     0.50001   0.25000   0.52046   0.00000  Uiso   1.00
C481   C     0.75000   0.00001   0.47954   0.00000  Uiso   1.00
C482   C     0.75000   0.00001   0.52072   0.00000  Uiso   1.00
C483   C     0.75000  -0.00000   0.97928   0.00000  Uiso   1.00
C484   C     0.75000  -0.00000   0.02046   0.00000  Uiso   1.00
C485   C     0.50001   0.24999   0.97954   0.00000  Uiso   1.00
C486   C     0.50001   0.24999   0.02072   0.00000  Uiso   1.00
C487   C     0.52076   0.33079   0.37248   0.00000  Uiso   1.00
C488   C     0.53101   0.16710   0.60952   0.00000  Uiso   1.00
C489   C     0.66706   0.03092   0.39052   0.00000  Uiso   1.00
C490   C     0.75355   0.03315   0.08214   0.00000  Uiso   1.00
C491   C     0.83078   0.02082   0.62752   0.00000  Uiso   1.00
C492   C     0.97928   0.16920   0.37248   0.00000  Uiso   1.00
C493   C     0.96899   0.33291   0.60946   0.00000  Uiso   1.00
C494   C     0.83294   0.46908   0.39055   0.00000  Uiso   1.00
C495   C     0.66922   0.47916   0.62752   0.00000  Uiso   1.00
C496   C     0.77077   0.08079   0.87248   0.00000  Uiso   1.00
C497   C     0.78094   0.41707   0.10949   0.00000  Uiso   1.00
C498   C     0.91709   0.28101   0.89054   0.00000  Uiso   1.00
C499   C     0.58080   0.27077   0.12752   0.00000  Uiso   1.00
C500   C     0.72921   0.41921   0.87248   0.00000  Uiso   1.00
C501   C     0.53316   0.25353   0.91786   0.00000  Uiso   1.00
C502   C     0.71904   0.08293   0.10948   0.00000  Uiso   1.00
C503   C     0.58290   0.21899   0.89048   0.00000  Uiso   1.00
C504   C     0.91920   0.22927   0.12752   0.00000  Uiso   1.00
C505   C     0.96672   0.25074   0.08231   0.00000  Uiso   1.00
C506   C     0.50000   0.25000   0.39786   0.00000  Uiso   1.00
C507   C     0.50000   0.25000   0.60203   0.00000  Uiso   1.00
C508   C     0.75000   0.00000   0.39797   0.00000  Uiso   1.00
C509   C     0.99647   0.21684   0.58214   0.00000  Uiso   1.00
C510   C     0.75000   0.00000   0.60214   0.00000  Uiso   1.00
C511   C     0.75000  -0.00000   0.89786   0.00000  Uiso   1.00
C512   C     0.75000  -0.00000   0.10203   0.00000  Uiso   1.00
C513   C     0.50000   0.25000   0.89797   0.00000  Uiso   1.00
C514   C     0.50000   0.25000   0.10214   0.00000  Uiso   1.00
C515   C     0.98878   0.18411   0.47922   0.00000  Uiso   1.00
C516   C     0.51281   0.31570   0.52004   0.00000  Uiso   1.00
C517   C     0.81568   0.01290   0.47996   0.00000  Uiso   1.00
C518   C     0.68413   0.48867   0.52078   0.00000  Uiso   1.00
C519   C     0.51126   0.31588   0.47922   0.00000  Uiso   1.00
C520   C     0.71685   0.49643   0.41786   0.00000  Uiso   1.00
C521   C     0.98723   0.18428   0.52004   0.00000  Uiso   1.00
C522   C     0.68430   0.48713   0.47996   0.00000  Uiso   1.00
C523   C     0.81586   0.01135   0.52078   0.00000  Uiso   1.00
C524   C     0.73872   0.43412   0.97922   0.00000  Uiso   1.00
C525   C     0.76284   0.06570   0.02004   0.00000  Uiso   1.00
C526   C     0.56572   0.26278   0.97996   0.00000  Uiso   1.00
C527   C     0.93412   0.23874   0.02078   0.00000  Uiso   1.00
C528   C     0.76129   0.06588   0.97922   0.00000  Uiso   1.00
C529   C     0.73717   0.43430   0.02004   0.00000  Uiso   1.00
C530   C     0.93430   0.23719   0.97996   0.00000  Uiso   1.00
C531   C     0.78328   0.49930   0.58231   0.00000  Uiso   1.00
C532   C     0.56589   0.26123   0.02078   0.00000  Uiso   1.00
C533   C     0.75000   0.00000   0.35570   0.00000  Uiso   1.00
C534   C     0.75000   0.00000   0.64433   0.00000  Uiso   1.00
C535   C     0.50000   0.25000   0.35567   0.00000  Uiso   1.00
C536   C     0.50000   0.25000   0.64430   0.00000  Uiso   1.00
C537   C     0.50000   0.25000   0.85570   0.00000  Uiso   1.00
C538   C     0.50000   0.25000   0.14433   0.00000  Uiso   1.00
C539   C     0.75000   0.00000   0.85567   0.00000  Uiso   1.00
C540   C     0.75000  -0.00000   0.14430   0.00000  Uiso   1.00
C541   C     0.67997   0.07003   0.25000   0.00000  Uiso   1.00
C542   C     0.50075   0.21671   0.41769   0.00000  Uiso   1.00
C543   C     0.82000   0.43000   0.75000   0.00000  Uiso   1.00
C544   C     0.92998   0.17998   0.25000   0.00000  Uiso   1.00
C545   C     0.57000   0.32000   0.75000   0.00000  Uiso   1.00
C546   C     0.82003   0.42997   0.25000   0.00000  Uiso   1.00
C547   C     0.68000   0.07000   0.75000   0.00000  Uiso   1.00
C548   C     0.57002   0.32002   0.25000   0.00000  Uiso   1.00
C549   C     0.93000   0.18000   0.75000   0.00000  Uiso   1.00
C550   C     0.67998   0.42998   0.75000   0.00000  Uiso   1.00
C551   C     0.82000   0.07000   0.25000   0.00000  Uiso   1.00
C552   C     0.92997   0.32003   0.75000   0.00000  Uiso   1.00
C553   C     0.50354   0.28315   0.58214   0.00000  Uiso   1.00
C554   C     0.57000   0.18000   0.25000   0.00000  Uiso   1.00
C555   C     0.82002   0.07002   0.75000   0.00000  Uiso   1.00
C556   C     0.68000   0.43000   0.25000   0.00000  Uiso   1.00
C557   C     0.57003   0.17997   0.75000   0.00000  Uiso   1.00
C558   C     0.93000   0.32000   0.25000   0.00000  Uiso   1.00
C559   C     0.63781   0.38934   0.21444   0.00000  Uiso   1.00
C560   C     0.86230   0.11072   0.78555   0.00000  Uiso   1.00
C561   C     0.61047   0.13765   0.21446   0.00000  Uiso   1.00
C562   C     0.88946   0.36254   0.78553   0.00000  Uiso   1.00
C563   C     0.86210   0.11075   0.21444   0.00000  Uiso   1.00
C564   C     0.78315   0.00358   0.41786   0.00000  Uiso   1.00
C565   C     0.63766   0.38932   0.78555   0.00000  Uiso   1.00
C566   C     0.88951   0.36233   0.21446   0.00000  Uiso   1.00
C567   C     0.61046   0.13737   0.78553   0.00000  Uiso   1.00
C568   C     0.63756   0.11038   0.78553   0.00000  Uiso   1.00
C569   C     0.86251   0.38943   0.21447   0.00000  Uiso   1.00
C570   C     0.61064   0.36221   0.78556   0.00000  Uiso   1.00
C571   C     0.88921   0.13777   0.21445   0.00000  Uiso   1.00
C572   C     0.86236   0.38954   0.78554   0.00000  Uiso   1.00
C573   C     0.63746   0.11055   0.21447   0.00000  Uiso   1.00
C574   C     0.88932   0.13783   0.78556   0.00000  Uiso   1.00
C575   C     0.71671   0.00070   0.58231   0.00000  Uiso   1.00
C576   C     0.61070   0.36232   0.21445   0.00000  Uiso   1.00
C577   C     0.88783   0.13932   0.71444   0.00000  Uiso   1.00
C578   C     0.61232   0.36070   0.28555   0.00000  Uiso   1.00
C579   C     0.86046   0.38765   0.71446   0.00000  Uiso   1.00
C580   C     0.63945   0.11254   0.28553   0.00000  Uiso   1.00
C581   C     0.61221   0.36064   0.71444   0.00000  Uiso   1.00
C582   C     0.88777   0.13921   0.28556   0.00000  Uiso   1.00
C583   C     0.63962   0.11244   0.71447   0.00000  Uiso   1.00
C584   C     0.86057   0.38749   0.28553   0.00000  Uiso   1.00
C585   C     0.88768   0.36050   0.28554   0.00000  Uiso   1.00
C586   C     0.74928   0.03328   0.91769   0.00000  Uiso   1.00
C587   C     0.61263   0.13955   0.71448   0.00000  Uiso   1.00
C588   C     0.86075   0.11210   0.28556   0.00000  Uiso   1.00
C589   C     0.63932   0.38766   0.71445   0.00000  Uiso   1.00
C590   C     0.61235   0.13953   0.28554   0.00000  Uiso   1.00
C591   C     0.88746   0.36054   0.71447   0.00000  Uiso   1.00
C592   C     0.63934   0.38781   0.28556   0.00000  Uiso   1.00
C593   C     0.86072   0.11230   0.71445   0.00000  Uiso   1.00
C594   C     0.99693   0.21649   0.45865   0.00000  Uiso   1.00
C595   C     0.50524   0.28330   0.54102   0.00000  Uiso   1.00
C596   C     0.78329   0.00528   0.45898   0.00000  Uiso   1.00
H597   H     0.95243   0.14413   0.46518   0.00000  Uiso   1.00
H598   H     0.50316   0.36959   0.46681   0.00000  Uiso   1.00
H599   H     0.54631   0.31470   0.37522   0.00000  Uiso   1.00
H600   H     0.97999   0.18405   0.62861   0.00000  Uiso   1.00
H601   H     0.52764   0.14037   0.62423   0.00000  Uiso   1.00
H602   H     0.54836   0.18496   0.62788   0.00000  Uiso   1.00
H603   H     0.54476   0.16247   0.58117   0.00000  Uiso   1.00
H604   H     0.68406   0.47993   0.37138   0.00000  Uiso   1.00
H605   H     0.64033   0.02753   0.37581   0.00000  Uiso   1.00
H606   H     0.68490   0.04830   0.37217   0.00000  Uiso   1.00
H607   H     0.66240   0.04464   0.41888   0.00000  Uiso   1.00
H608   H     0.83423   0.47393   0.59167   0.00000  Uiso   1.00
H609   H     0.95011   0.14422   0.53142   0.00000  Uiso   1.00
H610   H     0.85928   0.02665   0.61857   0.00000  Uiso   1.00
H611   H     0.83095   0.01215   0.65842   0.00000  Uiso   1.00
H612   H     0.81467   0.04637   0.62478   0.00000  Uiso   1.00
H613   H     0.52619   0.16580   0.40830   0.00000  Uiso   1.00
H614   H     0.97348   0.14069   0.38143   0.00000  Uiso   1.00
H615   H     0.98795   0.16903   0.34157   0.00000  Uiso   1.00
H616   H     0.95372   0.18528   0.37522   0.00000  Uiso   1.00
H617   H     0.51999   0.31595   0.62862   0.00000  Uiso   1.00
H618   H     0.97235   0.35964   0.62417   0.00000  Uiso   1.00
H619   H     0.95162   0.31506   0.62781   0.00000  Uiso   1.00
H620   H     0.99460   0.13062   0.53340   0.00000  Uiso   1.00
H621   H     0.95528   0.33754   0.58109   0.00000  Uiso   1.00
H622   H     0.81593   0.02005   0.37137   0.00000  Uiso   1.00
H623   H     0.85966   0.47246   0.37582   0.00000  Uiso   1.00
H624   H     0.81510   0.45167   0.37224   0.00000  Uiso   1.00
H625   H     0.83762   0.45540   0.41893   0.00000  Uiso   1.00
H626   H     0.66576   0.02607   0.59170   0.00000  Uiso   1.00
H627   H     0.64072   0.47333   0.61857   0.00000  Uiso   1.00
H628   H     0.66905   0.48782   0.65843   0.00000  Uiso   1.00
H629   H     0.68533   0.45362   0.62477   0.00000  Uiso   1.00
H630   H     0.72387   0.08422   0.90831   0.00000  Uiso   1.00
H631   H     0.64433   0.44993   0.46858   0.00000  Uiso   1.00
H632   H     0.77658   0.10929   0.88143   0.00000  Uiso   1.00
H633   H     0.76210   0.08096   0.84157   0.00000  Uiso   1.00
H634   H     0.79632   0.06470   0.87522   0.00000  Uiso   1.00
H635   H     0.72995   0.43406   0.12862   0.00000  Uiso   1.00
H636   H     0.77755   0.39034   0.12421   0.00000  Uiso   1.00
H637   H     0.79831   0.43491   0.12785   0.00000  Uiso   1.00
H638   H     0.79467   0.41242   0.08114   0.00000  Uiso   1.00
H639   H     0.93405   0.23001   0.87138   0.00000  Uiso   1.00
H640   H     0.89036   0.27765   0.87583   0.00000  Uiso   1.00
H641   H     0.93495   0.29838   0.87219   0.00000  Uiso   1.00
H642   H     0.63063   0.49438   0.46660   0.00000  Uiso   1.00
H643   H     0.91246   0.29472   0.91891   0.00000  Uiso   1.00
H644   H     0.58421   0.22384   0.09172   0.00000  Uiso   1.00
H645   H     0.60930   0.27658   0.11856   0.00000  Uiso   1.00
H646   H     0.58097   0.26211   0.15843   0.00000  Uiso   1.00
H647   H     0.56470   0.29632   0.12477   0.00000  Uiso   1.00
H648   H     0.77612   0.41578   0.90829   0.00000  Uiso   1.00
H649   H     0.72339   0.39071   0.88144   0.00000  Uiso   1.00
H650   H     0.73787   0.41904   0.84157   0.00000  Uiso   1.00
H651   H     0.70366   0.43531   0.87523   0.00000  Uiso   1.00
H652   H     0.77003   0.06594   0.12862   0.00000  Uiso   1.00
H653   H     0.85576   0.04777   0.53482   0.00000  Uiso   1.00
H654   H     0.72242   0.10965   0.12419   0.00000  Uiso   1.00
H655   H     0.70166   0.06508   0.12782   0.00000  Uiso   1.00
H656   H     0.70532   0.08758   0.08111   0.00000  Uiso   1.00
H657   H     0.56595   0.27001   0.87139   0.00000  Uiso   1.00
H658   H     0.60963   0.22236   0.87577   0.00000  Uiso   1.00
H659   H     0.56504   0.20165   0.87211   0.00000  Uiso   1.00
H660   H     0.58753   0.20524   0.91883   0.00000  Uiso   1.00
H661   H     0.91580   0.27617   0.09169   0.00000  Uiso   1.00
H662   H     0.89070   0.22347   0.11857   0.00000  Uiso   1.00
H663   H     0.91903   0.23794   0.15843   0.00000  Uiso   1.00
H664   H     0.86959   0.00334   0.53319   0.00000  Uiso   1.00
H665   H     0.93529   0.20371   0.12479   0.00000  Uiso   1.00
H666   H     0.70236   0.39416   0.96517   0.00000  Uiso   1.00
H667   H     0.74680   0.38040   0.96682   0.00000  Uiso   1.00
H668   H     0.80001   0.10571   0.03142   0.00000  Uiso   1.00
H669   H     0.99688   0.13040   0.46681   0.00000  Uiso   1.00
H670   H     0.75554   0.11937   0.03340   0.00000  Uiso   1.00
H671   H     0.60577   0.29990   0.96857   0.00000  Uiso   1.00
H672   H     0.61938   0.25542   0.96660   0.00000  Uiso   1.00
H673   H     0.89416   0.20238   0.03482   0.00000  Uiso   1.00
H674   H     0.88041   0.24684   0.03319   0.00000  Uiso   1.00
H675   H     0.79767   0.10582   0.96518   0.00000  Uiso   1.00
H676   H     0.75322   0.11959   0.96681   0.00000  Uiso   1.00
H677   H     0.70002   0.39426   0.03140   0.00000  Uiso   1.00
H678   H     0.74449   0.38063   0.03342   0.00000  Uiso   1.00
H679   H     0.89428   0.20004   0.96858   0.00000  Uiso   1.00
H680   H     0.54996   0.35573   0.53142   0.00000  Uiso   1.00
H681   H     0.88063   0.24451   0.96660   0.00000  Uiso   1.00
H682   H     0.60587   0.29759   0.03481   0.00000  Uiso   1.00
H683   H     0.61960   0.25313   0.03319   0.00000  Uiso   1.00
H684   H     0.66327   0.38200   0.16255   0.00000  Uiso   1.00
H685   H     0.63058   0.41487   0.16260   0.00000  Uiso   1.00
H686   H     0.83728   0.11805   0.83761   0.00000  Uiso   1.00
H687   H     0.86972   0.08497   0.83720   0.00000  Uiso   1.00
H688   H     0.61760   0.16293   0.16242   0.00000  Uiso   1.00
H689   H     0.58474   0.13017   0.16276   0.00000  Uiso   1.00
H690   H     0.88234   0.33794   0.83780   0.00000  Uiso   1.00
H691   H     0.50549   0.36937   0.53340   0.00000  Uiso   1.00
H692   H     0.91553   0.37029   0.83692   0.00000  Uiso   1.00
H693   H     0.83649   0.11824   0.16266   0.00000  Uiso   1.00
H694   H     0.86918   0.08537   0.16249   0.00000  Uiso   1.00
H695   H     0.66261   0.38205   0.83766   0.00000  Uiso   1.00
H696   H     0.63018   0.41513   0.83715   0.00000  Uiso   1.00
H697   H     0.88233   0.33700   0.16245   0.00000  Uiso   1.00
H698   H     0.91519   0.36976   0.16272   0.00000  Uiso   1.00
H699   H     0.61744   0.16183   0.83790   0.00000  Uiso   1.00
H700   H     0.58424   0.12948   0.83682   0.00000  Uiso   1.00
H701   H     0.66271   0.11739   0.83767   0.00000  Uiso   1.00
H702   H     0.85564   0.05012   0.46858   0.00000  Uiso   1.00
H703   H     0.62995   0.08452   0.83715   0.00000  Uiso   1.00
H704   H     0.83786   0.38226   0.16223   0.00000  Uiso   1.00
H705   H     0.87022   0.41545   0.16304   0.00000  Uiso   1.00
H706   H     0.61796   0.33678   0.83748   0.00000  Uiso   1.00
H707   H     0.58509   0.36947   0.83738   0.00000  Uiso   1.00
H708   H     0.88177   0.16290   0.16247   0.00000  Uiso   1.00
H709   H     0.91485   0.13046   0.16272   0.00000  Uiso   1.00
H710   H     0.83707   0.38240   0.83758   0.00000  Uiso   1.00
H711   H     0.86983   0.41526   0.83724   0.00000  Uiso   1.00
H712   H     0.66207   0.11767   0.16220   0.00000  Uiso   1.00
H713   H     0.86936   0.00567   0.46659   0.00000  Uiso   1.00
H714   H     0.62971   0.08448   0.16307   0.00000  Uiso   1.00
H715   H     0.88193   0.16334   0.83743   0.00000  Uiso   1.00
H716   H     0.91480   0.13064   0.83743   0.00000  Uiso   1.00
H717   H     0.61800   0.33734   0.16236   0.00000  Uiso   1.00
H718   H     0.58491   0.36978   0.16283   0.00000  Uiso   1.00
H719   H     0.91334   0.13194   0.66258   0.00000  Uiso   1.00
H720   H     0.88064   0.16481   0.66257   0.00000  Uiso   1.00
H721   H     0.58734   0.36799   0.33764   0.00000  Uiso   1.00
H722   H     0.61978   0.33491   0.33717   0.00000  Uiso   1.00
H723   H     0.86760   0.41293   0.66242   0.00000  Uiso   1.00
H724   H     0.64421   0.45226   0.53482   0.00000  Uiso   1.00
H725   H     0.83474   0.38017   0.66276   0.00000  Uiso   1.00
H726   H     0.63233   0.08792   0.33780   0.00000  Uiso   1.00
H727   H     0.66552   0.12028   0.33693   0.00000  Uiso   1.00
H728   H     0.58678   0.36796   0.66253   0.00000  Uiso   1.00
H729   H     0.61947   0.33508   0.66262   0.00000  Uiso   1.00
H730   H     0.91290   0.13177   0.33753   0.00000  Uiso   1.00
H731   H     0.88046   0.16485   0.33728   0.00000  Uiso   1.00
H732   H     0.63261   0.08730   0.66233   0.00000  Uiso   1.00
H733   H     0.66548   0.12005   0.66286   0.00000  Uiso   1.00
H734   H     0.86774   0.41215   0.33777   0.00000  Uiso   1.00
H735   H     0.63041   0.49670   0.53319   0.00000  Uiso   1.00
H736   H     0.83455   0.37979   0.33696   0.00000  Uiso   1.00
H737   H     0.91300   0.36768   0.33755   0.00000  Uiso   1.00
H738   H     0.88025   0.33481   0.33728   0.00000  Uiso   1.00
H739   H     0.58817   0.13256   0.66210   0.00000  Uiso   1.00
H740   H     0.62052   0.16576   0.66318   0.00000  Uiso   1.00
H741   H     0.86824   0.08648   0.33735   0.00000  Uiso   1.00
H742   H     0.83537   0.11918   0.33751   0.00000  Uiso   1.00
H743   H     0.63205   0.41261   0.66234   0.00000  Uiso   1.00
H744   H     0.66514   0.38017   0.66285   0.00000  Uiso   1.00
H745   H     0.58707   0.13240   0.33758   0.00000  Uiso   1.00
H746   H     0.54762   0.35585   0.46518   0.00000  Uiso   1.00
H747   H     0.61983   0.16526   0.33725   0.00000  Uiso   1.00
H748   H     0.91206   0.36767   0.66220   0.00000  Uiso   1.00
H749   H     0.87971   0.33447   0.66308   0.00000  Uiso   1.00
H750   H     0.63200   0.41327   0.33745   0.00000  Uiso   1.00
H751   H     0.66487   0.38058   0.33740   0.00000  Uiso   1.00
H752   H     0.86805   0.08729   0.66239   0.00000  Uiso   1.00
H753   H     0.83497   0.11972   0.66280   0.00000  Uiso   1.00
H754   H     0.97385   0.33421   0.40830   0.00000  Uiso   1.00
H755   H     0.52657   0.35930   0.38143   0.00000  Uiso   1.00
H756   H     0.51209   0.33097   0.34157   0.00000  Uiso   1.00
N757   N     0.97927   0.15142   0.45860   0.00000  Uiso   1.00
N758   N     0.77371   0.09835   0.04007   0.00000  Uiso   1.00
N759   N     0.59838   0.27361   0.95992   0.00000  Uiso   1.00
N760   N     0.90143   0.22923   0.04140   0.00000  Uiso   1.00
N761   N     0.77082   0.09856   0.95860   0.00000  Uiso   1.00
N762   N     0.72631   0.40165   0.04008   0.00000  Uiso   1.00
N763   N     0.90165   0.22633   0.95992   0.00000  Uiso   1.00
N764   N     0.59859   0.27075   0.04140   0.00000  Uiso   1.00
N765   N     0.65197   0.40343   0.17851   0.00000  Uiso   1.00
N766   N     0.84829   0.09658   0.82149   0.00000  Uiso   1.00
N767   N     0.59624   0.15164   0.17853   0.00000  Uiso   1.00
N768   N     0.52366   0.34836   0.54008   0.00000  Uiso   1.00
N769   N     0.90377   0.34876   0.82146   0.00000  Uiso   1.00
N770   N     0.84784   0.09676   0.17851   0.00000  Uiso   1.00
N771   N     0.65163   0.40350   0.82149   0.00000  Uiso   1.00
N772   N     0.90370   0.34830   0.17853   0.00000  Uiso   1.00
N773   N     0.59605   0.15105   0.82146   0.00000  Uiso   1.00
N774   N     0.65146   0.09607   0.82147   0.00000  Uiso   1.00
N775   N     0.84870   0.40371   0.17854   0.00000  Uiso   1.00
N776   N     0.59654   0.34807   0.82149   0.00000  Uiso   1.00
N777   N     0.90328   0.15186   0.17851   0.00000  Uiso   1.00
N778   N     0.84836   0.40376   0.82147   0.00000  Uiso   1.00
N779   N     0.84832   0.02381   0.45992   0.00000  Uiso   1.00
N780   N     0.65124   0.09623   0.17854   0.00000  Uiso   1.00
N781   N     0.90338   0.15202   0.82149   0.00000  Uiso   1.00
N782   N     0.59653   0.34834   0.17851   0.00000  Uiso   1.00
N783   N     0.90202   0.15338   0.67851   0.00000  Uiso   1.00
N784   N     0.59833   0.34653   0.32149   0.00000  Uiso   1.00
N785   N     0.84624   0.40164   0.67853   0.00000  Uiso   1.00
N786   N     0.65377   0.09876   0.32146   0.00000  Uiso   1.00
N787   N     0.59807   0.34654   0.67851   0.00000  Uiso   1.00
N788   N     0.90186   0.15328   0.32149   0.00000  Uiso   1.00
N789   N     0.65394   0.09854   0.67853   0.00000  Uiso   1.00
N790   N     0.65145   0.47912   0.54140   0.00000  Uiso   1.00
N791   N     0.84629   0.40130   0.32147   0.00000  Uiso   1.00
N792   N     0.90170   0.34630   0.32147   0.00000  Uiso   1.00
N793   N     0.59895   0.15395   0.67854   0.00000  Uiso   1.00
N794   N     0.84676   0.09783   0.32149   0.00000  Uiso   1.00
N795   N     0.65351   0.40163   0.67852   0.00000  Uiso   1.00
N796   N     0.59836   0.15376   0.32147   0.00000  Uiso   1.00
N797   N     0.90124   0.34623   0.67854   0.00000  Uiso   1.00
N798   N     0.65343   0.40197   0.32149   0.00000  Uiso   1.00
N799   N     0.84658   0.09829   0.67851   0.00000  Uiso   1.00
N800   N     0.99171   0.31574   0.39615   0.00000  Uiso   1.00
N801   N     0.52077   0.34857   0.45860   0.00000  Uiso   1.00
N802   N     0.99563   0.18359   0.60372   0.00000  Uiso   1.00
N803   N     0.68360   0.49556   0.39629   0.00000  Uiso   1.00
N804   N     0.81575   0.49176   0.60384   0.00000  Uiso   1.00
N805   N     0.50833   0.18426   0.39615   0.00000  Uiso   1.00
N806   N     0.50437   0.31641   0.60371   0.00000  Uiso   1.00
N807   N     0.81640   0.00444   0.39629   0.00000  Uiso   1.00
N808   N     0.68425   0.00823   0.60385   0.00000  Uiso   1.00
N809   N     0.74172   0.06574   0.89615   0.00000  Uiso   1.00
N810   N     0.74558   0.43360   0.10371   0.00000  Uiso   1.00
N811   N     0.93360   0.24563   0.89629   0.00000  Uiso   1.00
N812   N     0.97640   0.15162   0.54008   0.00000  Uiso   1.00
N813   N     0.56574   0.24171   0.10386   0.00000  Uiso   1.00
N814   N     0.75827   0.43426   0.89615   0.00000  Uiso   1.00
N815   N     0.75441   0.06640   0.10371   0.00000  Uiso   1.00
N816   N     0.56641   0.25437   0.89628   0.00000  Uiso   1.00
N817   N     0.93426   0.25831   0.10385   0.00000  Uiso   1.00
N818   N     0.65167   0.47623   0.45992   0.00000  Uiso   1.00
N819   N     0.84854   0.02091   0.54140   0.00000  Uiso   1.00
N820   N     0.72921   0.40143   0.95860   0.00000  Uiso   1.00
O821   O     0.75000   0.00000   0.25000   0.00000  Uiso   1.00
O822   O     0.75000   0.46964   0.66245   0.00000  Uiso   1.00
O823   O     0.96964   0.25000   0.33755   0.00000  Uiso   1.00
O824   O     0.53037   0.25000   0.66245   0.00000  Uiso   1.00
O825   O     0.50000   0.21964   0.83755   0.00000  Uiso   1.00
O826   O     0.50000   0.28037   0.16245   0.00000  Uiso   1.00
O827   O     0.78037   0.00000   0.83755   0.00000  Uiso   1.00
O828   O     0.71964   0.00000   0.16245   0.00000  Uiso   1.00
O829   O     0.50000   0.28037   0.83755   0.00000  Uiso   1.00
O830   O     0.50000   0.21964   0.16245   0.00000  Uiso   1.00
O831   O     0.71964   0.00000   0.83755   0.00000  Uiso   1.00
O832   O     0.75000   0.00000   0.75000   0.00000  Uiso   1.00
O833   O     0.78037   0.00000   0.16245   0.00000  Uiso   1.00
O834   O     0.70725   0.07308   0.27302   0.00000  Uiso   1.00
O835   O     0.79276   0.42693   0.72698   0.00000  Uiso   1.00
O836   O     0.92693   0.20725   0.27302   0.00000  Uiso   1.00
O837   O     0.57308   0.29276   0.72698   0.00000  Uiso   1.00
O838   O     0.79276   0.42693   0.27302   0.00000  Uiso   1.00
O839   O     0.70725   0.07308   0.72698   0.00000  Uiso   1.00
O840   O     0.57308   0.29276   0.27302   0.00000  Uiso   1.00
O841   O     0.92693   0.20725   0.72698   0.00000  Uiso   1.00
O842   O     0.70725   0.42693   0.72698   0.00000  Uiso   1.00
O843   O     0.50000   0.25000   0.25000   0.00000  Uiso   1.00
O844   O     0.79276   0.07308   0.27302   0.00000  Uiso   1.00
O845   O     0.92693   0.29276   0.72698   0.00000  Uiso   1.00
O846   O     0.57308   0.20725   0.27302   0.00000  Uiso   1.00
O847   O     0.79276   0.07308   0.72698   0.00000  Uiso   1.00
O848   O     0.70725   0.42693   0.27302   0.00000  Uiso   1.00
O849   O     0.57308   0.20725   0.72698   0.00000  Uiso   1.00
O850   O     0.92693   0.29276   0.27302   0.00000  Uiso   1.00
O851   O     0.95725   0.32308   0.77302   0.00000  Uiso   1.00
O852   O     0.54276   0.17693   0.22698   0.00000  Uiso   1.00
O853   O     0.67693   0.45725   0.77302   0.00000  Uiso   1.00
O854   O     0.50000   0.25000   0.75000   0.00000  Uiso   1.00
O855   O     0.82308   0.04276   0.22698   0.00000  Uiso   1.00
O856   O     0.54276   0.17693   0.77302   0.00000  Uiso   1.00
O857   O     0.95725   0.32308   0.22698   0.00000  Uiso   1.00
O858   O     0.82308   0.04276   0.77302   0.00000  Uiso   1.00
O859   O     0.67693   0.45725   0.22698   0.00000  Uiso   1.00
O860   O     0.95725   0.17693   0.22698   0.00000  Uiso   1.00
O861   O     0.54276   0.32308   0.77302   0.00000  Uiso   1.00
O862   O     0.67693   0.04276   0.22698   0.00000  Uiso   1.00
O863   O     0.82308   0.45725   0.77302   0.00000  Uiso   1.00
O864   O     0.54276   0.32308   0.22698   0.00000  Uiso   1.00
O865   O     0.75000   0.46964   0.33755   0.00000  Uiso   1.00
O866   O     0.95725   0.17693   0.77302   0.00000  Uiso   1.00
O867   O     0.82308   0.45725   0.22698   0.00000  Uiso   1.00
O868   O     0.67693   0.04276   0.77302   0.00000  Uiso   1.00
O869   O     0.75000   0.03037   0.66245   0.00000  Uiso   1.00
O870   O     0.53037   0.25000   0.33755   0.00000  Uiso   1.00
O871   O     0.96964   0.25000   0.66245   0.00000  Uiso   1.00
O872   O     0.75000   0.03037   0.33755   0.00000  Uiso   1.00
Zn873  Zn    0.70660   0.00000   0.21735   0.00000  Uiso   1.00
Zn874  Zn    0.54341   0.25000   0.28265   0.00000  Uiso   1.00
Zn875  Zn    0.75000   0.45660   0.71735   0.00000  Uiso   1.00
Zn876  Zn    0.75000   0.04341   0.28265   0.00000  Uiso   1.00
Zn877  Zn    0.54341   0.25000   0.71735   0.00000  Uiso   1.00
Zn878  Zn    0.95660   0.25000   0.28265   0.00000  Uiso   1.00
Zn879  Zn    0.75000   0.04341   0.71735   0.00000  Uiso   1.00
Zn880  Zn    0.75000   0.45660   0.28265   0.00000  Uiso   1.00
Zn881  Zn    0.79341   0.00000   0.78265   0.00000  Uiso   1.00
Zn882  Zn    0.50000   0.20660   0.21735   0.00000  Uiso   1.00
Zn883  Zn    0.50000   0.29341   0.78265   0.00000  Uiso   1.00
Zn884  Zn    0.79341   0.00000   0.21735   0.00000  Uiso   1.00
Zn885  Zn    0.70660   0.00000   0.78265   0.00000  Uiso   1.00
Zn886  Zn    0.50000   0.29341   0.21735   0.00000  Uiso   1.00
Zn887  Zn    0.50000   0.20660   0.78265   0.00000  Uiso   1.00
Zn888  Zn    0.95660   0.25000   0.71735   0.00000  Uiso   1.00
C889   C     0.49927   0.78328   0.41769   0.00000  Uiso   1.00
C890   C     0.24644   0.96685   0.08214   0.00000  Uiso   1.00
C891   C     0.21649   0.99688   0.54135   0.00000  Uiso   1.00
C892   C     0.00309   0.78350   0.45865   0.00000  Uiso   1.00
C893   C     0.49478   0.71669   0.54102   0.00000  Uiso   1.00
C894   C     0.21670   0.99473   0.45898   0.00000  Uiso   1.00
C895   C     0.28350   0.50313   0.54135   0.00000  Uiso   1.00
C896   C     0.24690   0.96649   0.95865   0.00000  Uiso   1.00
C897   C     0.25525   0.53330   0.04102   0.00000  Uiso   1.00
C898   C     0.03331   0.75522   0.95898   0.00000  Uiso   1.00
C899   C     0.46650   0.74691   0.04135   0.00000  Uiso   1.00
C900   C     0.25310   0.53350   0.95865   0.00000  Uiso   1.00
C901   C     0.46685   0.74646   0.91786   0.00000  Uiso   1.00
C902   C     0.24475   0.96670   0.04102   0.00000  Uiso   1.00
C903   C     0.46671   0.74476   0.95898   0.00000  Uiso   1.00
C904   C     0.03351   0.75308   0.04136   0.00000  Uiso   1.00
C905   C     0.09812   0.84812   0.25000   0.00000  Uiso   1.00
C906   C     0.40193   0.65193   0.75000   0.00000  Uiso   1.00
C907   C     0.15186   0.59814   0.25000   0.00000  Uiso   1.00
C908   C     0.34805   0.90195   0.75000   0.00000  Uiso   1.00
C909   C     0.40188   0.65188   0.25000   0.00000  Uiso   1.00
C910   C     0.09807   0.84807   0.75000   0.00000  Uiso   1.00
C911   C     0.34814   0.90186   0.25000   0.00000  Uiso   1.00
C912   C     0.03329   0.74926   0.08231   0.00000  Uiso   1.00
C913   C     0.15195   0.59806   0.75000   0.00000  Uiso   1.00
C914   C     0.09814   0.65186   0.75000   0.00000  Uiso   1.00
C915   C     0.40195   0.84806   0.25000   0.00000  Uiso   1.00
C916   C     0.15188   0.90188   0.75000   0.00000  Uiso   1.00
C917   C     0.34807   0.59807   0.25000   0.00000  Uiso   1.00
C918   C     0.40186   0.84814   0.75000   0.00000  Uiso   1.00
C919   C     0.09805   0.65195   0.25000   0.00000  Uiso   1.00
C920   C     0.34812   0.59812   0.75000   0.00000  Uiso   1.00
C921   C     0.15193   0.90193   0.25000   0.00000  Uiso   1.00
C922   C     0.00001   0.75000   0.47928   0.00000  Uiso   1.00
C923   C     0.25072   0.96671   0.91769   0.00000  Uiso   1.00
C924   C     0.00001   0.75000   0.52046   0.00000  Uiso   1.00
C925   C     0.25000   0.50001   0.47954   0.00000  Uiso   1.00
C926   C     0.25000   0.50001   0.52072   0.00000  Uiso   1.00
C927   C     0.25000   0.50000   0.97928   0.00000  Uiso   1.00
C928   C     0.25000   0.50000   0.02046   0.00000  Uiso   1.00
C929   C     0.00001   0.74999   0.97954   0.00000  Uiso   1.00
C930   C     0.00001   0.74999   0.02072   0.00000  Uiso   1.00
C931   C     0.02076   0.83079   0.37248   0.00000  Uiso   1.00
C932   C     0.03101   0.66710   0.60952   0.00000  Uiso   1.00
C933   C     0.16706   0.53092   0.39052   0.00000  Uiso   1.00
C934   C     0.25355   0.53315   0.08214   0.00000  Uiso   1.00
C935   C     0.33078   0.52082   0.62752   0.00000  Uiso   1.00
C936   C     0.47928   0.66920   0.37248   0.00000  Uiso   1.00
C937   C     0.46899   0.83291   0.60946   0.00000  Uiso   1.00
C938   C     0.33294   0.96908   0.39055   0.00000  Uiso   1.00
C939   C     0.16922   0.97916   0.62752   0.00000  Uiso   1.00
C940   C     0.27077   0.58079   0.87248   0.00000  Uiso   1.00
C941   C     0.28094   0.91707   0.10949   0.00000  Uiso   1.00
C942   C     0.41709   0.78101   0.89054   0.00000  Uiso   1.00
C943   C     0.08080   0.77077   0.12752   0.00000  Uiso   1.00
C944   C     0.22921   0.91921   0.87248   0.00000  Uiso   1.00
C945   C     0.03316   0.75353   0.91786   0.00000  Uiso   1.00
C946   C     0.21904   0.58293   0.10948   0.00000  Uiso   1.00
C947   C     0.08290   0.71899   0.89048   0.00000  Uiso   1.00
C948   C     0.41920   0.72927   0.12752   0.00000  Uiso   1.00
C949   C     0.46672   0.75074   0.08231   0.00000  Uiso   1.00
C950   C     0.00000   0.75000   0.39786   0.00000  Uiso   1.00
C951   C     0.00000   0.75000   0.60203   0.00000  Uiso   1.00
C952   C     0.25000   0.50000   0.39797   0.00000  Uiso   1.00
C953   C     0.49647   0.71684   0.58214   0.00000  Uiso   1.00
C954   C     0.25000   0.50000   0.60214   0.00000  Uiso   1.00
C955   C     0.25000   0.50000   0.89786   0.00000  Uiso   1.00
C956   C     0.25000   0.50000   0.10203   0.00000  Uiso   1.00
C957   C     0.00000   0.75000   0.89797   0.00000  Uiso   1.00
C958   C     0.00000   0.75000   0.10214   0.00000  Uiso   1.00
C959   C     0.48878   0.68411   0.47922   0.00000  Uiso   1.00
C960   C     0.01281   0.81570   0.52004   0.00000  Uiso   1.00
C961   C     0.31568   0.51290   0.47996   0.00000  Uiso   1.00
C962   C     0.18413   0.98867   0.52078   0.00000  Uiso   1.00
C963   C     0.01126   0.81588   0.47922   0.00000  Uiso   1.00
C964   C     0.21685   0.99643   0.41786   0.00000  Uiso   1.00
C965   C     0.48723   0.68428   0.52004   0.00000  Uiso   1.00
C966   C     0.18430   0.98713   0.47996   0.00000  Uiso   1.00
C967   C     0.31586   0.51135   0.52078   0.00000  Uiso   1.00
C968   C     0.23872   0.93412   0.97922   0.00000  Uiso   1.00
C969   C     0.26284   0.56570   0.02004   0.00000  Uiso   1.00
C970   C     0.06572   0.76278   0.97996   0.00000  Uiso   1.00
C971   C     0.43412   0.73874   0.02078   0.00000  Uiso   1.00
C972   C     0.26129   0.56588   0.97922   0.00000  Uiso   1.00
C973   C     0.23717   0.93430   0.02004   0.00000  Uiso   1.00
C974   C     0.43430   0.73719   0.97996   0.00000  Uiso   1.00
C975   C     0.28328   0.99930   0.58231   0.00000  Uiso   1.00
C976   C     0.06589   0.76123   0.02078   0.00000  Uiso   1.00
C977   C     0.25000   0.50000   0.35570   0.00000  Uiso   1.00
C978   C     0.25000   0.50000   0.64433   0.00000  Uiso   1.00
C979   C     0.00000   0.75000   0.35567   0.00000  Uiso   1.00
C980   C     0.00000   0.75000   0.64430   0.00000  Uiso   1.00
C981   C     0.00000   0.75000   0.85570   0.00000  Uiso   1.00
C982   C     0.00000   0.75000   0.14433   0.00000  Uiso   1.00
C983   C     0.25000   0.50000   0.85567   0.00000  Uiso   1.00
C984   C     0.25000   0.50000   0.14430   0.00000  Uiso   1.00
C985   C     0.17997   0.57003   0.25000   0.00000  Uiso   1.00
C986   C     0.00075   0.71671   0.41769   0.00000  Uiso   1.00
C987   C     0.32000   0.93000   0.75000   0.00000  Uiso   1.00
C988   C     0.42998   0.67998   0.25000   0.00000  Uiso   1.00
C989   C     0.07000   0.82000   0.75000   0.00000  Uiso   1.00
C990   C     0.32003   0.92997   0.25000   0.00000  Uiso   1.00
C991   C     0.18000   0.57000   0.75000   0.00000  Uiso   1.00
C992   C     0.07002   0.82002   0.25000   0.00000  Uiso   1.00
C993   C     0.43000   0.68000   0.75000   0.00000  Uiso   1.00
C994   C     0.17998   0.92998   0.75000   0.00000  Uiso   1.00
C995   C     0.32000   0.57000   0.25000   0.00000  Uiso   1.00
C996   C     0.42997   0.82003   0.75000   0.00000  Uiso   1.00
C997   C     0.00354   0.78315   0.58214   0.00000  Uiso   1.00
C998   C     0.07000   0.68000   0.25000   0.00000  Uiso   1.00
C999   C     0.32002   0.57002   0.75000   0.00000  Uiso   1.00
C1000  C     0.18000   0.93000   0.25000   0.00000  Uiso   1.00
C1001  C     0.07003   0.67997   0.75000   0.00000  Uiso   1.00
C1002  C     0.43000   0.82000   0.25000   0.00000  Uiso   1.00
C1003  C     0.13781   0.88934   0.21444   0.00000  Uiso   1.00
C1004  C     0.36230   0.61072   0.78555   0.00000  Uiso   1.00
C1005  C     0.11047   0.63765   0.21446   0.00000  Uiso   1.00
C1006  C     0.38946   0.86254   0.78553   0.00000  Uiso   1.00
C1007  C     0.36210   0.61075   0.21444   0.00000  Uiso   1.00
C1008  C     0.28315   0.50358   0.41786   0.00000  Uiso   1.00
C1009  C     0.13766   0.88932   0.78555   0.00000  Uiso   1.00
C1010  C     0.38951   0.86233   0.21446   0.00000  Uiso   1.00
C1011  C     0.11046   0.63737   0.78553   0.00000  Uiso   1.00
C1012  C     0.13756   0.61038   0.78553   0.00000  Uiso   1.00
C1013  C     0.36251   0.88943   0.21447   0.00000  Uiso   1.00
C1014  C     0.11064   0.86221   0.78556   0.00000  Uiso   1.00
C1015  C     0.38921   0.63777   0.21445   0.00000  Uiso   1.00
C1016  C     0.36236   0.88954   0.78554   0.00000  Uiso   1.00
C1017  C     0.13746   0.61055   0.21447   0.00000  Uiso   1.00
C1018  C     0.38932   0.63783   0.78556   0.00000  Uiso   1.00
C1019  C     0.21671   0.50070   0.58231   0.00000  Uiso   1.00
C1020  C     0.11070   0.86232   0.21445   0.00000  Uiso   1.00
C1021  C     0.38783   0.63932   0.71444   0.00000  Uiso   1.00
C1022  C     0.11232   0.86070   0.28555   0.00000  Uiso   1.00
C1023  C     0.36046   0.88765   0.71446   0.00000  Uiso   1.00
C1024  C     0.13945   0.61254   0.28553   0.00000  Uiso   1.00
C1025  C     0.11221   0.86064   0.71444   0.00000  Uiso   1.00
C1026  C     0.38777   0.63921   0.28556   0.00000  Uiso   1.00
C1027  C     0.13962   0.61244   0.71447   0.00000  Uiso   1.00
C1028  C     0.36057   0.88749   0.28553   0.00000  Uiso   1.00
C1029  C     0.38768   0.86050   0.28554   0.00000  Uiso   1.00
C1030  C     0.24928   0.53328   0.91769   0.00000  Uiso   1.00
C1031  C     0.11263   0.63955   0.71448   0.00000  Uiso   1.00
C1032  C     0.36075   0.61210   0.28556   0.00000  Uiso   1.00
C1033  C     0.13932   0.88766   0.71445   0.00000  Uiso   1.00
C1034  C     0.11235   0.63953   0.28554   0.00000  Uiso   1.00
C1035  C     0.38746   0.86054   0.71447   0.00000  Uiso   1.00
C1036  C     0.13934   0.88781   0.28556   0.00000  Uiso   1.00
C1037  C     0.36072   0.61230   0.71445   0.00000  Uiso   1.00
C1038  C     0.49693   0.71649   0.45865   0.00000  Uiso   1.00
C1039  C     0.00524   0.78330   0.54102   0.00000  Uiso   1.00
C1040  C     0.28329   0.50528   0.45898   0.00000  Uiso   1.00
H1041  H     0.45243   0.64413   0.46518   0.00000  Uiso   1.00
H1042  H     0.00316   0.86959   0.46681   0.00000  Uiso   1.00
H1043  H     0.04631   0.81470   0.37522   0.00000  Uiso   1.00
H1044  H     0.47999   0.68405   0.62861   0.00000  Uiso   1.00
H1045  H     0.02764   0.64037   0.62423   0.00000  Uiso   1.00
H1046  H     0.04836   0.68496   0.62788   0.00000  Uiso   1.00
H1047  H     0.04476   0.66247   0.58117   0.00000  Uiso   1.00
H1048  H     0.18406   0.97993   0.37138   0.00000  Uiso   1.00
H1049  H     0.14033   0.52753   0.37581   0.00000  Uiso   1.00
H1050  H     0.18490   0.54830   0.37217   0.00000  Uiso   1.00
H1051  H     0.16240   0.54464   0.41888   0.00000  Uiso   1.00
H1052  H     0.33423   0.97393   0.59167   0.00000  Uiso   1.00
H1053  H     0.45011   0.64422   0.53142   0.00000  Uiso   1.00
H1054  H     0.35928   0.52665   0.61857   0.00000  Uiso   1.00
H1055  H     0.33095   0.51215   0.65842   0.00000  Uiso   1.00
H1056  H     0.31467   0.54637   0.62478   0.00000  Uiso   1.00
H1057  H     0.02619   0.66580   0.40830   0.00000  Uiso   1.00
H1058  H     0.47348   0.64069   0.38143   0.00000  Uiso   1.00
H1059  H     0.48795   0.66903   0.34157   0.00000  Uiso   1.00
H1060  H     0.45372   0.68528   0.37522   0.00000  Uiso   1.00
H1061  H     0.01999   0.81595   0.62862   0.00000  Uiso   1.00
H1062  H     0.47235   0.85964   0.62417   0.00000  Uiso   1.00
H1063  H     0.45162   0.81506   0.62781   0.00000  Uiso   1.00
H1064  H     0.49460   0.63062   0.53340   0.00000  Uiso   1.00
H1065  H     0.45528   0.83754   0.58109   0.00000  Uiso   1.00
H1066  H     0.31593   0.52005   0.37137   0.00000  Uiso   1.00
H1067  H     0.35966   0.97246   0.37582   0.00000  Uiso   1.00
H1068  H     0.31510   0.95167   0.37224   0.00000  Uiso   1.00
H1069  H     0.33762   0.95540   0.41893   0.00000  Uiso   1.00
H1070  H     0.16576   0.52607   0.59170   0.00000  Uiso   1.00
H1071  H     0.14072   0.97333   0.61857   0.00000  Uiso   1.00
H1072  H     0.16905   0.98782   0.65843   0.00000  Uiso   1.00
H1073  H     0.18533   0.95362   0.62477   0.00000  Uiso   1.00
H1074  H     0.22387   0.58422   0.90831   0.00000  Uiso   1.00
H1075  H     0.14433   0.94993   0.46858   0.00000  Uiso   1.00
H1076  H     0.27658   0.60929   0.88143   0.00000  Uiso   1.00
H1077  H     0.26210   0.58096   0.84157   0.00000  Uiso   1.00
H1078  H     0.29632   0.56470   0.87522   0.00000  Uiso   1.00
H1079  H     0.22995   0.93406   0.12862   0.00000  Uiso   1.00
H1080  H     0.27755   0.89034   0.12421   0.00000  Uiso   1.00
H1081  H     0.29831   0.93491   0.12785   0.00000  Uiso   1.00
H1082  H     0.29467   0.91242   0.08114   0.00000  Uiso   1.00
H1083  H     0.43405   0.73001   0.87138   0.00000  Uiso   1.00
H1084  H     0.39036   0.77765   0.87583   0.00000  Uiso   1.00
H1085  H     0.43495   0.79838   0.87219   0.00000  Uiso   1.00
H1086  H     0.13063   0.99438   0.46660   0.00000  Uiso   1.00
H1087  H     0.41246   0.79472   0.91891   0.00000  Uiso   1.00
H1088  H     0.08421   0.72384   0.09172   0.00000  Uiso   1.00
H1089  H     0.10930   0.77658   0.11856   0.00000  Uiso   1.00
H1090  H     0.08097   0.76211   0.15843   0.00000  Uiso   1.00
H1091  H     0.06470   0.79632   0.12477   0.00000  Uiso   1.00
H1092  H     0.27612   0.91578   0.90829   0.00000  Uiso   1.00
H1093  H     0.22339   0.89071   0.88144   0.00000  Uiso   1.00
H1094  H     0.23787   0.91904   0.84157   0.00000  Uiso   1.00
H1095  H     0.20366   0.93531   0.87523   0.00000  Uiso   1.00
H1096  H     0.27003   0.56594   0.12862   0.00000  Uiso   1.00
H1097  H     0.35576   0.54777   0.53482   0.00000  Uiso   1.00
H1098  H     0.22242   0.60965   0.12419   0.00000  Uiso   1.00
H1099  H     0.20166   0.56508   0.12782   0.00000  Uiso   1.00
H1100  H     0.20532   0.58758   0.08111   0.00000  Uiso   1.00
H1101  H     0.06595   0.77001   0.87139   0.00000  Uiso   1.00
H1102  H     0.10963   0.72236   0.87577   0.00000  Uiso   1.00
H1103  H     0.06504   0.70165   0.87211   0.00000  Uiso   1.00
H1104  H     0.08753   0.70524   0.91883   0.00000  Uiso   1.00
H1105  H     0.41580   0.77617   0.09169   0.00000  Uiso   1.00
H1106  H     0.39070   0.72347   0.11857   0.00000  Uiso   1.00
H1107  H     0.41903   0.73794   0.15843   0.00000  Uiso   1.00
H1108  H     0.36959   0.50334   0.53319   0.00000  Uiso   1.00
H1109  H     0.43529   0.70371   0.12479   0.00000  Uiso   1.00
H1110  H     0.20236   0.89416   0.96517   0.00000  Uiso   1.00
H1111  H     0.24680   0.88040   0.96682   0.00000  Uiso   1.00
H1112  H     0.30001   0.60571   0.03142   0.00000  Uiso   1.00
H1113  H     0.49688   0.63040   0.46681   0.00000  Uiso   1.00
H1114  H     0.25554   0.61937   0.03340   0.00000  Uiso   1.00
H1115  H     0.10577   0.79990   0.96857   0.00000  Uiso   1.00
H1116  H     0.11938   0.75542   0.96660   0.00000  Uiso   1.00
H1117  H     0.39416   0.70238   0.03482   0.00000  Uiso   1.00
H1118  H     0.38041   0.74684   0.03319   0.00000  Uiso   1.00
H1119  H     0.29767   0.60582   0.96518   0.00000  Uiso   1.00
H1120  H     0.25322   0.61959   0.96681   0.00000  Uiso   1.00
H1121  H     0.20002   0.89426   0.03140   0.00000  Uiso   1.00
H1122  H     0.24449   0.88063   0.03342   0.00000  Uiso   1.00
H1123  H     0.39428   0.70004   0.96858   0.00000  Uiso   1.00
H1124  H     0.04996   0.85573   0.53142   0.00000  Uiso   1.00
H1125  H     0.38063   0.74451   0.96660   0.00000  Uiso   1.00
H1126  H     0.10587   0.79759   0.03481   0.00000  Uiso   1.00
H1127  H     0.11960   0.75313   0.03319   0.00000  Uiso   1.00
H1128  H     0.16327   0.88200   0.16255   0.00000  Uiso   1.00
H1129  H     0.13058   0.91487   0.16260   0.00000  Uiso   1.00
H1130  H     0.33728   0.61805   0.83761   0.00000  Uiso   1.00
H1131  H     0.36972   0.58497   0.83720   0.00000  Uiso   1.00
H1132  H     0.11760   0.66293   0.16242   0.00000  Uiso   1.00
H1133  H     0.08474   0.63017   0.16276   0.00000  Uiso   1.00
H1134  H     0.38234   0.83794   0.83780   0.00000  Uiso   1.00
H1135  H     0.00549   0.86937   0.53340   0.00000  Uiso   1.00
H1136  H     0.41553   0.87029   0.83692   0.00000  Uiso   1.00
H1137  H     0.33649   0.61824   0.16266   0.00000  Uiso   1.00
H1138  H     0.36918   0.58537   0.16249   0.00000  Uiso   1.00
H1139  H     0.16261   0.88205   0.83766   0.00000  Uiso   1.00
H1140  H     0.13018   0.91513   0.83715   0.00000  Uiso   1.00
H1141  H     0.38233   0.83700   0.16245   0.00000  Uiso   1.00
H1142  H     0.41519   0.86976   0.16272   0.00000  Uiso   1.00
H1143  H     0.11744   0.66183   0.83790   0.00000  Uiso   1.00
H1144  H     0.08424   0.62948   0.83682   0.00000  Uiso   1.00
H1145  H     0.16271   0.61739   0.83767   0.00000  Uiso   1.00
H1146  H     0.35564   0.55012   0.46858   0.00000  Uiso   1.00
H1147  H     0.12995   0.58452   0.83715   0.00000  Uiso   1.00
H1148  H     0.33786   0.88226   0.16223   0.00000  Uiso   1.00
H1149  H     0.37022   0.91545   0.16304   0.00000  Uiso   1.00
H1150  H     0.11796   0.83678   0.83748   0.00000  Uiso   1.00
H1151  H     0.08509   0.86947   0.83738   0.00000  Uiso   1.00
H1152  H     0.38177   0.66290   0.16247   0.00000  Uiso   1.00
H1153  H     0.41485   0.63046   0.16272   0.00000  Uiso   1.00
H1154  H     0.33707   0.88240   0.83758   0.00000  Uiso   1.00
H1155  H     0.36983   0.91526   0.83724   0.00000  Uiso   1.00
H1156  H     0.16207   0.61767   0.16220   0.00000  Uiso   1.00
H1157  H     0.36936   0.50567   0.46659   0.00000  Uiso   1.00
H1158  H     0.12971   0.58448   0.16307   0.00000  Uiso   1.00
H1159  H     0.38193   0.66334   0.83743   0.00000  Uiso   1.00
H1160  H     0.41480   0.63064   0.83743   0.00000  Uiso   1.00
H1161  H     0.11800   0.83734   0.16236   0.00000  Uiso   1.00
H1162  H     0.08491   0.86978   0.16283   0.00000  Uiso   1.00
H1163  H     0.41334   0.63194   0.66258   0.00000  Uiso   1.00
H1164  H     0.38064   0.66481   0.66257   0.00000  Uiso   1.00
H1165  H     0.08734   0.86799   0.33764   0.00000  Uiso   1.00
H1166  H     0.11978   0.83491   0.33717   0.00000  Uiso   1.00
H1167  H     0.36760   0.91293   0.66242   0.00000  Uiso   1.00
H1168  H     0.14421   0.95226   0.53482   0.00000  Uiso   1.00
H1169  H     0.33474   0.88017   0.66276   0.00000  Uiso   1.00
H1170  H     0.13233   0.58792   0.33780   0.00000  Uiso   1.00
H1171  H     0.16552   0.62028   0.33693   0.00000  Uiso   1.00
H1172  H     0.08678   0.86796   0.66253   0.00000  Uiso   1.00
H1173  H     0.11947   0.83508   0.66262   0.00000  Uiso   1.00
H1174  H     0.41290   0.63177   0.33753   0.00000  Uiso   1.00
H1175  H     0.38046   0.66485   0.33728   0.00000  Uiso   1.00
H1176  H     0.13261   0.58730   0.66233   0.00000  Uiso   1.00
H1177  H     0.16548   0.62005   0.66286   0.00000  Uiso   1.00
H1178  H     0.36774   0.91215   0.33777   0.00000  Uiso   1.00
H1179  H     0.13041   0.99670   0.53319   0.00000  Uiso   1.00
H1180  H     0.33455   0.87979   0.33696   0.00000  Uiso   1.00
H1181  H     0.41300   0.86768   0.33755   0.00000  Uiso   1.00
H1182  H     0.38025   0.83481   0.33728   0.00000  Uiso   1.00
H1183  H     0.08817   0.63256   0.66210   0.00000  Uiso   1.00
H1184  H     0.12052   0.66576   0.66318   0.00000  Uiso   1.00
H1185  H     0.36824   0.58648   0.33735   0.00000  Uiso   1.00
H1186  H     0.33537   0.61918   0.33751   0.00000  Uiso   1.00
H1187  H     0.13205   0.91261   0.66234   0.00000  Uiso   1.00
H1188  H     0.16514   0.88017   0.66285   0.00000  Uiso   1.00
H1189  H     0.08707   0.63240   0.33758   0.00000  Uiso   1.00
H1190  H     0.04762   0.85585   0.46518   0.00000  Uiso   1.00
H1191  H     0.11983   0.66526   0.33725   0.00000  Uiso   1.00
H1192  H     0.41206   0.86767   0.66220   0.00000  Uiso   1.00
H1193  H     0.37971   0.83447   0.66308   0.00000  Uiso   1.00
H1194  H     0.13200   0.91327   0.33745   0.00000  Uiso   1.00
H1195  H     0.16487   0.88058   0.33740   0.00000  Uiso   1.00
H1196  H     0.36805   0.58729   0.66239   0.00000  Uiso   1.00
H1197  H     0.33497   0.61972   0.66280   0.00000  Uiso   1.00
H1198  H     0.47385   0.83421   0.40830   0.00000  Uiso   1.00
H1199  H     0.02657   0.85930   0.38143   0.00000  Uiso   1.00
H1200  H     0.01209   0.83097   0.34157   0.00000  Uiso   1.00
N1201  N     0.47927   0.65142   0.45860   0.00000  Uiso   1.00
N1202  N     0.27371   0.59835   0.04007   0.00000  Uiso   1.00
N1203  N     0.09838   0.77361   0.95992   0.00000  Uiso   1.00
N1204  N     0.40143   0.72923   0.04140   0.00000  Uiso   1.00
N1205  N     0.27082   0.59856   0.95860   0.00000  Uiso   1.00
N1206  N     0.22631   0.90165   0.04008   0.00000  Uiso   1.00
N1207  N     0.40165   0.72633   0.95992   0.00000  Uiso   1.00
N1208  N     0.09859   0.77075   0.04140   0.00000  Uiso   1.00
N1209  N     0.15197   0.90343   0.17851   0.00000  Uiso   1.00
N1210  N     0.34829   0.59658   0.82149   0.00000  Uiso   1.00
N1211  N     0.09624   0.65164   0.17853   0.00000  Uiso   1.00
N1212  N     0.02366   0.84836   0.54008   0.00000  Uiso   1.00
N1213  N     0.40377   0.84876   0.82146   0.00000  Uiso   1.00
N1214  N     0.34784   0.59676   0.17851   0.00000  Uiso   1.00
N1215  N     0.15163   0.90350   0.82149   0.00000  Uiso   1.00
N1216  N     0.40370   0.84830   0.17853   0.00000  Uiso   1.00
N1217  N     0.09605   0.65105   0.82146   0.00000  Uiso   1.00
N1218  N     0.15146   0.59607   0.82147   0.00000  Uiso   1.00
N1219  N     0.34870   0.90371   0.17854   0.00000  Uiso   1.00
N1220  N     0.09654   0.84807   0.82149   0.00000  Uiso   1.00
N1221  N     0.40328   0.65186   0.17851   0.00000  Uiso   1.00
N1222  N     0.34836   0.90376   0.82147   0.00000  Uiso   1.00
N1223  N     0.34832   0.52381   0.45992   0.00000  Uiso   1.00
N1224  N     0.15124   0.59623   0.17854   0.00000  Uiso   1.00
N1225  N     0.40338   0.65202   0.82149   0.00000  Uiso   1.00
N1226  N     0.09653   0.84834   0.17851   0.00000  Uiso   1.00
N1227  N     0.40202   0.65338   0.67851   0.00000  Uiso   1.00
N1228  N     0.09833   0.84653   0.32149   0.00000  Uiso   1.00
N1229  N     0.34624   0.90164   0.67853   0.00000  Uiso   1.00
N1230  N     0.15377   0.59876   0.32146   0.00000  Uiso   1.00
N1231  N     0.09807   0.84654   0.67851   0.00000  Uiso   1.00
N1232  N     0.40186   0.65328   0.32149   0.00000  Uiso   1.00
N1233  N     0.15394   0.59854   0.67853   0.00000  Uiso   1.00
N1234  N     0.15145   0.97912   0.54140   0.00000  Uiso   1.00
N1235  N     0.34629   0.90130   0.32147   0.00000  Uiso   1.00
N1236  N     0.40170   0.84630   0.32147   0.00000  Uiso   1.00
N1237  N     0.09895   0.65395   0.67854   0.00000  Uiso   1.00
N1238  N     0.34676   0.59783   0.32149   0.00000  Uiso   1.00
N1239  N     0.15351   0.90163   0.67852   0.00000  Uiso   1.00
N1240  N     0.09836   0.65376   0.32147   0.00000  Uiso   1.00
N1241  N     0.40124   0.84623   0.67854   0.00000  Uiso   1.00
N1242  N     0.15343   0.90197   0.32149   0.00000  Uiso   1.00
N1243  N     0.34658   0.59829   0.67851   0.00000  Uiso   1.00
N1244  N     0.49171   0.81574   0.39615   0.00000  Uiso   1.00
N1245  N     0.02077   0.84857   0.45860   0.00000  Uiso   1.00
N1246  N     0.49563   0.68359   0.60372   0.00000  Uiso   1.00
N1247  N     0.18360   0.99556   0.39629   0.00000  Uiso   1.00
N1248  N     0.31575   0.99176   0.60384   0.00000  Uiso   1.00
N1249  N     0.00833   0.68426   0.39615   0.00000  Uiso   1.00
N1250  N     0.00437   0.81641   0.60371   0.00000  Uiso   1.00
N1251  N     0.31640   0.50444   0.39629   0.00000  Uiso   1.00
N1252  N     0.18425   0.50823   0.60385   0.00000  Uiso   1.00
N1253  N     0.24172   0.56574   0.89615   0.00000  Uiso   1.00
N1254  N     0.24558   0.93360   0.10371   0.00000  Uiso   1.00
N1255  N     0.43360   0.74563   0.89629   0.00000  Uiso   1.00
N1256  N     0.47640   0.65162   0.54008   0.00000  Uiso   1.00
N1257  N     0.06574   0.74171   0.10386   0.00000  Uiso   1.00
N1258  N     0.25827   0.93426   0.89615   0.00000  Uiso   1.00
N1259  N     0.25441   0.56640   0.10371   0.00000  Uiso   1.00
N1260  N     0.06641   0.75437   0.89628   0.00000  Uiso   1.00
N1261  N     0.43426   0.75831   0.10385   0.00000  Uiso   1.00
N1262  N     0.15167   0.97623   0.45992   0.00000  Uiso   1.00
N1263  N     0.34854   0.52091   0.54140   0.00000  Uiso   1.00
N1264  N     0.22921   0.90143   0.95860   0.00000  Uiso   1.00
O1265  O     0.25000   0.50000   0.25000   0.00000  Uiso   1.00
O1266  O     0.25000   0.96964   0.66245   0.00000  Uiso   1.00
O1267  O     0.46964   0.75000   0.33755   0.00000  Uiso   1.00
O1268  O     0.03037   0.75000   0.66245   0.00000  Uiso   1.00
O1269  O     0.00000   0.71964   0.83755   0.00000  Uiso   1.00
O1270  O     0.00000   0.78037   0.16245   0.00000  Uiso   1.00
O1271  O     0.28037   0.50000   0.83755   0.00000  Uiso   1.00
O1272  O     0.21964   0.50000   0.16245   0.00000  Uiso   1.00
O1273  O     0.00000   0.78037   0.83755   0.00000  Uiso   1.00
O1274  O     0.00000   0.71964   0.16245   0.00000  Uiso   1.00
O1275  O     0.21964   0.50000   0.83755   0.00000  Uiso   1.00
O1276  O     0.25000   0.50000   0.75000   0.00000  Uiso   1.00
O1277  O     0.28037   0.50000   0.16245   0.00000  Uiso   1.00
O1278  O     0.20725   0.57308   0.27302   0.00000  Uiso   1.00
O1279  O     0.29276   0.92693   0.72698   0.00000  Uiso   1.00
O1280  O     0.42693   0.70725   0.27302   0.00000  Uiso   1.00
O1281  O     0.07308   0.79276   0.72698   0.00000  Uiso   1.00
O1282  O     0.29276   0.92693   0.27302   0.00000  Uiso   1.00
O1283  O     0.20725   0.57308   0.72698   0.00000  Uiso   1.00
O1284  O     0.07308   0.79276   0.27302   0.00000  Uiso   1.00
O1285  O     0.42693   0.70725   0.72698   0.00000  Uiso   1.00
O1286  O     0.20725   0.92693   0.72698   0.00000  Uiso   1.00
O1287  O     0.00000   0.75000   0.25000   0.00000  Uiso   1.00
O1288  O     0.29276   0.57308   0.27302   0.00000  Uiso   1.00
O1289  O     0.42693   0.79276   0.72698   0.00000  Uiso   1.00
O1290  O     0.07308   0.70725   0.27302   0.00000  Uiso   1.00
O1291  O     0.29276   0.57308   0.72698   0.00000  Uiso   1.00
O1292  O     0.20725   0.92693   0.27302   0.00000  Uiso   1.00
O1293  O     0.07308   0.70725   0.72698   0.00000  Uiso   1.00
O1294  O     0.42693   0.79276   0.27302   0.00000  Uiso   1.00
O1295  O     0.45725   0.82308   0.77302   0.00000  Uiso   1.00
O1296  O     0.04276   0.67693   0.22698   0.00000  Uiso   1.00
O1297  O     0.17693   0.95725   0.77302   0.00000  Uiso   1.00
O1298  O     0.00000   0.75000   0.75000   0.00000  Uiso   1.00
O1299  O     0.32308   0.54276   0.22698   0.00000  Uiso   1.00
O1300  O     0.04276   0.67693   0.77302   0.00000  Uiso   1.00
O1301  O     0.45725   0.82308   0.22698   0.00000  Uiso   1.00
O1302  O     0.32308   0.54276   0.77302   0.00000  Uiso   1.00
O1303  O     0.17693   0.95725   0.22698   0.00000  Uiso   1.00
O1304  O     0.45725   0.67693   0.22698   0.00000  Uiso   1.00
O1305  O     0.04276   0.82308   0.77302   0.00000  Uiso   1.00
O1306  O     0.17693   0.54276   0.22698   0.00000  Uiso   1.00
O1307  O     0.32308   0.95725   0.77302   0.00000  Uiso   1.00
O1308  O     0.04276   0.82308   0.22698   0.00000  Uiso   1.00
O1309  O     0.25000   0.96964   0.33755   0.00000  Uiso   1.00
O1310  O     0.45725   0.67693   0.77302   0.00000  Uiso   1.00
O1311  O     0.32308   0.95725   0.22698   0.00000  Uiso   1.00
O1312  O     0.17693   0.54276   0.77302   0.00000  Uiso   1.00
O1313  O     0.25000   0.53037   0.66245   0.00000  Uiso   1.00
O1314  O     0.03037   0.75000   0.33755   0.00000  Uiso   1.00
O1315  O     0.46964   0.75000   0.66245   0.00000  Uiso   1.00
O1316  O     0.25000   0.53037   0.33755   0.00000  Uiso   1.00
Zn1317 Zn    0.20660   0.50000   0.21735   0.00000  Uiso   1.00
Zn1318 Zn    0.04341   0.75000   0.28265   0.00000  Uiso   1.00
Zn1319 Zn    0.25000   0.95660   0.71735   0.00000  Uiso   1.00
Zn1320 Zn    0.25000   0.54341   0.28265   0.00000  Uiso   1.00
Zn1321 Zn    0.04341   0.75000   0.71735   0.00000  Uiso   1.00
Zn1322 Zn    0.45660   0.75000   0.28265   0.00000  Uiso   1.00
Zn1323 Zn    0.25000   0.54341   0.71735   0.00000  Uiso   1.00
Zn1324 Zn    0.25000   0.95660   0.28265   0.00000  Uiso   1.00
Zn1325 Zn    0.29341   0.50000   0.78265   0.00000  Uiso   1.00
Zn1326 Zn    0.00000   0.70660   0.21735   0.00000  Uiso   1.00
Zn1327 Zn    0.00000   0.79341   0.78265   0.00000  Uiso   1.00
Zn1328 Zn    0.29341   0.50000   0.21735   0.00000  Uiso   1.00
Zn1329 Zn    0.20660   0.50000   0.78265   0.00000  Uiso   1.00
Zn1330 Zn    0.00000   0.79341   0.21735   0.00000  Uiso   1.00
Zn1331 Zn    0.00000   0.70660   0.78265   0.00000  Uiso   1.00
Zn1332 Zn    0.45660   0.75000   0.71735   0.00000  Uiso   1.00
C1333  C     0.99927   0.78328   0.41769   0.00000  Uiso   1.00
C1334  C     0.74644   0.96685   0.08214   0.00000  Uiso   1.00
C1335  C     0.71649   0.99688   0.54135   0.00000  Uiso   1.00
C1336  C     0.50309   0.78350   0.45865   0.00000  Uiso   1.00
C1337  C     0.99478   0.71669   0.54102   0.00000  Uiso   1.00
C1338  C     0.71670   0.99473   0.45898   0.00000  Uiso   1.00
C1339  C     0.78350   0.50313   0.54135   0.00000  Uiso   1.00
C1340  C     0.74690   0.96649   0.95865   0.00000  Uiso   1.00
C1341  C     0.75525   0.53330   0.04102   0.00000  Uiso   1.00
C1342  C     0.53331   0.75522   0.95898   0.00000  Uiso   1.00
C1343  C     0.96650   0.74691   0.04135   0.00000  Uiso   1.00
C1344  C     0.75310   0.53350   0.95865   0.00000  Uiso   1.00
C1345  C     0.96685   0.74646   0.91786   0.00000  Uiso   1.00
C1346  C     0.74475   0.96670   0.04102   0.00000  Uiso   1.00
C1347  C     0.96671   0.74476   0.95898   0.00000  Uiso   1.00
C1348  C     0.53351   0.75308   0.04136   0.00000  Uiso   1.00
C1349  C     0.59812   0.84812   0.25000   0.00000  Uiso   1.00
C1350  C     0.90193   0.65193   0.75000   0.00000  Uiso   1.00
C1351  C     0.65186   0.59814   0.25000   0.00000  Uiso   1.00
C1352  C     0.84805   0.90195   0.75000   0.00000  Uiso   1.00
C1353  C     0.90188   0.65188   0.25000   0.00000  Uiso   1.00
C1354  C     0.59807   0.84807   0.75000   0.00000  Uiso   1.00
C1355  C     0.84814   0.90186   0.25000   0.00000  Uiso   1.00
C1356  C     0.53329   0.74926   0.08231   0.00000  Uiso   1.00
C1357  C     0.65195   0.59806   0.75000   0.00000  Uiso   1.00
C1358  C     0.59814   0.65186   0.75000   0.00000  Uiso   1.00
C1359  C     0.90195   0.84806   0.25000   0.00000  Uiso   1.00
C1360  C     0.65188   0.90188   0.75000   0.00000  Uiso   1.00
C1361  C     0.84807   0.59807   0.25000   0.00000  Uiso   1.00
C1362  C     0.90186   0.84814   0.75000   0.00000  Uiso   1.00
C1363  C     0.59805   0.65195   0.25000   0.00000  Uiso   1.00
C1364  C     0.84812   0.59812   0.75000   0.00000  Uiso   1.00
C1365  C     0.65193   0.90193   0.25000   0.00000  Uiso   1.00
C1366  C     0.50001   0.75000   0.47928   0.00000  Uiso   1.00
C1367  C     0.75072   0.96671   0.91769   0.00000  Uiso   1.00
C1368  C     0.50001   0.75000   0.52046   0.00000  Uiso   1.00
C1369  C     0.75000   0.50001   0.47954   0.00000  Uiso   1.00
C1370  C     0.75000   0.50001   0.52072   0.00000  Uiso   1.00
C1371  C     0.75000   0.50000   0.97928   0.00000  Uiso   1.00
C1372  C     0.75000   0.50000   0.02046   0.00000  Uiso   1.00
C1373  C     0.50001   0.74999   0.97954   0.00000  Uiso   1.00
C1374  C     0.50001   0.74999   0.02072   0.00000  Uiso   1.00
C1375  C     0.52076   0.83079   0.37248   0.00000  Uiso   1.00
C1376  C     0.53101   0.66710   0.60952   0.00000  Uiso   1.00
C1377  C     0.66706   0.53092   0.39052   0.00000  Uiso   1.00
C1378  C     0.75355   0.53315   0.08214   0.00000  Uiso   1.00
C1379  C     0.83078   0.52082   0.62752   0.00000  Uiso   1.00
C1380  C     0.97928   0.66920   0.37248   0.00000  Uiso   1.00
C1381  C     0.96899   0.83291   0.60946   0.00000  Uiso   1.00
C1382  C     0.83294   0.96908   0.39055   0.00000  Uiso   1.00
C1383  C     0.66922   0.97916   0.62752   0.00000  Uiso   1.00
C1384  C     0.77077   0.58079   0.87248   0.00000  Uiso   1.00
C1385  C     0.78094   0.91707   0.10949   0.00000  Uiso   1.00
C1386  C     0.91709   0.78101   0.89054   0.00000  Uiso   1.00
C1387  C     0.58080   0.77077   0.12752   0.00000  Uiso   1.00
C1388  C     0.72921   0.91921   0.87248   0.00000  Uiso   1.00
C1389  C     0.53316   0.75353   0.91786   0.00000  Uiso   1.00
C1390  C     0.71904   0.58293   0.10948   0.00000  Uiso   1.00
C1391  C     0.58290   0.71899   0.89048   0.00000  Uiso   1.00
C1392  C     0.91920   0.72927   0.12752   0.00000  Uiso   1.00
C1393  C     0.96672   0.75074   0.08231   0.00000  Uiso   1.00
C1394  C     0.50000   0.75000   0.39786   0.00000  Uiso   1.00
C1395  C     0.50000   0.75000   0.60203   0.00000  Uiso   1.00
C1396  C     0.75000   0.50000   0.39797   0.00000  Uiso   1.00
C1397  C     0.99647   0.71684   0.58214   0.00000  Uiso   1.00
C1398  C     0.75000   0.50000   0.60214   0.00000  Uiso   1.00
C1399  C     0.75000   0.50000   0.89786   0.00000  Uiso   1.00
C1400  C     0.75000   0.50000   0.10203   0.00000  Uiso   1.00
C1401  C     0.50000   0.75000   0.89797   0.00000  Uiso   1.00
C1402  C     0.50000   0.75000   0.10214   0.00000  Uiso   1.00
C1403  C     0.98878   0.68411   0.47922   0.00000  Uiso   1.00
C1404  C     0.51281   0.81570   0.52004   0.00000  Uiso   1.00
C1405  C     0.81568   0.51290   0.47996   0.00000  Uiso   1.00
C1406  C     0.68413   0.98867   0.52078   0.00000  Uiso   1.00
C1407  C     0.51126   0.81588   0.47922   0.00000  Uiso   1.00
C1408  C     0.71685   0.99643   0.41786   0.00000  Uiso   1.00
C1409  C     0.98723   0.68428   0.52004   0.00000  Uiso   1.00
C1410  C     0.68430   0.98713   0.47996   0.00000  Uiso   1.00
C1411  C     0.81586   0.51135   0.52078   0.00000  Uiso   1.00
C1412  C     0.73872   0.93412   0.97922   0.00000  Uiso   1.00
C1413  C     0.76284   0.56570   0.02004   0.00000  Uiso   1.00
C1414  C     0.56572   0.76278   0.97996   0.00000  Uiso   1.00
C1415  C     0.93412   0.73874   0.02078   0.00000  Uiso   1.00
C1416  C     0.76129   0.56588   0.97922   0.00000  Uiso   1.00
C1417  C     0.73717   0.93430   0.02004   0.00000  Uiso   1.00
C1418  C     0.93430   0.73719   0.97996   0.00000  Uiso   1.00
C1419  C     0.78328   0.99930   0.58231   0.00000  Uiso   1.00
C1420  C     0.56589   0.76123   0.02078   0.00000  Uiso   1.00
C1421  C     0.75000   0.50000   0.35570   0.00000  Uiso   1.00
C1422  C     0.75000   0.50000   0.64433   0.00000  Uiso   1.00
C1423  C     0.50000   0.75000   0.35567   0.00000  Uiso   1.00
C1424  C     0.50000   0.75000   0.64430   0.00000  Uiso   1.00
C1425  C     0.50000   0.75000   0.85570   0.00000  Uiso   1.00
C1426  C     0.50000   0.75000   0.14433   0.00000  Uiso   1.00
C1427  C     0.75000   0.50000   0.85567   0.00000  Uiso   1.00
C1428  C     0.75000   0.50000   0.14430   0.00000  Uiso   1.00
C1429  C     0.67997   0.57003   0.25000   0.00000  Uiso   1.00
C1430  C     0.50075   0.71671   0.41769   0.00000  Uiso   1.00
C1431  C     0.82000   0.93000   0.75000   0.00000  Uiso   1.00
C1432  C     0.92998   0.67998   0.25000   0.00000  Uiso   1.00
C1433  C     0.57000   0.82000   0.75000   0.00000  Uiso   1.00
C1434  C     0.82003   0.92997   0.25000   0.00000  Uiso   1.00
C1435  C     0.68000   0.57000   0.75000   0.00000  Uiso   1.00
C1436  C     0.57002   0.82002   0.25000   0.00000  Uiso   1.00
C1437  C     0.93000   0.68000   0.75000   0.00000  Uiso   1.00
C1438  C     0.67998   0.92998   0.75000   0.00000  Uiso   1.00
C1439  C     0.82000   0.57000   0.25000   0.00000  Uiso   1.00
C1440  C     0.92997   0.82003   0.75000   0.00000  Uiso   1.00
C1441  C     0.50354   0.78315   0.58214   0.00000  Uiso   1.00
C1442  C     0.57000   0.68000   0.25000   0.00000  Uiso   1.00
C1443  C     0.82002   0.57002   0.75000   0.00000  Uiso   1.00
C1444  C     0.68000   0.93000   0.25000   0.00000  Uiso   1.00
C1445  C     0.57003   0.67997   0.75000   0.00000  Uiso   1.00
C1446  C     0.93000   0.82000   0.25000   0.00000  Uiso   1.00
C1447  C     0.63781   0.88934   0.21444   0.00000  Uiso   1.00
C1448  C     0.86230   0.61072   0.78555   0.00000  Uiso   1.00
C1449  C     0.61047   0.63765   0.21446   0.00000  Uiso   1.00
C1450  C     0.88946   0.86254   0.78553   0.00000  Uiso   1.00
C1451  C     0.86210   0.61075   0.21444   0.00000  Uiso   1.00
C1452  C     0.78315   0.50358   0.41786   0.00000  Uiso   1.00
C1453  C     0.63766   0.88932   0.78555   0.00000  Uiso   1.00
C1454  C     0.88951   0.86233   0.21446   0.00000  Uiso   1.00
C1455  C     0.61046   0.63737   0.78553   0.00000  Uiso   1.00
C1456  C     0.63756   0.61038   0.78553   0.00000  Uiso   1.00
C1457  C     0.86251   0.88943   0.21447   0.00000  Uiso   1.00
C1458  C     0.61064   0.86221   0.78556   0.00000  Uiso   1.00
C1459  C     0.88921   0.63777   0.21445   0.00000  Uiso   1.00
C1460  C     0.86236   0.88954   0.78554   0.00000  Uiso   1.00
C1461  C     0.63746   0.61055   0.21447   0.00000  Uiso   1.00
C1462  C     0.88932   0.63783   0.78556   0.00000  Uiso   1.00
C1463  C     0.71671   0.50070   0.58231   0.00000  Uiso   1.00
C1464  C     0.61070   0.86232   0.21445   0.00000  Uiso   1.00
C1465  C     0.88783   0.63932   0.71444   0.00000  Uiso   1.00
C1466  C     0.61232   0.86070   0.28555   0.00000  Uiso   1.00
C1467  C     0.86046   0.88765   0.71446   0.00000  Uiso   1.00
C1468  C     0.63945   0.61254   0.28553   0.00000  Uiso   1.00
C1469  C     0.61221   0.86064   0.71444   0.00000  Uiso   1.00
C1470  C     0.88777   0.63921   0.28556   0.00000  Uiso   1.00
C1471  C     0.63962   0.61244   0.71447   0.00000  Uiso   1.00
C1472  C     0.86057   0.88749   0.28553   0.00000  Uiso   1.00
C1473  C     0.88768   0.86050   0.28554   0.00000  Uiso   1.00
C1474  C     0.74928   0.53328   0.91769   0.00000  Uiso   1.00
C1475  C     0.61263   0.63955   0.71448   0.00000  Uiso   1.00
C1476  C     0.86075   0.61210   0.28556   0.00000  Uiso   1.00
C1477  C     0.63932   0.88766   0.71445   0.00000  Uiso   1.00
C1478  C     0.61235   0.63953   0.28554   0.00000  Uiso   1.00
C1479  C     0.88746   0.86054   0.71447   0.00000  Uiso   1.00
C1480  C     0.63934   0.88781   0.28556   0.00000  Uiso   1.00
C1481  C     0.86072   0.61230   0.71445   0.00000  Uiso   1.00
C1482  C     0.99693   0.71649   0.45865   0.00000  Uiso   1.00
C1483  C     0.50524   0.78330   0.54102   0.00000  Uiso   1.00
C1484  C     0.78329   0.50528   0.45898   0.00000  Uiso   1.00
H1485  H     0.95243   0.64413   0.46518   0.00000  Uiso   1.00
H1486  H     0.50316   0.86959   0.46681   0.00000  Uiso   1.00
H1487  H     0.54631   0.81470   0.37522   0.00000  Uiso   1.00
H1488  H     0.97999   0.68405   0.62861   0.00000  Uiso   1.00
H1489  H     0.52764   0.64037   0.62423   0.00000  Uiso   1.00
H1490  H     0.54836   0.68496   0.62788   0.00000  Uiso   1.00
H1491  H     0.54476   0.66247   0.58117   0.00000  Uiso   1.00
H1492  H     0.68406   0.97993   0.37138   0.00000  Uiso   1.00
H1493  H     0.64033   0.52753   0.37581   0.00000  Uiso   1.00
H1494  H     0.68490   0.54830   0.37217   0.00000  Uiso   1.00
H1495  H     0.66240   0.54464   0.41888   0.00000  Uiso   1.00
H1496  H     0.83423   0.97393   0.59167   0.00000  Uiso   1.00
H1497  H     0.95011   0.64422   0.53142   0.00000  Uiso   1.00
H1498  H     0.85928   0.52665   0.61857   0.00000  Uiso   1.00
H1499  H     0.83095   0.51215   0.65842   0.00000  Uiso   1.00
H1500  H     0.81467   0.54637   0.62478   0.00000  Uiso   1.00
H1501  H     0.52619   0.66580   0.40830   0.00000  Uiso   1.00
H1502  H     0.97348   0.64069   0.38143   0.00000  Uiso   1.00
H1503  H     0.98795   0.66903   0.34157   0.00000  Uiso   1.00
H1504  H     0.95372   0.68528   0.37522   0.00000  Uiso   1.00
H1505  H     0.51999   0.81595   0.62862   0.00000  Uiso   1.00
H1506  H     0.97235   0.85964   0.62417   0.00000  Uiso   1.00
H1507  H     0.95162   0.81506   0.62781   0.00000  Uiso   1.00
H1508  H     0.99460   0.63062   0.53340   0.00000  Uiso   1.00
H1509  H     0.95528   0.83754   0.58109   0.00000  Uiso   1.00
H1510  H     0.81593   0.52005   0.37137   0.00000  Uiso   1.00
H1511  H     0.85966   0.97246   0.37582   0.00000  Uiso   1.00
H1512  H     0.81510   0.95167   0.37224   0.00000  Uiso   1.00
H1513  H     0.83762   0.95540   0.41893   0.00000  Uiso   1.00
H1514  H     0.66576   0.52607   0.59170   0.00000  Uiso   1.00
H1515  H     0.64072   0.97333   0.61857   0.00000  Uiso   1.00
H1516  H     0.66905   0.98782   0.65843   0.00000  Uiso   1.00
H1517  H     0.68533   0.95362   0.62477   0.00000  Uiso   1.00
H1518  H     0.72387   0.58422   0.90831   0.00000  Uiso   1.00
H1519  H     0.64433   0.94993   0.46858   0.00000  Uiso   1.00
H1520  H     0.77658   0.60929   0.88143   0.00000  Uiso   1.00
H1521  H     0.76210   0.58096   0.84157   0.00000  Uiso   1.00
H1522  H     0.79632   0.56470   0.87522   0.00000  Uiso   1.00
H1523  H     0.72995   0.93406   0.12862   0.00000  Uiso   1.00
H1524  H     0.77755   0.89034   0.12421   0.00000  Uiso   1.00
H1525  H     0.79831   0.93491   0.12785   0.00000  Uiso   1.00
H1526  H     0.79467   0.91242   0.08114   0.00000  Uiso   1.00
H1527  H     0.93405   0.73001   0.87138   0.00000  Uiso   1.00
H1528  H     0.89036   0.77765   0.87583   0.00000  Uiso   1.00
H1529  H     0.93495   0.79838   0.87219   0.00000  Uiso   1.00
H1530  H     0.63063   0.99438   0.46660   0.00000  Uiso   1.00
H1531  H     0.91246   0.79472   0.91891   0.00000  Uiso   1.00
H1532  H     0.58421   0.72384   0.09172   0.00000  Uiso   1.00
H1533  H     0.60930   0.77658   0.11856   0.00000  Uiso   1.00
H1534  H     0.58097   0.76211   0.15843   0.00000  Uiso   1.00
H1535  H     0.56470   0.79632   0.12477   0.00000  Uiso   1.00
H1536  H     0.77612   0.91578   0.90829   0.00000  Uiso   1.00
H1537  H     0.72339   0.89071   0.88144   0.00000  Uiso   1.00
H1538  H     0.73787   0.91904   0.84157   0.00000  Uiso   1.00
H1539  H     0.70366   0.93531   0.87523   0.00000  Uiso   1.00
H1540  H     0.77003   0.56594   0.12862   0.00000  Uiso   1.00
H1541  H     0.85576   0.54777   0.53482   0.00000  Uiso   1.00
H1542  H     0.72242   0.60965   0.12419   0.00000  Uiso   1.00
H1543  H     0.70166   0.56508   0.12782   0.00000  Uiso   1.00
H1544  H     0.70532   0.58758   0.08111   0.00000  Uiso   1.00
H1545  H     0.56595   0.77001   0.87139   0.00000  Uiso   1.00
H1546  H     0.60963   0.72236   0.87577   0.00000  Uiso   1.00
H1547  H     0.56504   0.70165   0.87211   0.00000  Uiso   1.00
H1548  H     0.58753   0.70524   0.91883   0.00000  Uiso   1.00
H1549  H     0.91580   0.77617   0.09169   0.00000  Uiso   1.00
H1550  H     0.89070   0.72347   0.11857   0.00000  Uiso   1.00
H1551  H     0.91903   0.73794   0.15843   0.00000  Uiso   1.00
H1552  H     0.86959   0.50334   0.53319   0.00000  Uiso   1.00
H1553  H     0.93529   0.70371   0.12479   0.00000  Uiso   1.00
H1554  H     0.70236   0.89416   0.96517   0.00000  Uiso   1.00
H1555  H     0.74680   0.88040   0.96682   0.00000  Uiso   1.00
H1556  H     0.80001   0.60571   0.03142   0.00000  Uiso   1.00
H1557  H     0.99688   0.63040   0.46681   0.00000  Uiso   1.00
H1558  H     0.75554   0.61937   0.03340   0.00000  Uiso   1.00
H1559  H     0.60577   0.79990   0.96857   0.00000  Uiso   1.00
H1560  H     0.61938   0.75542   0.96660   0.00000  Uiso   1.00
H1561  H     0.89416   0.70238   0.03482   0.00000  Uiso   1.00
H1562  H     0.88041   0.74684   0.03319   0.00000  Uiso   1.00
H1563  H     0.79767   0.60582   0.96518   0.00000  Uiso   1.00
H1564  H     0.75322   0.61959   0.96681   0.00000  Uiso   1.00
H1565  H     0.70002   0.89426   0.03140   0.00000  Uiso   1.00
H1566  H     0.74449   0.88063   0.03342   0.00000  Uiso   1.00
H1567  H     0.89428   0.70004   0.96858   0.00000  Uiso   1.00
H1568  H     0.54996   0.85573   0.53142   0.00000  Uiso   1.00
H1569  H     0.88063   0.74451   0.96660   0.00000  Uiso   1.00
H1570  H     0.60587   0.79759   0.03481   0.00000  Uiso   1.00
H1571  H     0.61960   0.75313   0.03319   0.00000  Uiso   1.00
H1572  H     0.66327   0.88200   0.16255   0.00000  Uiso   1.00
H1573  H     0.63058   0.91487   0.16260   0.00000  Uiso   1.00
H1574  H     0.83728   0.61805   0.83761   0.00000  Uiso   1.00
H1575  H     0.86972   0.58497   0.83720   0.00000  Uiso   1.00
H1576  H     0.61760   0.66293   0.16242   0.00000  Uiso   1.00
H1577  H     0.58474   0.63017   0.16276   0.00000  Uiso   1.00
H1578  H     0.88234   0.83794   0.83780   0.00000  Uiso   1.00
H1579  H     0.50549   0.86937   0.53340   0.00000  Uiso   1.00
H1580  H     0.91553   0.87029   0.83692   0.00000  Uiso   1.00
H1581  H     0.83649   0.61824   0.16266   0.00000  Uiso   1.00
H1582  H     0.86918   0.58537   0.16249   0.00000  Uiso   1.00
H1583  H     0.66261   0.88205   0.83766   0.00000  Uiso   1.00
H1584  H     0.63018   0.91513   0.83715   0.00000  Uiso   1.00
H1585  H     0.88233   0.83700   0.16245   0.00000  Uiso   1.00
H1586  H     0.91519   0.86976   0.16272   0.00000  Uiso   1.00
H1587  H     0.61744   0.66183   0.83790   0.00000  Uiso   1.00
H1588  H     0.58424   0.62948   0.83682   0.00000  Uiso   1.00
H1589  H     0.66271   0.61739   0.83767   0.00000  Uiso   1.00
H1590  H     0.85564   0.55012   0.46858   0.00000  Uiso   1.00
H1591  H     0.62995   0.58452   0.83715   0.00000  Uiso   1.00
H1592  H     0.83786   0.88226   0.16223   0.00000  Uiso   1.00
H1593  H     0.87022   0.91545   0.16304   0.00000  Uiso   1.00
H1594  H     0.61796   0.83678   0.83748   0.00000  Uiso   1.00
H1595  H     0.58509   0.86947   0.83738   0.00000  Uiso   1.00
H1596  H     0.88177   0.66290   0.16247   0.00000  Uiso   1.00
H1597  H     0.91485   0.63046   0.16272   0.00000  Uiso   1.00
H1598  H     0.83707   0.88240   0.83758   0.00000  Uiso   1.00
H1599  H     0.86983   0.91526   0.83724   0.00000  Uiso   1.00
H1600  H     0.66207   0.61767   0.16220   0.00000  Uiso   1.00
H1601  H     0.86936   0.50567   0.46659   0.00000  Uiso   1.00
H1602  H     0.62971   0.58448   0.16307   0.00000  Uiso   1.00
H1603  H     0.88193   0.66334   0.83743   0.00000  Uiso   1.00
H1604  H     0.91480   0.63064   0.83743   0.00000  Uiso   1.00
H1605  H     0.61800   0.83734   0.16236   0.00000  Uiso   1.00
H1606  H     0.58491   0.86978   0.16283   0.00000  Uiso   1.00
H1607  H     0.91334   0.63194   0.66258   0.00000  Uiso   1.00
H1608  H     0.88064   0.66481   0.66257   0.00000  Uiso   1.00
H1609  H     0.58734   0.86799   0.33764   0.00000  Uiso   1.00
H1610  H     0.61978   0.83491   0.33717   0.00000  Uiso   1.00
H1611  H     0.86760   0.91293   0.66242   0.00000  Uiso   1.00
H1612  H     0.64421   0.95226   0.53482   0.00000  Uiso   1.00
H1613  H     0.83474   0.88017   0.66276   0.00000  Uiso   1.00
H1614  H     0.63233   0.58792   0.33780   0.00000  Uiso   1.00
H1615  H     0.66552   0.62028   0.33693   0.00000  Uiso   1.00
H1616  H     0.58678   0.86796   0.66253   0.00000  Uiso   1.00
H1617  H     0.61947   0.83508   0.66262   0.00000  Uiso   1.00
H1618  H     0.91290   0.63177   0.33753   0.00000  Uiso   1.00
H1619  H     0.88046   0.66485   0.33728   0.00000  Uiso   1.00
H1620  H     0.63261   0.58730   0.66233   0.00000  Uiso   1.00
H1621  H     0.66548   0.62005   0.66286   0.00000  Uiso   1.00
H1622  H     0.86774   0.91215   0.33777   0.00000  Uiso   1.00
H1623  H     0.63041   0.99670   0.53319   0.00000  Uiso   1.00
H1624  H     0.83455   0.87979   0.33696   0.00000  Uiso   1.00
H1625  H     0.91300   0.86768   0.33755   0.00000  Uiso   1.00
H1626  H     0.88025   0.83481   0.33728   0.00000  Uiso   1.00
H1627  H     0.58817   0.63256   0.66210   0.00000  Uiso   1.00
H1628  H     0.62052   0.66576   0.66318   0.00000  Uiso   1.00
H1629  H     0.86824   0.58648   0.33735   0.00000  Uiso   1.00
H1630  H     0.83537   0.61918   0.33751   0.00000  Uiso   1.00
H1631  H     0.63205   0.91261   0.66234   0.00000  Uiso   1.00
H1632  H     0.66514   0.88017   0.66285   0.00000  Uiso   1.00
H1633  H     0.58707   0.63240   0.33758   0.00000  Uiso   1.00
H1634  H     0.54762   0.85585   0.46518   0.00000  Uiso   1.00
H1635  H     0.61983   0.66526   0.33725   0.00000  Uiso   1.00
H1636  H     0.91206   0.86767   0.66220   0.00000  Uiso   1.00
H1637  H     0.87971   0.83447   0.66308   0.00000  Uiso   1.00
H1638  H     0.63200   0.91327   0.33745   0.00000  Uiso   1.00
H1639  H     0.66487   0.88058   0.33740   0.00000  Uiso   1.00
H1640  H     0.86805   0.58729   0.66239   0.00000  Uiso   1.00
H1641  H     0.83497   0.61972   0.66280   0.00000  Uiso   1.00
H1642  H     0.97385   0.83421   0.40830   0.00000  Uiso   1.00
H1643  H     0.52657   0.85930   0.38143   0.00000  Uiso   1.00
H1644  H     0.51209   0.83097   0.34157   0.00000  Uiso   1.00
N1645  N     0.97927   0.65142   0.45860   0.00000  Uiso   1.00
N1646  N     0.77371   0.59835   0.04007   0.00000  Uiso   1.00
N1647  N     0.59838   0.77361   0.95992   0.00000  Uiso   1.00
N1648  N     0.90143   0.72923   0.04140   0.00000  Uiso   1.00
N1649  N     0.77082   0.59856   0.95860   0.00000  Uiso   1.00
N1650  N     0.72631   0.90165   0.04008   0.00000  Uiso   1.00
N1651  N     0.90165   0.72633   0.95992   0.00000  Uiso   1.00
N1652  N     0.59859   0.77075   0.04140   0.00000  Uiso   1.00
N1653  N     0.65197   0.90343   0.17851   0.00000  Uiso   1.00
N1654  N     0.84829   0.59658   0.82149   0.00000  Uiso   1.00
N1655  N     0.59624   0.65164   0.17853   0.00000  Uiso   1.00
N1656  N     0.52366   0.84836   0.54008   0.00000  Uiso   1.00
N1657  N     0.90377   0.84876   0.82146   0.00000  Uiso   1.00
N1658  N     0.84784   0.59676   0.17851   0.00000  Uiso   1.00
N1659  N     0.65163   0.90350   0.82149   0.00000  Uiso   1.00
N1660  N     0.90370   0.84830   0.17853   0.00000  Uiso   1.00
N1661  N     0.59605   0.65105   0.82146   0.00000  Uiso   1.00
N1662  N     0.65146   0.59607   0.82147   0.00000  Uiso   1.00
N1663  N     0.84870   0.90371   0.17854   0.00000  Uiso   1.00
N1664  N     0.59654   0.84807   0.82149   0.00000  Uiso   1.00
N1665  N     0.90328   0.65186   0.17851   0.00000  Uiso   1.00
N1666  N     0.84836   0.90376   0.82147   0.00000  Uiso   1.00
N1667  N     0.84832   0.52381   0.45992   0.00000  Uiso   1.00
N1668  N     0.65124   0.59623   0.17854   0.00000  Uiso   1.00
N1669  N     0.90338   0.65202   0.82149   0.00000  Uiso   1.00
N1670  N     0.59653   0.84834   0.17851   0.00000  Uiso   1.00
N1671  N     0.90202   0.65338   0.67851   0.00000  Uiso   1.00
N1672  N     0.59833   0.84653   0.32149   0.00000  Uiso   1.00
N1673  N     0.84624   0.90164   0.67853   0.00000  Uiso   1.00
N1674  N     0.65377   0.59876   0.32146   0.00000  Uiso   1.00
N1675  N     0.59807   0.84654   0.67851   0.00000  Uiso   1.00
N1676  N     0.90186   0.65328   0.32149   0.00000  Uiso   1.00
N1677  N     0.65394   0.59854   0.67853   0.00000  Uiso   1.00
N1678  N     0.65145   0.97912   0.54140   0.00000  Uiso   1.00
N1679  N     0.84629   0.90130   0.32147   0.00000  Uiso   1.00
N1680  N     0.90170   0.84630   0.32147   0.00000  Uiso   1.00
N1681  N     0.59895   0.65395   0.67854   0.00000  Uiso   1.00
N1682  N     0.84676   0.59783   0.32149   0.00000  Uiso   1.00
N1683  N     0.65351   0.90163   0.67852   0.00000  Uiso   1.00
N1684  N     0.59836   0.65376   0.32147   0.00000  Uiso   1.00
N1685  N     0.90124   0.84623   0.67854   0.00000  Uiso   1.00
N1686  N     0.65343   0.90197   0.32149   0.00000  Uiso   1.00
N1687  N     0.84658   0.59829   0.67851   0.00000  Uiso   1.00
N1688  N     0.99171   0.81574   0.39615   0.00000  Uiso   1.00
N1689  N     0.52077   0.84857   0.45860   0.00000  Uiso   1.00
N1690  N     0.99563   0.68359   0.60372   0.00000  Uiso   1.00
N1691  N     0.68360   0.99556   0.39629   0.00000  Uiso   1.00
N1692  N     0.81575   0.99176   0.60384   0.00000  Uiso   1.00
N1693  N     0.50833   0.68426   0.39615   0.00000  Uiso   1.00
N1694  N     0.50437   0.81641   0.60371   0.00000  Uiso   1.00
N1695  N     0.81640   0.50444   0.39629   0.00000  Uiso   1.00
N1696  N     0.68425   0.50823   0.60385   0.00000  Uiso   1.00
N1697  N     0.74172   0.56574   0.89615   0.00000  Uiso   1.00
N1698  N     0.74558   0.93360   0.10371   0.00000  Uiso   1.00
N1699  N     0.93360   0.74563   0.89629   0.00000  Uiso   1.00
N1700  N     0.97640   0.65162   0.54008   0.00000  Uiso   1.00
N1701  N     0.56574   0.74171   0.10386   0.00000  Uiso   1.00
N1702  N     0.75827   0.93426   0.89615   0.00000  Uiso   1.00
N1703  N     0.75441   0.56640   0.10371   0.00000  Uiso   1.00
N1704  N     0.56641   0.75437   0.89628   0.00000  Uiso   1.00
N1705  N     0.93426   0.75831   0.10385   0.00000  Uiso   1.00
N1706  N     0.65167   0.97623   0.45992   0.00000  Uiso   1.00
N1707  N     0.84854   0.52091   0.54140   0.00000  Uiso   1.00
N1708  N     0.72921   0.90143   0.95860   0.00000  Uiso   1.00
O1709  O     0.75000   0.50000   0.25000   0.00000  Uiso   1.00
O1710  O     0.75000   0.96964   0.66245   0.00000  Uiso   1.00
O1711  O     0.96964   0.75000   0.33755   0.00000  Uiso   1.00
O1712  O     0.53037   0.75000   0.66245   0.00000  Uiso   1.00
O1713  O     0.50000   0.71964   0.83755   0.00000  Uiso   1.00
O1714  O     0.50000   0.78037   0.16245   0.00000  Uiso   1.00
O1715  O     0.78037   0.50000   0.83755   0.00000  Uiso   1.00
O1716  O     0.71964   0.50000   0.16245   0.00000  Uiso   1.00
O1717  O     0.50000   0.78037   0.83755   0.00000  Uiso   1.00
O1718  O     0.50000   0.71964   0.16245   0.00000  Uiso   1.00
O1719  O     0.71964   0.50000   0.83755   0.00000  Uiso   1.00
O1720  O     0.75000   0.50000   0.75000   0.00000  Uiso   1.00
O1721  O     0.78037   0.50000   0.16245   0.00000  Uiso   1.00
O1722  O     0.70725   0.57308   0.27302   0.00000  Uiso   1.00
O1723  O     0.79276   0.92693   0.72698   0.00000  Uiso   1.00
O1724  O     0.92693   0.70725   0.27302   0.00000  Uiso   1.00
O1725  O     0.57308   0.79276   0.72698   0.00000  Uiso   1.00
O1726  O     0.79276   0.92693   0.27302   0.00000  Uiso   1.00
O1727  O     0.70725   0.57308   0.72698   0.00000  Uiso   1.00
O1728  O     0.57308   0.79276   0.27302   0.00000  Uiso   1.00
O1729  O     0.92693   0.70725   0.72698   0.00000  Uiso   1.00
O1730  O     0.70725   0.92693   0.72698   0.00000  Uiso   1.00
O1731  O     0.50000   0.75000   0.25000   0.00000  Uiso   1.00
O1732  O     0.79276   0.57308   0.27302   0.00000  Uiso   1.00
O1733  O     0.92693   0.79276   0.72698   0.00000  Uiso   1.00
O1734  O     0.57308   0.70725   0.27302   0.00000  Uiso   1.00
O1735  O     0.79276   0.57308   0.72698   0.00000  Uiso   1.00
O1736  O     0.70725   0.92693   0.27302   0.00000  Uiso   1.00
O1737  O     0.57308   0.70725   0.72698   0.00000  Uiso   1.00
O1738  O     0.92693   0.79276   0.27302   0.00000  Uiso   1.00
O1739  O     0.95725   0.82308   0.77302   0.00000  Uiso   1.00
O1740  O     0.54276   0.67693   0.22698   0.00000  Uiso   1.00
O1741  O     0.67693   0.95725   0.77302   0.00000  Uiso   1.00
O1742  O     0.50000   0.75000   0.75000   0.00000  Uiso   1.00
O1743  O     0.82308   0.54276   0.22698   0.00000  Uiso   1.00
O1744  O     0.54276   0.67693   0.77302   0.00000  Uiso   1.00
O1745  O     0.95725   0.82308   0.22698   0.00000  Uiso   1.00
O1746  O     0.82308   0.54276   0.77302   0.00000  Uiso   1.00
O1747  O     0.67693   0.95725   0.22698   0.00000  Uiso   1.00
O1748  O     0.95725   0.67693   0.22698   0.00000  Uiso   1.00
O1749  O     0.54276   0.82308   0.77302   0.00000  Uiso   1.00
O1750  O     0.67693   0.54276   0.22698   0.00000  Uiso   1.00
O1751  O     0.82308   0.95725   0.77302   0.00000  Uiso   1.00
O1752  O     0.54276   0.82308   0.22698   0.00000  Uiso   1.00
O1753  O     0.75000   0.96964   0.33755   0.00000  Uiso   1.00
O1754  O     0.95725   0.67693   0.77302   0.00000  Uiso   1.00
O1755  O     0.82308   0.95725   0.22698   0.00000  Uiso   1.00
O1756  O     0.67693   0.54276   0.77302   0.00000  Uiso   1.00
O1757  O     0.75000   0.53037   0.66245   0.00000  Uiso   1.00
O1758  O     0.53037   0.75000   0.33755   0.00000  Uiso   1.00
O1759  O     0.96964   0.75000   0.66245   0.00000  Uiso   1.00
O1760  O     0.75000   0.53037   0.33755   0.00000  Uiso   1.00
Zn1761 Zn    0.70660   0.50000   0.21735   0.00000  Uiso   1.00
Zn1762 Zn    0.54341   0.75000   0.28265   0.00000  Uiso   1.00
Zn1763 Zn    0.75000   0.95660   0.71735   0.00000  Uiso   1.00
Zn1764 Zn    0.75000   0.54341   0.28265   0.00000  Uiso   1.00
Zn1765 Zn    0.54341   0.75000   0.71735   0.00000  Uiso   1.00
Zn1766 Zn    0.95660   0.75000   0.28265   0.00000  Uiso   1.00
Zn1767 Zn    0.75000   0.54341   0.71735   0.00000  Uiso   1.00
Zn1768 Zn    0.75000   0.95660   0.28265   0.00000  Uiso   1.00
Zn1769 Zn    0.79341   0.50000   0.78265   0.00000  Uiso   1.00
Zn1770 Zn    0.50000   0.70660   0.21735   0.00000  Uiso   1.00
Zn1771 Zn    0.50000   0.79341   0.78265   0.00000  Uiso   1.00
Zn1772 Zn    0.79341   0.50000   0.21735   0.00000  Uiso   1.00
Zn1773 Zn    0.70660   0.50000   0.78265   0.00000  Uiso   1.00
Zn1774 Zn    0.50000   0.79341   0.21735   0.00000  Uiso   1.00
Zn1775 Zn    0.50000   0.70660   0.78265   0.00000  Uiso   1.00
Zn1776 Zn    0.95660   0.75000   0.71735   0.00000  Uiso   1.00
loop_
_geom_bond_atom_site_label_1
_geom_bond_atom_site_label_2
_geom_bond_distance
_geom_bond_site_symmetry_2
_ccdc_geom_bond_type
C1     N356    1.430   .     S
C1     C448    1.416   .     S
C1     C506    1.399   .     S
C2     N366    1.428   .     S
C2     C14     1.416   .     A
C2     C956    1.401   .     A
C3     C74     1.414   .     A
C3     C926    1.424   .     S
C3     C1019   1.416   .     S
C4     C75     1.414   .     A
C4     C34     1.424   .     A
C4     C445    1.416   1_455 S
C5     C77     1.418   .     A
C5     C65     1.416   .     A
C5     C480    1.424   .     S
C6     C78     1.418   .     A
C6     C76     1.416   .     A
C6     C925    1.424   .     S
C7     C79     1.414   .     A
C7     C38     1.424   .     A
C7     C975    1.416   1_545 S
C8     C35     1.416   .     A
C8     C927    1.424   .     A
C8     C80     1.414   .     A
C9     C46     1.416   .     A
C9     C81     1.418   .     A
C9     C40     1.424   .     S
C10    C41     1.424   .     A
C10    C82     1.418   .     A
C10    C57     1.416   .     A
C11    C61     1.416   .     A
C11    C83     1.414   .     A
C11    C486    1.424   .     S
C12    C84     1.414   .     A
C12    C142    1.416   .     A
C12    C39     1.424   .     S
C13    N367    1.428   .     S
C13    C15     1.416   .     A
C13    C513    1.401   .     S
C14    C928    1.424   .     A
C14    C85     1.418   .     A
C15    C86     1.418   .     A
C15    C485    1.424   .     S
C16    C88     1.414   .     A
C16    C24     1.416   .     A
C16    C42     1.424   .     A
C17    C104    1.457   .     S
C17    C132    1.407   .     A
C17    C134    1.407   .     A
C18    C133    1.406   .     A
C18    C130    1.406   .     A
C18    C105    1.455   .     S
C19    C129    1.407   .     A
C19    C136    1.407   .     A
C19    C97     1.459   .     S
C20    C99     1.456   .     S
C20    C128    1.406   .     A
C20    C135    1.406   .     A
C21    C138    1.407   .     A
C21    C127    1.407   .     A
C21    C100    1.457   .     S
C22    C101    1.455   .     S
C22    C137    1.406   .     A
C22    C126    1.406   .     A
C23    C140    1.407   .     A
C23    C102    1.459   .     S
C23    C125    1.407   .     A
C24    N369    1.430   .     S
C24    C70     1.399   .     A
C25    C103    1.456   .     S
C25    C139    1.406   .     A
C25    C124    1.406   .     A
C26    C123    1.407   .     A
C26    C143    1.407   .     A
C26    C113    1.459   .     S
C27    C141    1.406   .     A
C27    C122    1.406   .     A
C27    C114    1.456   .     S
C28    C145    1.407   .     A
C28    C106    1.457   .     S
C28    C121    1.407   .     A
C29    C119    1.406   .     A
C29    C144    1.406   .     A
C29    C107    1.455   .     S
C30    C147    1.407   .     A
C30    C118    1.407   .     A
C30    C108    1.459   .     S
C31    C110    1.456   .     S
C31    C146    1.406   .     A
C31    C117    1.406   .     A
C32    C116    1.407   .     A
C32    C111    1.457   .     S
C32    C149    1.407   .     A
C33    C115    1.406   .     A
C33    C148    1.406   .     A
C33    C112    1.455   .     S
C34    C36     1.417   .     A
C34    C594    1.424   1_455 S
C35    N370    1.430   .     S
C35    C955    1.399   .     A
C36    C151    1.424   .     A
C36    C449    1.424   1_455 S
C37    C152    1.424   .     A
C37    C38     1.417   .     A
C37    C894    1.424   1_545 S
C38    C891    1.424   1_545 S
C39    C896    1.424   1_545 A
C39    C40     1.417   1_556 S
C40    C902    1.424   1_545 A
C40    C39     1.417   1_554 S
C41    C459    1.424   1_455 S
C41    C42     1.417   1_556 S
C42    C455    1.424   1_455 S
C42    C41     1.417   1_554 S
C43    H312    1.110   .     S
C43    H155    1.112   .     S
C43    H311    1.110   .     S
C43    N800    1.450   1_455 S
C44    H159    1.111   .     S
C44    H157    1.110   .     S
C44    H158    1.110   .     S
C44    N802    1.446   1_455 S
C45    H161    1.110   .     S
C45    H163    1.111   .     S
C45    H162    1.110   .     S
C45    N1247   1.446   1_545 S
C46    N371    1.428   .     S
C46    C68     1.401   .     S
C47    H168    1.112   .     S
C47    H166    1.110   .     S
C47    H167    1.110   .     S
C47    N1248   1.450   1_545 S
C48    H171    1.110   .     S
C48    H170    1.110   .     S
C48    H172    1.112   .     S
C48    N805    1.450   .     S
C49    H177    1.111   .     S
C49    H175    1.110   .     S
C49    H174    1.110   .     S
C49    N806    1.446   .     S
C50    H179    1.110   .     S
C50    H181    1.111   .     S
C50    H180    1.110   .     S
C50    N1251   1.446   .     S
C51    H183    1.110   .     S
C51    H184    1.110   .     S
C51    H185    1.112   .     S
C51    N1252   1.450   .     S
C52    N365    1.450   .     S
C52    H189    1.110   .     S
C52    H188    1.110   .     S
C52    H190    1.112   .     S
C53    H193    1.110   .     S
C53    H194    1.111   .     S
C53    N366    1.446   .     S
C53    H192    1.110   .     S
C54    H196    1.110   .     S
C54    N367    1.446   .     S
C54    H199    1.111   .     S
C54    H197    1.110   .     S
C55    H203    1.112   .     S
C55    H201    1.110   .     S
C55    H202    1.110   .     S
C55    N369    1.450   .     S
C56    H205    1.110   .     S
C56    H207    1.112   .     S
C56    H206    1.110   .     S
C56    N370    1.450   .     S
C57    N372    1.428   .     S
C57    C69     1.401   .     A
C58    H211    1.110   .     S
C58    N371    1.446   .     S
C58    H212    1.111   .     S
C58    H210    1.110   .     S
C59    H215    1.110   .     S
C59    H216    1.111   .     S
C59    H214    1.110   .     S
C59    N372    1.446   .     S
C60    H219    1.110   .     S
C60    H218    1.110   .     S
C60    N373    1.450   .     S
C60    H221    1.112   .     S
C61    N373    1.430   .     S
C61    C514    1.399   .     S
C62    C91     1.452   .     S
C62    C98     1.399   .     A
C62    C445    1.399   1_455 S
C63    C109    1.401   .     A
C63    C92     1.454   .     S
C63    C509    1.401   1_455 S
C64    C120    1.401   .     A
C64    C964    1.401   1_545 S
C64    C89     1.454   .     S
C65    N358    1.428   .     S
C65    C507    1.401   .     S
C66    C90     1.452   .     S
C66    C131    1.399   .     A
C66    C975    1.399   1_545 S
C67    C95     1.452   .     S
C67    C923    1.399   1_545 A
C67    C142    1.399   .     S
C68    C96     1.454   .     S
C68    C890    1.401   1_545 A
C69    C93     1.454   .     S
C69    C457    1.401   1_455 S
C70    C94     1.452   .     S
C70    C505    1.399   1_455 S
C71    N313    1.436   .     S
C71    C150    1.414   .     A
C71    C77     1.406   .     A
C72    N324    1.438   .     S
C72    C151    1.418   .     A
C72    C75     1.406   .     A
C73    N335    1.438   .     S
C73    C79     1.406   .     A
C73    C152    1.418   .     A
C74    C78     1.406   .     A
C74    N346    1.436   .     S
C75    N357    1.436   .     S
C76    N359    1.428   .     S
C76    C952    1.401   .     S
C77    N368    1.438   .     S
C78    N374    1.438   .     S
C79    N375    1.436   .     S
C80    N376    1.436   .     S
C80    C85     1.406   1_556 S
C81    N314    1.438   .     S
C81    C84     1.406   1_554 S
C82    N315    1.438   .     S
C82    C88     1.406   1_556 S
C83    N316    1.436   .     S
C83    C86     1.406   1_554 S
C84    N317    1.436   .     S
C84    C81     1.406   1_556 S
C85    N318    1.438   .     S
C85    C80     1.406   1_554 S
C86    N319    1.438   .     S
C86    C83     1.406   1_556 S
C87    N360    1.430   .     S
C87    C954    1.399   .     S
C87    C895    1.416   .     S
C88    N320    1.436   .     S
C88    C82     1.406   1_554 S
C89    O1309   1.277   1_545 A
C89    O428    1.277   .     S
C90    O425    1.276   .     A
C90    O1266   1.276   1_545 S
C91    O426    1.276   .     A
C91    O823    1.276   1_455 S
C92    O380    1.277   .     A
C92    O871    1.277   1_455 S
C93    O381    1.277   .     A
C93    O385    1.277   .     A
C94    O382    1.276   .     A
C94    O386    1.276   .     A
C95    O383    1.276   .     S
C95    O387    1.276   .     S
C96    O384    1.277   .     S
C96    O389    1.277   .     S
C97    O418    1.281   .     A
C97    O390    1.281   .     A
C98    N361    1.430   .     S
C98    C594    1.416   1_455 S
C99    O419    1.280   .     A
C99    O391    1.280   .     A
C100   O416    1.281   .     A
C100   O392    1.281   .     A
C101   O417    1.280   .     A
C101   O393    1.280   .     A
C102   O423    1.281   .     A
C102   O394    1.281   .     A
C103   O424    1.280   .     A
C103   O395    1.280   .     A
C104   O396    1.281   .     A
C104   O420    1.281   .     A
C105   O397    1.280   .     A
C105   O422    1.280   .     A
C106   O398    1.281   .     A
C106   O409    1.281   .     A
C107   O400    1.280   .     A
C107   O411    1.280   .     A
C108   O401    1.281   .     A
C108   O407    1.281   .     A
C109   C151    1.416   .     A
C109   N362    1.428   .     S
C110   O408    1.280   .     A
C110   O402    1.280   .     A
C111   O403    1.281   .     A
C111   O414    1.281   .     A
C112   O415    1.280   .     A
C112   O404    1.280   .     A
C113   O412    1.281   .     A
C113   O405    1.281   .     A
C114   O406    1.280   .     A
C114   O413    1.280   .     A
C115   N321    1.437   .     S
C115   C132    1.403   .     A
C116   C130    1.403   .     A
C116   N322    1.436   .     S
C117   C129    1.403   .     A
C117   N323    1.437   .     S
C118   N325    1.435   .     S
C118   C128    1.403   .     A
C119   N326    1.437   .     S
C119   C127    1.403   .     A
C120   N363    1.428   .     S
C120   C152    1.416   .     A
C121   C126    1.403   .     A
C121   N327    1.436   .     S
C122   N328    1.437   .     S
C122   C125    1.403   .     A
C123   C124    1.403   .     A
C123   N329    1.435   .     S
C124   N330    1.437   .     S
C125   N331    1.435   .     S
C126   N332    1.437   .     S
C127   N333    1.436   .     S
C128   N334    1.437   .     S
C129   N336    1.435   .     S
C130   N337    1.437   .     S
C131   N364    1.430   .     S
C131   C891    1.416   1_545 S
C132   N338    1.436   .     S
C133   N339    1.437   .     S
C133   C149    1.403   .     A
C134   N340    1.436   .     S
C134   C148    1.403   .     A
C135   N341    1.437   .     S
C135   C147    1.403   .     A
C136   C146    1.403   .     A
C136   N342    1.435   .     S
C137   N343    1.437   .     S
C137   C145    1.403   .     A
C138   C144    1.403   .     A
C138   N344    1.436   .     S
C139   N345    1.437   .     S
C139   C143    1.403   .     A
C140   C141    1.403   .     A
C140   N347    1.435   .     S
C141   N348    1.437   .     S
C142   N365    1.430   .     S
C143   N349    1.435   .     S
C144   N350    1.437   .     S
C145   N351    1.436   .     S
C146   N352    1.437   .     S
C147   N353    1.435   .     S
C148   N354    1.437   .     S
C149   N355    1.436   .     S
C150   C542    1.416   .     S
C150   C478    1.424   .     S
H153   N313    1.045   .     S
H154   N357    1.045   .     S
H156   N358    1.031   .     S
H160   N359    1.031   .     S
H164   N360    1.031   .     S
H165   N368    1.045   .     S
H169   N361    1.031   .     S
H173   N362    1.031   .     S
H176   N368    1.045   .     S
H178   N363    1.031   .     S
H182   N364    1.031   .     S
H186   N365    1.031   .     S
H187   N374    1.045   .     S
H191   N366    1.031   .     S
H195   N367    1.031   .     S
H198   N374    1.045   .     S
H200   N369    1.031   .     S
H204   N370    1.031   .     S
H208   N371    1.031   .     S
H209   N375    1.045   .     S
H213   N372    1.031   .     S
H217   N373    1.031   .     S
H220   N375    1.045   .     S
H222   N376    1.045   .     S
H223   N376    1.045   .     S
H224   N314    1.045   .     S
H225   N313    1.045   .     S
H226   N314    1.045   .     S
H227   N315    1.045   .     S
H228   N315    1.045   .     S
H229   N316    1.045   .     S
H230   N316    1.045   .     S
H231   N317    1.045   .     S
H232   N317    1.045   .     S
H233   N318    1.045   .     S
H234   N318    1.045   .     S
H235   N319    1.045   .     S
H236   N324    1.045   .     S
H237   N319    1.045   .     S
H238   N320    1.045   .     S
H239   N320    1.045   .     S
H240   N321    1.045   .     S
H241   N321    1.045   .     S
H242   N322    1.045   .     S
H243   N322    1.045   .     S
H244   N323    1.045   .     S
H245   N323    1.045   .     S
H246   N325    1.045   .     S
H247   N324    1.045   .     S
H248   N325    1.045   .     S
H249   N326    1.045   .     S
H250   N326    1.045   .     S
H251   N327    1.045   .     S
H252   N327    1.045   .     S
H253   N328    1.045   .     S
H254   N328    1.045   .     S
H255   N329    1.045   .     S
H256   N329    1.045   .     S
H257   N330    1.045   .     S
H258   N335    1.045   .     S
H259   N330    1.045   .     S
H260   N331    1.045   .     S
H261   N331    1.045   .     S
H262   N332    1.045   .     S
H263   N332    1.045   .     S
H264   N333    1.045   .     S
H265   N333    1.045   .     S
H266   N334    1.045   .     S
H267   N334    1.045   .     S
H268   N336    1.045   .     S
H269   N335    1.045   .     S
H270   N336    1.045   .     S
H271   N337    1.045   .     S
H272   N337    1.045   .     S
H273   N338    1.045   .     S
H274   N338    1.045   .     S
H275   N339    1.045   .     S
H276   N339    1.045   .     S
H277   N340    1.045   .     S
H278   N340    1.045   .     S
H279   N341    1.045   .     S
H280   N346    1.045   .     S
H281   N341    1.045   .     S
H282   N342    1.045   .     S
H283   N342    1.045   .     S
H284   N343    1.045   .     S
H285   N343    1.045   .     S
H286   N344    1.045   .     S
H287   N344    1.045   .     S
H288   N345    1.045   .     S
H289   N345    1.045   .     S
H290   N347    1.045   .     S
H291   N346    1.045   .     S
H292   N347    1.045   .     S
H293   N348    1.045   .     S
H294   N348    1.045   .     S
H295   N349    1.045   .     S
H296   N349    1.045   .     S
H297   N350    1.045   .     S
H298   N350    1.045   .     S
H299   N351    1.045   .     S
H300   N351    1.045   .     S
H301   N352    1.045   .     S
H302   N357    1.045   .     S
H303   N352    1.045   .     S
H304   N353    1.045   .     S
H305   N353    1.045   .     S
H306   N354    1.045   .     S
H307   N354    1.045   .     S
H308   N355    1.045   .     S
H309   N355    1.045   .     S
H310   N356    1.031   .     S
N356   C487    1.450   .     S
N358   C488    1.446   .     S
N359   C933    1.446   .     S
N360   C935    1.450   .     S
N361   C492    1.450   1_455 S
N362   C493    1.446   1_455 S
N363   C938    1.446   1_545 S
N364   C939    1.450   1_545 S
O377   Zn432   1.948   .     S
O377   Zn429   1.948   .     S
O377   Zn440   1.948   .     S
O377   Zn1324  1.948   1_545 S
O378   Zn431   1.948   .     S
O378   C978    1.276   .     S
O379   Zn434   1.948   .     S
O379   C535    1.276   .     S
O380   Zn433   1.948   .     S
O381   Zn443   1.948   .     S
O382   Zn442   1.948   .     S
O383   Zn437   1.948   .     S
O384   Zn429   1.948   .     S
O385   Zn439   1.948   .     S
O386   Zn438   1.948   .     S
O387   Zn441   1.948   .     S
O388   Zn435   1.948   .     S
O388   Zn437   1.948   .     S
O388   Zn441   1.948   .     S
O388   Zn1319  1.948   1_545 S
O389   Zn440   1.948   .     S
O390   Zn432   1.938   .     S
O391   Zn431   1.938   .     S
O392   Zn434   1.937   .     S
O393   Zn433   1.937   .     S
O394   Zn436   1.938   .     S
O395   Zn435   1.938   .     S
O396   Zn430   1.937   .     S
O397   Zn444   1.937   .     S
O398   Zn431   1.937   .     S
O399   Zn878   1.948   1_455 S
O399   Zn430   1.948   .     S
O399   Zn438   1.948   .     S
O399   Zn442   1.948   .     S
O400   Zn432   1.937   .     S
O401   Zn444   1.938   .     S
O402   Zn430   1.938   .     S
O403   Zn435   1.937   .     S
O404   Zn436   1.937   .     S
O405   Zn433   1.938   .     S
O406   Zn434   1.938   .     S
O407   Zn883   1.938   .     S
O408   Zn438   1.938   .     S
O409   Zn1329  1.937   .     S
O410   Zn888   1.948   1_455 S
O410   Zn443   1.948   .     S
O410   Zn433   1.948   .     S
O410   Zn439   1.948   .     S
O411   Zn440   1.937   .     S
O412   Zn443   1.938   .     S
O413   Zn886   1.938   .     S
O414   Zn437   1.937   .     S
O415   Zn1317  1.937   .     S
O416   Zn882   1.937   .     S
O417   Zn439   1.937   .     S
O418   Zn429   1.938   .     S
O419   Zn1325  1.938   .     S
O420   Zn442   1.937   .     S
O421   Zn436   1.948   .     S
O421   C977    1.277   .     A
O422   Zn887   1.937   .     S
O423   Zn1328  1.938   .     S
O424   Zn441   1.938   .     S
O425   Zn435   1.948   .     S
O426   Zn430   1.948   .     S
O427   Zn444   1.948   .     S
O427   C536    1.277   .     S
O428   Zn432   1.948   .     S
Zn429  O1303   1.937   1_545 S
Zn431  O1276   1.948   .     S
Zn434  O843    1.948   .     S
Zn436  O1265   1.948   .     S
Zn437  O1307   1.938   1_545 S
Zn438  O860    1.937   1_455 S
Zn439  O851    1.938   1_455 S
Zn440  O1311   1.938   1_545 S
Zn441  O1297   1.937   1_545 S
Zn442  O857    1.938   1_455 S
Zn443  O866    1.937   1_455 S
Zn444  O854    1.948   .     S
C445   N800    1.430   .     S
C445   C4      1.416   1_655 S
C445   C62     1.399   1_655 S
C446   N810    1.428   .     S
C446   C458    1.416   .     A
C446   C1400   1.401   .     A
C447   C518    1.414   .     A
C447   C1370   1.424   .     S
C447   C1463   1.416   .     S
C448   C519    1.414   .     A
C448   C478    1.424   .     A
C449   C521    1.418   .     A
C449   C509    1.416   .     A
C449   C36     1.424   1_655 S
C450   C522    1.418   .     A
C450   C520    1.416   .     A
C450   C1369   1.424   .     S
C451   C523    1.414   .     A
C451   C482    1.424   .     A
C451   C1419   1.416   1_545 S
C452   C479    1.416   .     A
C452   C1371   1.424   .     A
C452   C524    1.414   .     A
C453   C490    1.416   .     A
C453   C525    1.418   .     A
C453   C484    1.424   .     S
C454   C485    1.424   .     A
C454   C526    1.418   .     A
C454   C501    1.416   .     A
C455   C505    1.416   .     A
C455   C527    1.414   .     A
C455   C42     1.424   1_655 S
C456   C528    1.414   .     A
C456   C586    1.416   .     A
C456   C483    1.424   .     S
C457   N811    1.428   .     S
C457   C459    1.416   .     A
C457   C69     1.401   1_655 S
C458   C1372   1.424   .     A
C458   C529    1.418   .     A
C459   C530    1.418   .     A
C459   C41     1.424   1_655 S
C460   C532    1.414   .     A
C460   C468    1.416   .     A
C460   C486    1.424   .     A
C461   C548    1.457   .     S
C461   C576    1.407   .     A
C461   C578    1.407   .     A
C462   C577    1.406   .     A
C462   C574    1.406   .     A
C462   C549    1.455   .     S
C463   C573    1.407   .     A
C463   C580    1.407   .     A
C463   C541    1.459   .     S
C464   C543    1.456   .     S
C464   C572    1.406   .     A
C464   C579    1.406   .     A
C465   C582    1.407   .     A
C465   C571    1.407   .     A
C465   C544    1.457   .     S
C466   C545    1.455   .     S
C466   C581    1.406   .     A
C466   C570    1.406   .     A
C467   C584    1.407   .     A
C467   C546    1.459   .     S
C467   C569    1.407   .     A
C468   N813    1.430   .     S
C468   C514    1.399   .     A
C469   C547    1.456   .     S
C469   C583    1.406   .     A
C469   C568    1.406   .     A
C470   C567    1.407   .     A
C470   C587    1.407   .     A
C470   C557    1.459   .     S
C471   C585    1.406   .     A
C471   C566    1.406   .     A
C471   C558    1.456   .     S
C472   C589    1.407   .     A
C472   C550    1.457   .     S
C472   C565    1.407   .     A
C473   C563    1.406   .     A
C473   C588    1.406   .     A
C473   C551    1.455   .     S
C474   C591    1.407   .     A
C474   C562    1.407   .     A
C474   C552    1.459   .     S
C475   C554    1.456   .     S
C475   C590    1.406   .     A
C475   C561    1.406   .     A
C476   C560    1.407   .     A
C476   C555    1.457   .     S
C476   C593    1.407   .     A
C477   C559    1.406   .     A
C477   C592    1.406   .     A
C477   C556    1.455   .     S
C478   C480    1.417   .     A
C479   N814    1.430   .     S
C479   C1399   1.399   .     A
C480   C595    1.424   .     A
C481   C596    1.424   .     A
C481   C482    1.417   .     A
C481   C1338   1.424   1_545 S
C482   C1335   1.424   1_545 S
C483   C1340   1.424   1_545 A
C483   C484    1.417   1_556 S
C484   C1346   1.424   1_545 A
C484   C483    1.417   1_554 S
C485   C486    1.417   1_556 S
C486   C485    1.417   1_554 S
C487   H756    1.110   .     S
C487   H599    1.112   .     S
C487   H755    1.110   .     S
C488   H603    1.111   .     S
C488   H601    1.110   .     S
C488   H602    1.110   .     S
C489   H605    1.110   .     S
C489   H607    1.111   .     S
C489   H606    1.110   .     S
C489   N1691   1.446   1_545 S
C490   N815    1.428   .     S
C490   C512    1.401   .     S
C491   H612    1.112   .     S
C491   H610    1.110   .     S
C491   H611    1.110   .     S
C491   N1692   1.450   1_545 S
C492   H615    1.110   .     S
C492   H614    1.110   .     S
C492   H616    1.112   .     S
C492   N361    1.450   1_655 S
C493   H621    1.111   .     S
C493   H619    1.110   .     S
C493   H618    1.110   .     S
C493   N362    1.446   1_655 S
C494   H623    1.110   .     S
C494   H625    1.111   .     S
C494   H624    1.110   .     S
C494   N1695   1.446   .     S
C495   H627    1.110   .     S
C495   H628    1.110   .     S
C495   H629    1.112   .     S
C495   N1696   1.450   .     S
C496   N809    1.450   .     S
C496   H633    1.110   .     S
C496   H632    1.110   .     S
C496   H634    1.112   .     S
C497   H637    1.110   .     S
C497   H638    1.111   .     S
C497   N810    1.446   .     S
C497   H636    1.110   .     S
C498   H640    1.110   .     S
C498   N811    1.446   .     S
C498   H643    1.111   .     S
C498   H641    1.110   .     S
C499   H647    1.112   .     S
C499   H645    1.110   .     S
C499   H646    1.110   .     S
C499   N813    1.450   .     S
C500   H649    1.110   .     S
C500   H651    1.112   .     S
C500   H650    1.110   .     S
C500   N814    1.450   .     S
C501   N816    1.428   .     S
C501   C513    1.401   .     A
C502   H655    1.110   .     S
C502   N815    1.446   .     S
C502   H656    1.111   .     S
C502   H654    1.110   .     S
C503   H659    1.110   .     S
C503   H660    1.111   .     S
C503   H658    1.110   .     S
C503   N816    1.446   .     S
C504   H663    1.110   .     S
C504   H662    1.110   .     S
C504   N817    1.450   .     S
C504   H665    1.112   .     S
C505   N817    1.430   .     S
C505   C70     1.399   1_655 S
C506   C535    1.452   .     S
C506   C542    1.399   .     A
C507   C553    1.401   .     A
C507   C536    1.454   .     S
C508   C564    1.401   .     A
C508   C1408   1.401   1_545 S
C508   C533    1.454   .     S
C509   N802    1.428   .     S
C509   C63     1.401   1_655 S
C510   C534    1.452   .     S
C510   C575    1.399   .     A
C510   C1419   1.399   1_545 S
C511   C539    1.452   .     S
C511   C1367   1.399   1_545 A
C511   C586    1.399   .     S
C512   C540    1.454   .     S
C512   C1334   1.401   1_545 A
C513   C537    1.454   .     S
C514   C538    1.452   .     S
C515   N757    1.436   .     S
C515   C594    1.414   .     A
C515   C521    1.406   .     A
C516   N768    1.438   .     S
C516   C595    1.418   .     A
C516   C519    1.406   .     A
C517   N779    1.438   .     S
C517   C523    1.406   .     A
C517   C596    1.418   .     A
C518   C522    1.406   .     A
C518   N790    1.436   .     S
C519   N801    1.436   .     S
C520   N803    1.428   .     S
C520   C1396   1.401   .     S
C521   N812    1.438   .     S
C522   N818    1.438   .     S
C523   N819    1.436   .     S
C524   N820    1.436   .     S
C524   C529    1.406   1_556 S
C525   N758    1.438   .     S
C525   C528    1.406   1_554 S
C526   N759    1.438   .     S
C526   C532    1.406   1_556 S
C527   N760    1.436   .     S
C527   C530    1.406   1_554 S
C528   N761    1.436   .     S
C528   C525    1.406   1_556 S
C529   N762    1.438   .     S
C529   C524    1.406   1_554 S
C530   N763    1.438   .     S
C530   C527    1.406   1_556 S
C531   N804    1.430   .     S
C531   C1398   1.399   .     S
C531   C1339   1.416   .     S
C532   N764    1.436   .     S
C532   C526    1.406   1_554 S
C533   O1753   1.277   1_545 A
C533   O872    1.277   .     S
C534   O869    1.276   .     A
C534   O1710   1.276   1_545 S
C535   O870    1.276   .     A
C536   O824    1.277   .     A
C537   O825    1.277   .     A
C537   O829    1.277   .     A
C538   O826    1.276   .     A
C538   O830    1.276   .     A
C539   O827    1.276   .     S
C539   O831    1.276   .     S
C540   O828    1.277   .     S
C540   O833    1.277   .     S
C541   O862    1.281   .     A
C541   O834    1.281   .     A
C542   N805    1.430   .     S
C543   O863    1.280   .     A
C543   O835    1.280   .     A
C544   O860    1.281   .     A
C544   O836    1.281   .     A
C545   O861    1.280   .     A
C545   O837    1.280   .     A
C546   O867    1.281   .     A
C546   O838    1.281   .     A
C547   O868    1.280   .     A
C547   O839    1.280   .     A
C548   O840    1.281   .     A
C548   O864    1.281   .     A
C549   O841    1.280   .     A
C549   O866    1.280   .     A
C550   O842    1.281   .     A
C550   O853    1.281   .     A
C551   O844    1.280   .     A
C551   O855    1.280   .     A
C552   O845    1.281   .     A
C552   O851    1.281   .     A
C553   C595    1.416   .     A
C553   N806    1.428   .     S
C554   O852    1.280   .     A
C554   O846    1.280   .     A
C555   O847    1.281   .     A
C555   O858    1.281   .     A
C556   O859    1.280   .     A
C556   O848    1.280   .     A
C557   O856    1.281   .     A
C557   O849    1.281   .     A
C558   O850    1.280   .     A
C558   O857    1.280   .     A
C559   N765    1.437   .     S
C559   C576    1.403   .     A
C560   C574    1.403   .     A
C560   N766    1.436   .     S
C561   C573    1.403   .     A
C561   N767    1.437   .     S
C562   N769    1.435   .     S
C562   C572    1.403   .     A
C563   N770    1.437   .     S
C563   C571    1.403   .     A
C564   N807    1.428   .     S
C564   C596    1.416   .     A
C565   C570    1.403   .     A
C565   N771    1.436   .     S
C566   N772    1.437   .     S
C566   C569    1.403   .     A
C567   C568    1.403   .     A
C567   N773    1.435   .     S
C568   N774    1.437   .     S
C569   N775    1.435   .     S
C570   N776    1.437   .     S
C571   N777    1.436   .     S
C572   N778    1.437   .     S
C573   N780    1.435   .     S
C574   N781    1.437   .     S
C575   N808    1.430   .     S
C575   C1335   1.416   1_545 S
C576   N782    1.436   .     S
C577   N783    1.437   .     S
C577   C593    1.403   .     A
C578   N784    1.436   .     S
C578   C592    1.403   .     A
C579   N785    1.437   .     S
C579   C591    1.403   .     A
C580   C590    1.403   .     A
C580   N786    1.435   .     S
C581   N787    1.437   .     S
C581   C589    1.403   .     A
C582   C588    1.403   .     A
C582   N788    1.436   .     S
C583   N789    1.437   .     S
C583   C587    1.403   .     A
C584   C585    1.403   .     A
C584   N791    1.435   .     S
C585   N792    1.437   .     S
C586   N809    1.430   .     S
C587   N793    1.435   .     S
C588   N794    1.437   .     S
C589   N795    1.436   .     S
C590   N796    1.437   .     S
C591   N797    1.435   .     S
C592   N798    1.437   .     S
C593   N799    1.436   .     S
C594   C98     1.416   1_655 S
C594   C34     1.424   1_655 S
H597   N757    1.045   .     S
H598   N801    1.045   .     S
H600   N802    1.031   .     S
H604   N803    1.031   .     S
H608   N804    1.031   .     S
H609   N812    1.045   .     S
H613   N805    1.031   .     S
H617   N806    1.031   .     S
H620   N812    1.045   .     S
H622   N807    1.031   .     S
H626   N808    1.031   .     S
H630   N809    1.031   .     S
H631   N818    1.045   .     S
H635   N810    1.031   .     S
H639   N811    1.031   .     S
H642   N818    1.045   .     S
H644   N813    1.031   .     S
H648   N814    1.031   .     S
H652   N815    1.031   .     S
H653   N819    1.045   .     S
H657   N816    1.031   .     S
H661   N817    1.031   .     S
H664   N819    1.045   .     S
H666   N820    1.045   .     S
H667   N820    1.045   .     S
H668   N758    1.045   .     S
H669   N757    1.045   .     S
H670   N758    1.045   .     S
H671   N759    1.045   .     S
H672   N759    1.045   .     S
H673   N760    1.045   .     S
H674   N760    1.045   .     S
H675   N761    1.045   .     S
H676   N761    1.045   .     S
H677   N762    1.045   .     S
H678   N762    1.045   .     S
H679   N763    1.045   .     S
H680   N768    1.045   .     S
H681   N763    1.045   .     S
H682   N764    1.045   .     S
H683   N764    1.045   .     S
H684   N765    1.045   .     S
H685   N765    1.045   .     S
H686   N766    1.045   .     S
H687   N766    1.045   .     S
H688   N767    1.045   .     S
H689   N767    1.045   .     S
H690   N769    1.045   .     S
H691   N768    1.045   .     S
H692   N769    1.045   .     S
H693   N770    1.045   .     S
H694   N770    1.045   .     S
H695   N771    1.045   .     S
H696   N771    1.045   .     S
H697   N772    1.045   .     S
H698   N772    1.045   .     S
H699   N773    1.045   .     S
H700   N773    1.045   .     S
H701   N774    1.045   .     S
H702   N779    1.045   .     S
H703   N774    1.045   .     S
H704   N775    1.045   .     S
H705   N775    1.045   .     S
H706   N776    1.045   .     S
H707   N776    1.045   .     S
H708   N777    1.045   .     S
H709   N777    1.045   .     S
H710   N778    1.045   .     S
H711   N778    1.045   .     S
H712   N780    1.045   .     S
H713   N779    1.045   .     S
H714   N780    1.045   .     S
H715   N781    1.045   .     S
H716   N781    1.045   .     S
H717   N782    1.045   .     S
H718   N782    1.045   .     S
H719   N783    1.045   .     S
H720   N783    1.045   .     S
H721   N784    1.045   .     S
H722   N784    1.045   .     S
H723   N785    1.045   .     S
H724   N790    1.045   .     S
H725   N785    1.045   .     S
H726   N786    1.045   .     S
H727   N786    1.045   .     S
H728   N787    1.045   .     S
H729   N787    1.045   .     S
H730   N788    1.045   .     S
H731   N788    1.045   .     S
H732   N789    1.045   .     S
H733   N789    1.045   .     S
H734   N791    1.045   .     S
H735   N790    1.045   .     S
H736   N791    1.045   .     S
H737   N792    1.045   .     S
H738   N792    1.045   .     S
H739   N793    1.045   .     S
H740   N793    1.045   .     S
H741   N794    1.045   .     S
H742   N794    1.045   .     S
H743   N795    1.045   .     S
H744   N795    1.045   .     S
H745   N796    1.045   .     S
H746   N801    1.045   .     S
H747   N796    1.045   .     S
H748   N797    1.045   .     S
H749   N797    1.045   .     S
H750   N798    1.045   .     S
H751   N798    1.045   .     S
H752   N799    1.045   .     S
H753   N799    1.045   .     S
H754   N800    1.031   .     S
N800   C43     1.450   1_655 S
N802   C44     1.446   1_655 S
N803   C1377   1.446   .     S
N804   C1379   1.450   .     S
N807   C1382   1.446   1_545 S
N808   C1383   1.450   1_545 S
O821   Zn876   1.948   .     S
O821   Zn873   1.948   .     S
O821   Zn884   1.948   .     S
O821   Zn1768  1.948   1_545 S
O822   Zn875   1.948   .     S
O822   C1422   1.276   .     S
O823   Zn878   1.948   .     S
O823   C91     1.276   1_655 S
O824   Zn877   1.948   .     S
O825   Zn887   1.948   .     S
O826   Zn886   1.948   .     S
O827   Zn881   1.948   .     S
O828   Zn873   1.948   .     S
O829   Zn883   1.948   .     S
O830   Zn882   1.948   .     S
O831   Zn885   1.948   .     S
O832   Zn879   1.948   .     S
O832   Zn881   1.948   .     S
O832   Zn885   1.948   .     S
O832   Zn1763  1.948   1_545 S
O833   Zn884   1.948   .     S
O834   Zn876   1.938   .     S
O835   Zn875   1.938   .     S
O836   Zn878   1.937   .     S
O837   Zn877   1.937   .     S
O838   Zn880   1.938   .     S
O839   Zn879   1.938   .     S
O840   Zn874   1.937   .     S
O841   Zn888   1.937   .     S
O842   Zn875   1.937   .     S
O843   Zn874   1.948   .     S
O843   Zn882   1.948   .     S
O843   Zn886   1.948   .     S
O844   Zn876   1.937   .     S
O845   Zn888   1.938   .     S
O846   Zn874   1.938   .     S
O847   Zn879   1.937   .     S
O848   Zn880   1.937   .     S
O849   Zn877   1.938   .     S
O850   Zn878   1.938   .     S
O851   Zn439   1.938   1_655 S
O852   Zn882   1.938   .     S
O853   Zn1773  1.937   .     S
O854   Zn887   1.948   .     S
O854   Zn877   1.948   .     S
O854   Zn883   1.948   .     S
O855   Zn884   1.937   .     S
O856   Zn887   1.938   .     S
O857   Zn442   1.938   1_655 S
O858   Zn881   1.937   .     S
O859   Zn1761  1.937   .     S
O860   Zn438   1.937   1_655 S
O861   Zn883   1.937   .     S
O862   Zn873   1.938   .     S
O863   Zn1769  1.938   .     S
O864   Zn886   1.937   .     S
O865   Zn880   1.948   .     S
O865   C1421   1.277   .     A
O866   Zn443   1.937   1_655 S
O867   Zn1772  1.938   .     S
O868   Zn885   1.938   .     S
O869   Zn879   1.948   .     S
O870   Zn874   1.948   .     S
O871   Zn888   1.948   .     S
O871   C92     1.277   1_655 S
O872   Zn876   1.948   .     S
Zn873  O1747   1.937   1_545 S
Zn875  O1720   1.948   .     S
Zn878  O399    1.948   1_655 S
Zn880  O1709   1.948   .     S
Zn881  O1751   1.938   1_545 S
Zn884  O1755   1.938   1_545 S
Zn885  O1741   1.937   1_545 S
Zn888  O410    1.948   1_655 S
C889   N1244   1.430   .     S
C889   C1336   1.416   .     S
C889   C1394   1.399   .     S
C890   N1254   1.428   .     S
C890   C902    1.416   .     A
C890   C68     1.401   1_565 A
C891   C962    1.414   .     A
C891   C38     1.424   1_565 S
C891   C131    1.416   1_565 S
C892   C963    1.414   .     A
C892   C922    1.424   .     A
C892   C1333   1.416   1_455 S
C893   C965    1.418   .     A
C893   C953    1.416   .     A
C893   C1368   1.424   .     S
C894   C966    1.418   .     A
C894   C964    1.416   .     A
C894   C37     1.424   1_565 S
C895   C967    1.414   .     A
C895   C926    1.424   .     A
C896   C923    1.416   .     A
C896   C39     1.424   1_565 A
C896   C968    1.414   .     A
C897   C934    1.416   .     A
C897   C969    1.418   .     A
C897   C928    1.424   .     S
C898   C929    1.424   .     A
C898   C970    1.418   .     A
C898   C945    1.416   .     A
C899   C949    1.416   .     A
C899   C971    1.414   .     A
C899   C1374   1.424   .     S
C900   C972    1.414   .     A
C900   C1030   1.416   .     A
C900   C927    1.424   .     S
C901   N1255   1.428   .     S
C901   C903    1.416   .     A
C901   C1401   1.401   .     S
C902   C40     1.424   1_565 A
C902   C973    1.418   .     A
C903   C974    1.418   .     A
C903   C1373   1.424   .     S
C904   C976    1.414   .     A
C904   C912    1.416   .     A
C904   C930    1.424   .     A
C905   C992    1.457   .     S
C905   C1020   1.407   .     A
C905   C1022   1.407   .     A
C906   C1021   1.406   .     A
C906   C1018   1.406   .     A
C906   C993    1.455   .     S
C907   C1017   1.407   .     A
C907   C1024   1.407   .     A
C907   C985    1.459   .     S
C908   C987    1.456   .     S
C908   C1016   1.406   .     A
C908   C1023   1.406   .     A
C909   C1026   1.407   .     A
C909   C1015   1.407   .     A
C909   C988    1.457   .     S
C910   C989    1.455   .     S
C910   C1025   1.406   .     A
C910   C1014   1.406   .     A
C911   C1028   1.407   .     A
C911   C990    1.459   .     S
C911   C1013   1.407   .     A
C912   N1257   1.430   .     S
C912   C958    1.399   .     A
C913   C991    1.456   .     S
C913   C1027   1.406   .     A
C913   C1012   1.406   .     A
C914   C1011   1.407   .     A
C914   C1031   1.407   .     A
C914   C1001   1.459   .     S
C915   C1029   1.406   .     A
C915   C1010   1.406   .     A
C915   C1002   1.456   .     S
C916   C1033   1.407   .     A
C916   C994    1.457   .     S
C916   C1009   1.407   .     A
C917   C1007   1.406   .     A
C917   C1032   1.406   .     A
C917   C995    1.455   .     S
C918   C1035   1.407   .     A
C918   C1006   1.407   .     A
C918   C996    1.459   .     S
C919   C998    1.456   .     S
C919   C1034   1.406   .     A
C919   C1005   1.406   .     A
C920   C1004   1.407   .     A
C920   C999    1.457   .     S
C920   C1037   1.407   .     A
C921   C1003   1.406   .     A
C921   C1036   1.406   .     A
C921   C1000   1.455   .     S
C922   C924    1.417   .     A
C922   C1482   1.424   1_455 S
C923   N1258   1.430   .     S
C923   C67     1.399   1_565 A
C924   C1039   1.424   .     A
C924   C1337   1.424   1_455 S
C925   C1040   1.424   .     A
C925   C926    1.417   .     A
C927   C928    1.417   1_556 S
C928   C927    1.417   1_554 S
C929   C1347   1.424   1_455 S
C929   C930    1.417   1_556 S
C930   C1343   1.424   1_455 S
C930   C929    1.417   1_554 S
C931   H1200   1.110   .     S
C931   H1043   1.112   .     S
C931   H1199   1.110   .     S
C931   N1688   1.450   1_455 S
C932   H1047   1.111   .     S
C932   H1045   1.110   .     S
C932   H1046   1.110   .     S
C932   N1690   1.446   1_455 S
C933   H1049   1.110   .     S
C933   H1051   1.111   .     S
C933   H1050   1.110   .     S
C934   N1259   1.428   .     S
C934   C956    1.401   .     S
C935   H1056   1.112   .     S
C935   H1054   1.110   .     S
C935   H1055   1.110   .     S
C936   H1059   1.110   .     S
C936   H1058   1.110   .     S
C936   H1060   1.112   .     S
C936   N1693   1.450   .     S
C937   H1065   1.111   .     S
C937   H1063   1.110   .     S
C937   H1062   1.110   .     S
C937   N1694   1.446   .     S
C938   H1067   1.110   .     S
C938   H1069   1.111   .     S
C938   H1068   1.110   .     S
C938   N363    1.446   1_565 S
C939   H1071   1.110   .     S
C939   H1072   1.110   .     S
C939   H1073   1.112   .     S
C939   N364    1.450   1_565 S
C940   N1253   1.450   .     S
C940   H1077   1.110   .     S
C940   H1076   1.110   .     S
C940   H1078   1.112   .     S
C941   H1081   1.110   .     S
C941   H1082   1.111   .     S
C941   N1254   1.446   .     S
C941   H1080   1.110   .     S
C942   H1084   1.110   .     S
C942   N1255   1.446   .     S
C942   H1087   1.111   .     S
C942   H1085   1.110   .     S
C943   H1091   1.112   .     S
C943   H1089   1.110   .     S
C943   H1090   1.110   .     S
C943   N1257   1.450   .     S
C944   H1093   1.110   .     S
C944   H1095   1.112   .     S
C944   H1094   1.110   .     S
C944   N1258   1.450   .     S
C945   N1260   1.428   .     S
C945   C957    1.401   .     A
C946   H1099   1.110   .     S
C946   N1259   1.446   .     S
C946   H1100   1.111   .     S
C946   H1098   1.110   .     S
C947   H1103   1.110   .     S
C947   H1104   1.111   .     S
C947   H1102   1.110   .     S
C947   N1260   1.446   .     S
C948   H1107   1.110   .     S
C948   H1106   1.110   .     S
C948   N1261   1.450   .     S
C948   H1109   1.112   .     S
C949   N1261   1.430   .     S
C949   C1402   1.399   .     S
C950   C979    1.452   .     S
C950   C986    1.399   .     A
C950   C1333   1.399   1_455 S
C951   C997    1.401   .     A
C951   C980    1.454   .     S
C951   C1397   1.401   1_455 S
C952   C1008   1.401   .     A
C952   C977    1.454   .     S
C953   N1246   1.428   .     S
C953   C1395   1.401   .     S
C954   C978    1.452   .     S
C954   C1019   1.399   .     A
C955   C983    1.452   .     S
C955   C1030   1.399   .     S
C956   C984    1.454   .     S
C957   C981    1.454   .     S
C957   C1345   1.401   1_455 S
C958   C982    1.452   .     S
C958   C1393   1.399   1_455 S
C959   N1201   1.436   .     S
C959   C1038   1.414   .     A
C959   C965    1.406   .     A
C960   N1212   1.438   .     S
C960   C1039   1.418   .     A
C960   C963    1.406   .     A
C961   N1223   1.438   .     S
C961   C967    1.406   .     A
C961   C1040   1.418   .     A
C962   C966    1.406   .     A
C962   N1234   1.436   .     S
C963   N1245   1.436   .     S
C964   N1247   1.428   .     S
C964   C64     1.401   1_565 S
C965   N1256   1.438   .     S
C966   N1262   1.438   .     S
C967   N1263   1.436   .     S
C968   N1264   1.436   .     S
C968   C973    1.406   1_556 S
C969   N1202   1.438   .     S
C969   C972    1.406   1_554 S
C970   N1203   1.438   .     S
C970   C976    1.406   1_556 S
C971   N1204   1.436   .     S
C971   C974    1.406   1_554 S
C972   N1205   1.436   .     S
C972   C969    1.406   1_556 S
C973   N1206   1.438   .     S
C973   C968    1.406   1_554 S
C974   N1207   1.438   .     S
C974   C971    1.406   1_556 S
C975   N1248   1.430   .     S
C975   C66     1.399   1_565 S
C975   C7      1.416   1_565 S
C976   N1208   1.436   .     S
C976   C970    1.406   1_554 S
C977   O1316   1.277   .     S
C978   O1313   1.276   .     A
C979   O1314   1.276   .     A
C979   O1711   1.276   1_455 S
C980   O1268   1.277   .     A
C980   O1759   1.277   1_455 S
C981   O1269   1.277   .     A
C981   O1273   1.277   .     A
C982   O1270   1.276   .     A
C982   O1274   1.276   .     A
C983   O1271   1.276   .     S
C983   O1275   1.276   .     S
C984   O1272   1.277   .     S
C984   O1277   1.277   .     S
C985   O1306   1.281   .     A
C985   O1278   1.281   .     A
C986   N1249   1.430   .     S
C986   C1482   1.416   1_455 S
C987   O1307   1.280   .     A
C987   O1279   1.280   .     A
C988   O1304   1.281   .     A
C988   O1280   1.281   .     A
C989   O1305   1.280   .     A
C989   O1281   1.280   .     A
C990   O1311   1.281   .     A
C990   O1282   1.281   .     A
C991   O1312   1.280   .     A
C991   O1283   1.280   .     A
C992   O1284   1.281   .     A
C992   O1308   1.281   .     A
C993   O1285   1.280   .     A
C993   O1310   1.280   .     A
C994   O1286   1.281   .     A
C994   O1297   1.281   .     A
C995   O1288   1.280   .     A
C995   O1299   1.280   .     A
C996   O1289   1.281   .     A
C996   O1295   1.281   .     A
C997   C1039   1.416   .     A
C997   N1250   1.428   .     S
C998   O1296   1.280   .     A
C998   O1290   1.280   .     A
C999   O1291   1.281   .     A
C999   O1302   1.281   .     A
C1000  O1303   1.280   .     A
C1000  O1292   1.280   .     A
C1001  O1300   1.281   .     A
C1001  O1293   1.281   .     A
C1002  O1294   1.280   .     A
C1002  O1301   1.280   .     A
C1003  N1209   1.437   .     S
C1003  C1020   1.403   .     A
C1004  C1018   1.403   .     A
C1004  N1210   1.436   .     S
C1005  C1017   1.403   .     A
C1005  N1211   1.437   .     S
C1006  N1213   1.435   .     S
C1006  C1016   1.403   .     A
C1007  N1214   1.437   .     S
C1007  C1015   1.403   .     A
C1008  N1251   1.428   .     S
C1008  C1040   1.416   .     A
C1009  C1014   1.403   .     A
C1009  N1215   1.436   .     S
C1010  N1216   1.437   .     S
C1010  C1013   1.403   .     A
C1011  C1012   1.403   .     A
C1011  N1217   1.435   .     S
C1012  N1218   1.437   .     S
C1013  N1219   1.435   .     S
C1014  N1220   1.437   .     S
C1015  N1221   1.436   .     S
C1016  N1222   1.437   .     S
C1017  N1224   1.435   .     S
C1018  N1225   1.437   .     S
C1019  N1252   1.430   .     S
C1020  N1226   1.436   .     S
C1021  N1227   1.437   .     S
C1021  C1037   1.403   .     A
C1022  N1228   1.436   .     S
C1022  C1036   1.403   .     A
C1023  N1229   1.437   .     S
C1023  C1035   1.403   .     A
C1024  C1034   1.403   .     A
C1024  N1230   1.435   .     S
C1025  N1231   1.437   .     S
C1025  C1033   1.403   .     A
C1026  C1032   1.403   .     A
C1026  N1232   1.436   .     S
C1027  N1233   1.437   .     S
C1027  C1031   1.403   .     A
C1028  C1029   1.403   .     A
C1028  N1235   1.435   .     S
C1029  N1236   1.437   .     S
C1030  N1253   1.430   .     S
C1031  N1237   1.435   .     S
C1032  N1238   1.437   .     S
C1033  N1239   1.436   .     S
C1034  N1240   1.437   .     S
C1035  N1241   1.435   .     S
C1036  N1242   1.437   .     S
C1037  N1243   1.436   .     S
C1038  C1430   1.416   .     S
C1038  C1366   1.424   .     S
H1041  N1201   1.045   .     S
H1042  N1245   1.045   .     S
H1044  N1246   1.031   .     S
H1048  N1247   1.031   .     S
H1052  N1248   1.031   .     S
H1053  N1256   1.045   .     S
H1057  N1249   1.031   .     S
H1061  N1250   1.031   .     S
H1064  N1256   1.045   .     S
H1066  N1251   1.031   .     S
H1070  N1252   1.031   .     S
H1074  N1253   1.031   .     S
H1075  N1262   1.045   .     S
H1079  N1254   1.031   .     S
H1083  N1255   1.031   .     S
H1086  N1262   1.045   .     S
H1088  N1257   1.031   .     S
H1092  N1258   1.031   .     S
H1096  N1259   1.031   .     S
H1097  N1263   1.045   .     S
H1101  N1260   1.031   .     S
H1105  N1261   1.031   .     S
H1108  N1263   1.045   .     S
H1110  N1264   1.045   .     S
H1111  N1264   1.045   .     S
H1112  N1202   1.045   .     S
H1113  N1201   1.045   .     S
H1114  N1202   1.045   .     S
H1115  N1203   1.045   .     S
H1116  N1203   1.045   .     S
H1117  N1204   1.045   .     S
H1118  N1204   1.045   .     S
H1119  N1205   1.045   .     S
H1120  N1205   1.045   .     S
H1121  N1206   1.045   .     S
H1122  N1206   1.045   .     S
H1123  N1207   1.045   .     S
H1124  N1212   1.045   .     S
H1125  N1207   1.045   .     S
H1126  N1208   1.045   .     S
H1127  N1208   1.045   .     S
H1128  N1209   1.045   .     S
H1129  N1209   1.045   .     S
H1130  N1210   1.045   .     S
H1131  N1210   1.045   .     S
H1132  N1211   1.045   .     S
H1133  N1211   1.045   .     S
H1134  N1213   1.045   .     S
H1135  N1212   1.045   .     S
H1136  N1213   1.045   .     S
H1137  N1214   1.045   .     S
H1138  N1214   1.045   .     S
H1139  N1215   1.045   .     S
H1140  N1215   1.045   .     S
H1141  N1216   1.045   .     S
H1142  N1216   1.045   .     S
H1143  N1217   1.045   .     S
H1144  N1217   1.045   .     S
H1145  N1218   1.045   .     S
H1146  N1223   1.045   .     S
H1147  N1218   1.045   .     S
H1148  N1219   1.045   .     S
H1149  N1219   1.045   .     S
H1150  N1220   1.045   .     S
H1151  N1220   1.045   .     S
H1152  N1221   1.045   .     S
H1153  N1221   1.045   .     S
H1154  N1222   1.045   .     S
H1155  N1222   1.045   .     S
H1156  N1224   1.045   .     S
H1157  N1223   1.045   .     S
H1158  N1224   1.045   .     S
H1159  N1225   1.045   .     S
H1160  N1225   1.045   .     S
H1161  N1226   1.045   .     S
H1162  N1226   1.045   .     S
H1163  N1227   1.045   .     S
H1164  N1227   1.045   .     S
H1165  N1228   1.045   .     S
H1166  N1228   1.045   .     S
H1167  N1229   1.045   .     S
H1168  N1234   1.045   .     S
H1169  N1229   1.045   .     S
H1170  N1230   1.045   .     S
H1171  N1230   1.045   .     S
H1172  N1231   1.045   .     S
H1173  N1231   1.045   .     S
H1174  N1232   1.045   .     S
H1175  N1232   1.045   .     S
H1176  N1233   1.045   .     S
H1177  N1233   1.045   .     S
H1178  N1235   1.045   .     S
H1179  N1234   1.045   .     S
H1180  N1235   1.045   .     S
H1181  N1236   1.045   .     S
H1182  N1236   1.045   .     S
H1183  N1237   1.045   .     S
H1184  N1237   1.045   .     S
H1185  N1238   1.045   .     S
H1186  N1238   1.045   .     S
H1187  N1239   1.045   .     S
H1188  N1239   1.045   .     S
H1189  N1240   1.045   .     S
H1190  N1245   1.045   .     S
H1191  N1240   1.045   .     S
H1192  N1241   1.045   .     S
H1193  N1241   1.045   .     S
H1194  N1242   1.045   .     S
H1195  N1242   1.045   .     S
H1196  N1243   1.045   .     S
H1197  N1243   1.045   .     S
H1198  N1244   1.031   .     S
N1244  C1375   1.450   .     S
N1246  C1376   1.446   .     S
N1247  C45     1.446   1_565 S
N1248  C47     1.450   1_565 S
N1249  C1380   1.450   1_455 S
N1250  C1381   1.446   1_455 S
O1265  Zn1320  1.948   .     S
O1265  Zn1317  1.948   .     S
O1265  Zn1328  1.948   .     S
O1266  Zn1319  1.948   .     S
O1266  C90     1.276   1_565 S
O1267  Zn1322  1.948   .     S
O1267  C1423   1.276   .     S
O1268  Zn1321  1.948   .     S
O1269  Zn1331  1.948   .     S
O1270  Zn1330  1.948   .     S
O1271  Zn1325  1.948   .     S
O1272  Zn1317  1.948   .     S
O1273  Zn1327  1.948   .     S
O1274  Zn1326  1.948   .     S
O1275  Zn1329  1.948   .     S
O1276  Zn1323  1.948   .     S
O1276  Zn1325  1.948   .     S
O1276  Zn1329  1.948   .     S
O1277  Zn1328  1.948   .     S
O1278  Zn1320  1.938   .     S
O1279  Zn1319  1.938   .     S
O1280  Zn1322  1.937   .     S
O1281  Zn1321  1.937   .     S
O1282  Zn1324  1.938   .     S
O1283  Zn1323  1.938   .     S
O1284  Zn1318  1.937   .     S
O1285  Zn1332  1.937   .     S
O1286  Zn1319  1.937   .     S
O1287  Zn1766  1.948   1_455 S
O1287  Zn1318  1.948   .     S
O1287  Zn1326  1.948   .     S
O1287  Zn1330  1.948   .     S
O1288  Zn1320  1.937   .     S
O1289  Zn1332  1.938   .     S
O1290  Zn1318  1.938   .     S
O1291  Zn1323  1.937   .     S
O1292  Zn1324  1.937   .     S
O1293  Zn1321  1.938   .     S
O1294  Zn1322  1.938   .     S
O1295  Zn1771  1.938   .     S
O1296  Zn1326  1.938   .     S
O1297  Zn441   1.937   1_565 S
O1298  Zn1776  1.948   1_455 S
O1298  Zn1331  1.948   .     S
O1298  Zn1321  1.948   .     S
O1298  Zn1327  1.948   .     S
O1299  Zn1328  1.937   .     S
O1300  Zn1331  1.938   .     S
O1301  Zn1774  1.938   .     S
O1302  Zn1325  1.937   .     S
O1303  Zn429   1.937   1_565 S
O1304  Zn1770  1.937   .     S
O1305  Zn1327  1.937   .     S
O1306  Zn1317  1.938   .     S
O1307  Zn437   1.938   1_565 S
O1308  Zn1330  1.937   .     S
O1309  Zn1324  1.948   .     S
O1309  C89     1.277   1_565 A
O1310  Zn1775  1.937   .     S
O1311  Zn440   1.938   1_565 S
O1312  Zn1329  1.938   .     S
O1313  Zn1323  1.948   .     S
O1314  Zn1318  1.948   .     S
O1315  Zn1332  1.948   .     S
O1315  C1424   1.277   .     S
O1316  Zn1320  1.948   .     S
Zn1319 O388    1.948   1_565 S
Zn1322 O1731   1.948   .     S
Zn1324 O377    1.948   1_565 S
Zn1326 O1748   1.937   1_455 S
Zn1327 O1739   1.938   1_455 S
Zn1330 O1745   1.938   1_455 S
Zn1331 O1754   1.937   1_455 S
Zn1332 O1742   1.948   .     S
C1333  N1688   1.430   .     S
C1333  C892    1.416   1_655 S
C1333  C950    1.399   1_655 S
C1334  N1698   1.428   .     S
C1334  C1346   1.416   .     A
C1334  C512    1.401   1_565 A
C1335  C1406   1.414   .     A
C1335  C482    1.424   1_565 S
C1335  C575    1.416   1_565 S
C1336  C1407   1.414   .     A
C1336  C1366   1.424   .     A
C1337  C1409   1.418   .     A
C1337  C1397   1.416   .     A
C1337  C924    1.424   1_655 S
C1338  C1410   1.418   .     A
C1338  C1408   1.416   .     A
C1338  C481    1.424   1_565 S
C1339  C1411   1.414   .     A
C1339  C1370   1.424   .     A
C1340  C1367   1.416   .     A
C1340  C483    1.424   1_565 A
C1340  C1412   1.414   .     A
C1341  C1378   1.416   .     A
C1341  C1413   1.418   .     A
C1341  C1372   1.424   .     S
C1342  C1373   1.424   .     A
C1342  C1414   1.418   .     A
C1342  C1389   1.416   .     A
C1343  C1393   1.416   .     A
C1343  C1415   1.414   .     A
C1343  C930    1.424   1_655 S
C1344  C1416   1.414   .     A
C1344  C1474   1.416   .     A
C1344  C1371   1.424   .     S
C1345  N1699   1.428   .     S
C1345  C1347   1.416   .     A
C1345  C957    1.401   1_655 S
C1346  C484    1.424   1_565 A
C1346  C1417   1.418   .     A
C1347  C1418   1.418   .     A
C1347  C929    1.424   1_655 S
C1348  C1420   1.414   .     A
C1348  C1356   1.416   .     A
C1348  C1374   1.424   .     A
C1349  C1436   1.457   .     S
C1349  C1464   1.407   .     A
C1349  C1466   1.407   .     A
C1350  C1465   1.406   .     A
C1350  C1462   1.406   .     A
C1350  C1437   1.455   .     S
C1351  C1461   1.407   .     A
C1351  C1468   1.407   .     A
C1351  C1429   1.459   .     S
C1352  C1431   1.456   .     S
C1352  C1460   1.406   .     A
C1352  C1467   1.406   .     A
C1353  C1470   1.407   .     A
C1353  C1459   1.407   .     A
C1353  C1432   1.457   .     S
C1354  C1433   1.455   .     S
C1354  C1469   1.406   .     A
C1354  C1458   1.406   .     A
C1355  C1472   1.407   .     A
C1355  C1434   1.459   .     S
C1355  C1457   1.407   .     A
C1356  N1701   1.430   .     S
C1356  C1402   1.399   .     A
C1357  C1435   1.456   .     S
C1357  C1471   1.406   .     A
C1357  C1456   1.406   .     A
C1358  C1455   1.407   .     A
C1358  C1475   1.407   .     A
C1358  C1445   1.459   .     S
C1359  C1473   1.406   .     A
C1359  C1454   1.406   .     A
C1359  C1446   1.456   .     S
C1360  C1477   1.407   .     A
C1360  C1438   1.457   .     S
C1360  C1453   1.407   .     A
C1361  C1451   1.406   .     A
C1361  C1476   1.406   .     A
C1361  C1439   1.455   .     S
C1362  C1479   1.407   .     A
C1362  C1450   1.407   .     A
C1362  C1440   1.459   .     S
C1363  C1442   1.456   .     S
C1363  C1478   1.406   .     A
C1363  C1449   1.406   .     A
C1364  C1448   1.407   .     A
C1364  C1443   1.457   .     S
C1364  C1481   1.407   .     A
C1365  C1447   1.406   .     A
C1365  C1480   1.406   .     A
C1365  C1444   1.455   .     S
C1366  C1368   1.417   .     A
C1367  N1702   1.430   .     S
C1367  C511    1.399   1_565 A
C1368  C1483   1.424   .     A
C1369  C1484   1.424   .     A
C1369  C1370   1.417   .     A
C1371  C1372   1.417   1_556 S
C1372  C1371   1.417   1_554 S
C1373  C1374   1.417   1_556 S
C1374  C1373   1.417   1_554 S
C1375  H1644   1.110   .     S
C1375  H1487   1.112   .     S
C1375  H1643   1.110   .     S
C1376  H1491   1.111   .     S
C1376  H1489   1.110   .     S
C1376  H1490   1.110   .     S
C1377  H1493   1.110   .     S
C1377  H1495   1.111   .     S
C1377  H1494   1.110   .     S
C1378  N1703   1.428   .     S
C1378  C1400   1.401   .     S
C1379  H1500   1.112   .     S
C1379  H1498   1.110   .     S
C1379  H1499   1.110   .     S
C1380  H1503   1.110   .     S
C1380  H1502   1.110   .     S
C1380  H1504   1.112   .     S
C1380  N1249   1.450   1_655 S
C1381  H1509   1.111   .     S
C1381  H1507   1.110   .     S
C1381  H1506   1.110   .     S
C1381  N1250   1.446   1_655 S
C1382  H1511   1.110   .     S
C1382  H1513   1.111   .     S
C1382  H1512   1.110   .     S
C1382  N807    1.446   1_565 S
C1383  H1515   1.110   .     S
C1383  H1516   1.110   .     S
C1383  H1517   1.112   .     S
C1383  N808    1.450   1_565 S
C1384  N1697   1.450   .     S
C1384  H1521   1.110   .     S
C1384  H1520   1.110   .     S
C1384  H1522   1.112   .     S
C1385  H1525   1.110   .     S
C1385  H1526   1.111   .     S
C1385  N1698   1.446   .     S
C1385  H1524   1.110   .     S
C1386  H1528   1.110   .     S
C1386  N1699   1.446   .     S
C1386  H1531   1.111   .     S
C1386  H1529   1.110   .     S
C1387  H1535   1.112   .     S
C1387  H1533   1.110   .     S
C1387  H1534   1.110   .     S
C1387  N1701   1.450   .     S
C1388  H1537   1.110   .     S
C1388  H1539   1.112   .     S
C1388  H1538   1.110   .     S
C1388  N1702   1.450   .     S
C1389  N1704   1.428   .     S
C1389  C1401   1.401   .     A
C1390  H1543   1.110   .     S
C1390  N1703   1.446   .     S
C1390  H1544   1.111   .     S
C1390  H1542   1.110   .     S
C1391  H1547   1.110   .     S
C1391  H1548   1.111   .     S
C1391  H1546   1.110   .     S
C1391  N1704   1.446   .     S
C1392  H1551   1.110   .     S
C1392  H1550   1.110   .     S
C1392  N1705   1.450   .     S
C1392  H1553   1.112   .     S
C1393  N1705   1.430   .     S
C1393  C958    1.399   1_655 S
C1394  C1423   1.452   .     S
C1394  C1430   1.399   .     A
C1395  C1441   1.401   .     A
C1395  C1424   1.454   .     S
C1396  C1452   1.401   .     A
C1396  C1421   1.454   .     S
C1397  N1690   1.428   .     S
C1397  C951    1.401   1_655 S
C1398  C1422   1.452   .     S
C1398  C1463   1.399   .     A
C1399  C1427   1.452   .     S
C1399  C1474   1.399   .     S
C1400  C1428   1.454   .     S
C1401  C1425   1.454   .     S
C1402  C1426   1.452   .     S
C1403  N1645   1.436   .     S
C1403  C1482   1.414   .     A
C1403  C1409   1.406   .     A
C1404  N1656   1.438   .     S
C1404  C1483   1.418   .     A
C1404  C1407   1.406   .     A
C1405  N1667   1.438   .     S
C1405  C1411   1.406   .     A
C1405  C1484   1.418   .     A
C1406  C1410   1.406   .     A
C1406  N1678   1.436   .     S
C1407  N1689   1.436   .     S
C1408  N1691   1.428   .     S
C1408  C508    1.401   1_565 S
C1409  N1700   1.438   .     S
C1410  N1706   1.438   .     S
C1411  N1707   1.436   .     S
C1412  N1708   1.436   .     S
C1412  C1417   1.406   1_556 S
C1413  N1646   1.438   .     S
C1413  C1416   1.406   1_554 S
C1414  N1647   1.438   .     S
C1414  C1420   1.406   1_556 S
C1415  N1648   1.436   .     S
C1415  C1418   1.406   1_554 S
C1416  N1649   1.436   .     S
C1416  C1413   1.406   1_556 S
C1417  N1650   1.438   .     S
C1417  C1412   1.406   1_554 S
C1418  N1651   1.438   .     S
C1418  C1415   1.406   1_556 S
C1419  N1692   1.430   .     S
C1419  C510    1.399   1_565 S
C1419  C451    1.416   1_565 S
C1420  N1652   1.436   .     S
C1420  C1414   1.406   1_554 S
C1421  O1760   1.277   .     S
C1422  O1757   1.276   .     A
C1423  O1758   1.276   .     A
C1424  O1712   1.277   .     A
C1425  O1713   1.277   .     A
C1425  O1717   1.277   .     A
C1426  O1714   1.276   .     A
C1426  O1718   1.276   .     A
C1427  O1715   1.276   .     S
C1427  O1719   1.276   .     S
C1428  O1716   1.277   .     S
C1428  O1721   1.277   .     S
C1429  O1750   1.281   .     A
C1429  O1722   1.281   .     A
C1430  N1693   1.430   .     S
C1431  O1751   1.280   .     A
C1431  O1723   1.280   .     A
C1432  O1748   1.281   .     A
C1432  O1724   1.281   .     A
C1433  O1749   1.280   .     A
C1433  O1725   1.280   .     A
C1434  O1755   1.281   .     A
C1434  O1726   1.281   .     A
C1435  O1756   1.280   .     A
C1435  O1727   1.280   .     A
C1436  O1728   1.281   .     A
C1436  O1752   1.281   .     A
C1437  O1729   1.280   .     A
C1437  O1754   1.280   .     A
C1438  O1730   1.281   .     A
C1438  O1741   1.281   .     A
C1439  O1732   1.280   .     A
C1439  O1743   1.280   .     A
C1440  O1733   1.281   .     A
C1440  O1739   1.281   .     A
C1441  C1483   1.416   .     A
C1441  N1694   1.428   .     S
C1442  O1740   1.280   .     A
C1442  O1734   1.280   .     A
C1443  O1735   1.281   .     A
C1443  O1746   1.281   .     A
C1444  O1747   1.280   .     A
C1444  O1736   1.280   .     A
C1445  O1744   1.281   .     A
C1445  O1737   1.281   .     A
C1446  O1738   1.280   .     A
C1446  O1745   1.280   .     A
C1447  N1653   1.437   .     S
C1447  C1464   1.403   .     A
C1448  C1462   1.403   .     A
C1448  N1654   1.436   .     S
C1449  C1461   1.403   .     A
C1449  N1655   1.437   .     S
C1450  N1657   1.435   .     S
C1450  C1460   1.403   .     A
C1451  N1658   1.437   .     S
C1451  C1459   1.403   .     A
C1452  N1695   1.428   .     S
C1452  C1484   1.416   .     A
C1453  C1458   1.403   .     A
C1453  N1659   1.436   .     S
C1454  N1660   1.437   .     S
C1454  C1457   1.403   .     A
C1455  C1456   1.403   .     A
C1455  N1661   1.435   .     S
C1456  N1662   1.437   .     S
C1457  N1663   1.435   .     S
C1458  N1664   1.437   .     S
C1459  N1665   1.436   .     S
C1460  N1666   1.437   .     S
C1461  N1668   1.435   .     S
C1462  N1669   1.437   .     S
C1463  N1696   1.430   .     S
C1464  N1670   1.436   .     S
C1465  N1671   1.437   .     S
C1465  C1481   1.403   .     A
C1466  N1672   1.436   .     S
C1466  C1480   1.403   .     A
C1467  N1673   1.437   .     S
C1467  C1479   1.403   .     A
C1468  C1478   1.403   .     A
C1468  N1674   1.435   .     S
C1469  N1675   1.437   .     S
C1469  C1477   1.403   .     A
C1470  C1476   1.403   .     A
C1470  N1676   1.436   .     S
C1471  N1677   1.437   .     S
C1471  C1475   1.403   .     A
C1472  C1473   1.403   .     A
C1472  N1679   1.435   .     S
C1473  N1680   1.437   .     S
C1474  N1697   1.430   .     S
C1475  N1681   1.435   .     S
C1476  N1682   1.437   .     S
C1477  N1683   1.436   .     S
C1478  N1684   1.437   .     S
C1479  N1685   1.435   .     S
C1480  N1686   1.437   .     S
C1481  N1687   1.436   .     S
C1482  C986    1.416   1_655 S
C1482  C922    1.424   1_655 S
H1485  N1645   1.045   .     S
H1486  N1689   1.045   .     S
H1488  N1690   1.031   .     S
H1492  N1691   1.031   .     S
H1496  N1692   1.031   .     S
H1497  N1700   1.045   .     S
H1501  N1693   1.031   .     S
H1505  N1694   1.031   .     S
H1508  N1700   1.045   .     S
H1510  N1695   1.031   .     S
H1514  N1696   1.031   .     S
H1518  N1697   1.031   .     S
H1519  N1706   1.045   .     S
H1523  N1698   1.031   .     S
H1527  N1699   1.031   .     S
H1530  N1706   1.045   .     S
H1532  N1701   1.031   .     S
H1536  N1702   1.031   .     S
H1540  N1703   1.031   .     S
H1541  N1707   1.045   .     S
H1545  N1704   1.031   .     S
H1549  N1705   1.031   .     S
H1552  N1707   1.045   .     S
H1554  N1708   1.045   .     S
H1555  N1708   1.045   .     S
H1556  N1646   1.045   .     S
H1557  N1645   1.045   .     S
H1558  N1646   1.045   .     S
H1559  N1647   1.045   .     S
H1560  N1647   1.045   .     S
H1561  N1648   1.045   .     S
H1562  N1648   1.045   .     S
H1563  N1649   1.045   .     S
H1564  N1649   1.045   .     S
H1565  N1650   1.045   .     S
H1566  N1650   1.045   .     S
H1567  N1651   1.045   .     S
H1568  N1656   1.045   .     S
H1569  N1651   1.045   .     S
H1570  N1652   1.045   .     S
H1571  N1652   1.045   .     S
H1572  N1653   1.045   .     S
H1573  N1653   1.045   .     S
H1574  N1654   1.045   .     S
H1575  N1654   1.045   .     S
H1576  N1655   1.045   .     S
H1577  N1655   1.045   .     S
H1578  N1657   1.045   .     S
H1579  N1656   1.045   .     S
H1580  N1657   1.045   .     S
H1581  N1658   1.045   .     S
H1582  N1658   1.045   .     S
H1583  N1659   1.045   .     S
H1584  N1659   1.045   .     S
H1585  N1660   1.045   .     S
H1586  N1660   1.045   .     S
H1587  N1661   1.045   .     S
H1588  N1661   1.045   .     S
H1589  N1662   1.045   .     S
H1590  N1667   1.045   .     S
H1591  N1662   1.045   .     S
H1592  N1663   1.045   .     S
H1593  N1663   1.045   .     S
H1594  N1664   1.045   .     S
H1595  N1664   1.045   .     S
H1596  N1665   1.045   .     S
H1597  N1665   1.045   .     S
H1598  N1666   1.045   .     S
H1599  N1666   1.045   .     S
H1600  N1668   1.045   .     S
H1601  N1667   1.045   .     S
H1602  N1668   1.045   .     S
H1603  N1669   1.045   .     S
H1604  N1669   1.045   .     S
H1605  N1670   1.045   .     S
H1606  N1670   1.045   .     S
H1607  N1671   1.045   .     S
H1608  N1671   1.045   .     S
H1609  N1672   1.045   .     S
H1610  N1672   1.045   .     S
H1611  N1673   1.045   .     S
H1612  N1678   1.045   .     S
H1613  N1673   1.045   .     S
H1614  N1674   1.045   .     S
H1615  N1674   1.045   .     S
H1616  N1675   1.045   .     S
H1617  N1675   1.045   .     S
H1618  N1676   1.045   .     S
H1619  N1676   1.045   .     S
H1620  N1677   1.045   .     S
H1621  N1677   1.045   .     S
H1622  N1679   1.045   .     S
H1623  N1678   1.045   .     S
H1624  N1679   1.045   .     S
H1625  N1680   1.045   .     S
H1626  N1680   1.045   .     S
H1627  N1681   1.045   .     S
H1628  N1681   1.045   .     S
H1629  N1682   1.045   .     S
H1630  N1682   1.045   .     S
H1631  N1683   1.045   .     S
H1632  N1683   1.045   .     S
H1633  N1684   1.045   .     S
H1634  N1689   1.045   .     S
H1635  N1684   1.045   .     S
H1636  N1685   1.045   .     S
H1637  N1685   1.045   .     S
H1638  N1686   1.045   .     S
H1639  N1686   1.045   .     S
H1640  N1687   1.045   .     S
H1641  N1687   1.045   .     S
H1642  N1688   1.031   .     S
N1688  C931    1.450   1_655 S
N1690  C932    1.446   1_655 S
N1691  C489    1.446   1_565 S
N1692  C491    1.450   1_565 S
O1709  Zn1764  1.948   .     S
O1709  Zn1761  1.948   .     S
O1709  Zn1772  1.948   .     S
O1710  Zn1763  1.948   .     S
O1710  C534    1.276   1_565 S
O1711  Zn1766  1.948   .     S
O1711  C979    1.276   1_655 S
O1712  Zn1765  1.948   .     S
O1713  Zn1775  1.948   .     S
O1714  Zn1774  1.948   .     S
O1715  Zn1769  1.948   .     S
O1716  Zn1761  1.948   .     S
O1717  Zn1771  1.948   .     S
O1718  Zn1770  1.948   .     S
O1719  Zn1773  1.948   .     S
O1720  Zn1767  1.948   .     S
O1720  Zn1769  1.948   .     S
O1720  Zn1773  1.948   .     S
O1721  Zn1772  1.948   .     S
O1722  Zn1764  1.938   .     S
O1723  Zn1763  1.938   .     S
O1724  Zn1766  1.937   .     S
O1725  Zn1765  1.937   .     S
O1726  Zn1768  1.938   .     S
O1727  Zn1767  1.938   .     S
O1728  Zn1762  1.937   .     S
O1729  Zn1776  1.937   .     S
O1730  Zn1763  1.937   .     S
O1731  Zn1762  1.948   .     S
O1731  Zn1770  1.948   .     S
O1731  Zn1774  1.948   .     S
O1732  Zn1764  1.937   .     S
O1733  Zn1776  1.938   .     S
O1734  Zn1762  1.938   .     S
O1735  Zn1767  1.937   .     S
O1736  Zn1768  1.937   .     S
O1737  Zn1765  1.938   .     S
O1738  Zn1766  1.938   .     S
O1739  Zn1327  1.938   1_655 S
O1740  Zn1770  1.938   .     S
O1741  Zn885   1.937   1_565 S
O1742  Zn1775  1.948   .     S
O1742  Zn1765  1.948   .     S
O1742  Zn1771  1.948   .     S
O1743  Zn1772  1.937   .     S
O1744  Zn1775  1.938   .     S
O1745  Zn1330  1.938   1_655 S
O1746  Zn1769  1.937   .     S
O1747  Zn873   1.937   1_565 S
O1748  Zn1326  1.937   1_655 S
O1749  Zn1771  1.937   .     S
O1750  Zn1761  1.938   .     S
O1751  Zn881   1.938   1_565 S
O1752  Zn1774  1.937   .     S
O1753  Zn1768  1.948   .     S
O1753  C533    1.277   1_565 A
O1754  Zn1331  1.937   1_655 S
O1755  Zn884   1.938   1_565 S
O1756  Zn1773  1.938   .     S
O1757  Zn1767  1.948   .     S
O1758  Zn1762  1.948   .     S
O1759  Zn1776  1.948   .     S
O1759  C980    1.277   1_655 S
O1760  Zn1764  1.948   .     S
Zn1763 O832    1.948   1_565 S
Zn1766 O1287   1.948   1_655 S
Zn1768 O821    1.948   1_565 S
Zn1776 O1298   1.948   1_655 S
