data_str_m2_o1_o2_pcu_sym.148
_audit_creation_date              2020-01-03
_audit_creation_method            'Materials Studio'
_symmetry_space_group_name_H-M    'P1'
_symmetry_Int_Tables_number       1
_symmetry_cell_setting            triclinic
loop_
_symmetry_equiv_pos_as_xyz
  x,y,z
_cell_length_a                    32.7941
_cell_length_b                    28.8579
_cell_length_c                    30.5786
_cell_angle_alpha                 90.2231
_cell_angle_beta                  94.0578
_cell_angle_gamma                 90.5822
loop_
_atom_site_label
_atom_site_type_symbol
_atom_site_fract_x
_atom_site_fract_y
_atom_site_fract_z
_atom_site_U_iso_or_equiv
_atom_site_adp_type
_atom_site_occupancy
C1     C     0.08769   0.16646   0.25301   0.00000  Uiso   1.00
C2     C     0.24563   0.16697   0.24703   0.00000  Uiso   1.00
C3     C     0.16903   0.16661   0.16526   0.00000  Uiso   1.00
C4     C     0.16480   0.16670   0.33485   0.00000  Uiso   1.00
C5     C     0.13960   0.02427   0.22252   0.00000  Uiso   1.00
C6     C     0.19294   0.30902   0.27831   0.00000  Uiso   1.00
C7     C     0.19397   0.02501   0.27721   0.00000  Uiso   1.00
C8     C     0.14017   0.30825   0.22190   0.00000  Uiso   1.00
C9     C     0.02023   0.12447   0.25139   0.00000  Uiso   1.00
C10    C     0.31296   0.20959   0.24945   0.00000  Uiso   1.00
C11    C     0.31151   0.12555   0.24127   0.00000  Uiso   1.00
C12    C     0.02189   0.20852   0.25833   0.00000  Uiso   1.00
C13    C     0.18071   0.20863   0.04887   0.00000  Uiso   1.00
C14    C     0.17548   0.12825   0.45327   0.00000  Uiso   1.00
C15    C     0.15568   0.20851   0.45212   0.00000  Uiso   1.00
C16    C     0.16133   0.12774   0.04670   0.00000  Uiso   1.00
C17    C     0.18222   0.20807   0.09466   0.00000  Uiso   1.00
C18    C     0.16993   0.12594   0.40797   0.00000  Uiso   1.00
C19    C     0.15351   0.20802   0.40631   0.00000  Uiso   1.00
C20    C     0.16612   0.12554   0.09201   0.00000  Uiso   1.00
C21    C     0.17267   0.16668   0.11705   0.00000  Uiso   1.00
C22    C     0.16247   0.16684   0.38329   0.00000  Uiso   1.00
C23    C     0.16917   0.16884   0.02448   0.00000  Uiso   1.00
C24    C     0.16755   0.16898   0.47599   0.00000  Uiso   1.00
C25    C     0.29040   0.16764   0.24436   0.00000  Uiso   1.00
C26    C     0.04289   0.16627   0.25573   0.00000  Uiso   1.00
Cu27   Cu    0.16667   0.21355   0.25000   0.00000  Uiso   1.00
Cu28   Cu    0.16667   0.11978   0.25000   0.00000  Uiso   1.00
H29    H     0.18938   0.24001   0.03236   0.00000  Uiso   1.00
H30    H     0.18495   0.09713   0.47067   0.00000  Uiso   1.00
H31    H     0.14721   0.23964   0.46907   0.00000  Uiso   1.00
H32    H     0.15239   0.09632   0.02892   0.00000  Uiso   1.00
N33    N     0.16667   0.28402   0.25000   0.00000  Uiso   1.00
N34    N     0.16667   0.04931   0.25000   0.00000  Uiso   1.00
O35    O     0.10655   0.20625   0.25000   0.00000  Uiso   1.00
O36    O     0.22679   0.12709   0.25000   0.00000  Uiso   1.00
O37    O     0.22679   0.20625   0.25001   0.00000  Uiso   1.00
O38    O     0.10655   0.12709   0.25000   0.00000  Uiso   1.00
O39    O     0.16666   0.20626   0.18573   0.00000  Uiso   1.00
O40    O     0.16667   0.12707   0.31427   0.00000  Uiso   1.00
O41    O     0.16667   0.20626   0.31427   0.00000  Uiso   1.00
O42    O     0.16666   0.12707   0.18573   0.00000  Uiso   1.00
Br43   Br    0.09991   0.05522   0.18358   0.00000  Uiso   1.00
Br44   Br    0.22866   0.27802   0.32136   0.00000  Uiso   1.00
Br45   Br    0.23565   0.05662   0.31415   0.00000  Uiso   1.00
Br46   Br    0.10270   0.27612   0.18058   0.00000  Uiso   1.00
C47    C     0.19743   0.24937   0.11746   0.00000  Uiso   1.00
N48    N     0.20995   0.28224   0.13583   0.00000  Uiso   1.00
C49    C     0.16726   0.07991   0.38941   0.00000  Uiso   1.00
N50    N     0.16427   0.04266   0.37541   0.00000  Uiso   1.00
C51    C     0.13848   0.24925   0.38426   0.00000  Uiso   1.00
N52    N     0.12616   0.28219   0.36664   0.00000  Uiso   1.00
C53    C     0.16928   0.07965   0.11036   0.00000  Uiso   1.00
N54    N     0.17269   0.04256   0.12422   0.00000  Uiso   1.00
C55    C     0.03842   0.08044   0.26324   0.00000  Uiso   1.00
N56    N     0.05281   0.04539   0.27346   0.00000  Uiso   1.00
C57    C     0.29422   0.25423   0.24107   0.00000  Uiso   1.00
N58    N     0.27958   0.28990   0.23384   0.00000  Uiso   1.00
C59    C     0.29127   0.08426   0.22279   0.00000  Uiso   1.00
N60    N     0.27500   0.05175   0.20739   0.00000  Uiso   1.00
C61    C     0.04268   0.25028   0.27487   0.00000  Uiso   1.00
N62    N     0.05945   0.28321   0.28860   0.00000  Uiso   1.00
C63    C     0.42102   0.16646   0.25301   0.00000  Uiso   1.00
C64    C     0.57897   0.16697   0.24703   0.00000  Uiso   1.00
C65    C     0.50237   0.16661   0.16526   0.00000  Uiso   1.00
C66    C     0.49813   0.16670   0.33485   0.00000  Uiso   1.00
C67    C     0.47293   0.02427   0.22252   0.00000  Uiso   1.00
C68    C     0.52627   0.30902   0.27831   0.00000  Uiso   1.00
C69    C     0.52730   0.02501   0.27721   0.00000  Uiso   1.00
C70    C     0.47350   0.30825   0.22190   0.00000  Uiso   1.00
C71    C     0.35357   0.12447   0.25139   0.00000  Uiso   1.00
C72    C     0.64629   0.20959   0.24945   0.00000  Uiso   1.00
C73    C     0.64485   0.12555   0.24127   0.00000  Uiso   1.00
C74    C     0.35522   0.20852   0.25833   0.00000  Uiso   1.00
C75    C     0.51404   0.20863   0.04887   0.00000  Uiso   1.00
C76    C     0.50881   0.12825   0.45327   0.00000  Uiso   1.00
C77    C     0.48902   0.20851   0.45212   0.00000  Uiso   1.00
C78    C     0.49466   0.12774   0.04670   0.00000  Uiso   1.00
C79    C     0.51555   0.20807   0.09466   0.00000  Uiso   1.00
C80    C     0.50327   0.12594   0.40797   0.00000  Uiso   1.00
C81    C     0.48685   0.20802   0.40631   0.00000  Uiso   1.00
C82    C     0.49946   0.12554   0.09201   0.00000  Uiso   1.00
C83    C     0.50600   0.16668   0.11705   0.00000  Uiso   1.00
C84    C     0.49581   0.16684   0.38329   0.00000  Uiso   1.00
C85    C     0.50251   0.16884   0.02448   0.00000  Uiso   1.00
C86    C     0.50089   0.16898   0.47599   0.00000  Uiso   1.00
C87    C     0.62374   0.16764   0.24436   0.00000  Uiso   1.00
C88    C     0.37622   0.16627   0.25573   0.00000  Uiso   1.00
Cu89   Cu    0.50000   0.21355   0.25000   0.00000  Uiso   1.00
Cu90   Cu    0.50000   0.11978   0.25000   0.00000  Uiso   1.00
H91    H     0.52271   0.24001   0.03236   0.00000  Uiso   1.00
H92    H     0.51828   0.09713   0.47067   0.00000  Uiso   1.00
H93    H     0.48055   0.23964   0.46907   0.00000  Uiso   1.00
H94    H     0.48572   0.09632   0.02892   0.00000  Uiso   1.00
N95    N     0.50000   0.28402   0.25000   0.00000  Uiso   1.00
N96    N     0.50000   0.04931   0.25000   0.00000  Uiso   1.00
O97    O     0.43988   0.20625   0.25000   0.00000  Uiso   1.00
O98    O     0.56012   0.12709   0.25000   0.00000  Uiso   1.00
O99    O     0.56012   0.20625   0.25001   0.00000  Uiso   1.00
O100   O     0.43988   0.12709   0.25000   0.00000  Uiso   1.00
O101   O     0.50000   0.20626   0.18573   0.00000  Uiso   1.00
O102   O     0.50000   0.12707   0.31427   0.00000  Uiso   1.00
O103   O     0.50000   0.20626   0.31427   0.00000  Uiso   1.00
O104   O     0.50000   0.12707   0.18573   0.00000  Uiso   1.00
Br105  Br    0.43325   0.05522   0.18358   0.00000  Uiso   1.00
Br106  Br    0.56199   0.27802   0.32136   0.00000  Uiso   1.00
Br107  Br    0.56898   0.05662   0.31415   0.00000  Uiso   1.00
Br108  Br    0.43603   0.27612   0.18058   0.00000  Uiso   1.00
C109   C     0.53077   0.24937   0.11746   0.00000  Uiso   1.00
N110   N     0.54328   0.28224   0.13583   0.00000  Uiso   1.00
C111   C     0.50059   0.07991   0.38941   0.00000  Uiso   1.00
N112   N     0.49760   0.04266   0.37541   0.00000  Uiso   1.00
C113   C     0.47181   0.24925   0.38426   0.00000  Uiso   1.00
N114   N     0.45950   0.28219   0.36664   0.00000  Uiso   1.00
C115   C     0.50261   0.07965   0.11036   0.00000  Uiso   1.00
N116   N     0.50602   0.04256   0.12422   0.00000  Uiso   1.00
C117   C     0.37176   0.08044   0.26324   0.00000  Uiso   1.00
N118   N     0.38615   0.04539   0.27346   0.00000  Uiso   1.00
C119   C     0.62756   0.25423   0.24107   0.00000  Uiso   1.00
N120   N     0.61292   0.28990   0.23384   0.00000  Uiso   1.00
C121   C     0.62460   0.08426   0.22279   0.00000  Uiso   1.00
N122   N     0.60834   0.05175   0.20739   0.00000  Uiso   1.00
C123   C     0.37601   0.25028   0.27487   0.00000  Uiso   1.00
N124   N     0.39278   0.28321   0.28860   0.00000  Uiso   1.00
C125   C     0.75436   0.16646   0.25301   0.00000  Uiso   1.00
C126   C     0.91230   0.16697   0.24703   0.00000  Uiso   1.00
C127   C     0.83570   0.16661   0.16526   0.00000  Uiso   1.00
C128   C     0.83146   0.16670   0.33485   0.00000  Uiso   1.00
C129   C     0.80626   0.02427   0.22252   0.00000  Uiso   1.00
C130   C     0.85960   0.30902   0.27831   0.00000  Uiso   1.00
C131   C     0.86064   0.02501   0.27721   0.00000  Uiso   1.00
C132   C     0.80683   0.30825   0.22190   0.00000  Uiso   1.00
C133   C     0.68690   0.12447   0.25139   0.00000  Uiso   1.00
C134   C     0.97962   0.20959   0.24945   0.00000  Uiso   1.00
C135   C     0.97818   0.12555   0.24127   0.00000  Uiso   1.00
C136   C     0.68856   0.20852   0.25833   0.00000  Uiso   1.00
C137   C     0.84737   0.20863   0.04887   0.00000  Uiso   1.00
C138   C     0.84214   0.12825   0.45327   0.00000  Uiso   1.00
C139   C     0.82235   0.20851   0.45212   0.00000  Uiso   1.00
C140   C     0.82799   0.12774   0.04670   0.00000  Uiso   1.00
C141   C     0.84888   0.20807   0.09466   0.00000  Uiso   1.00
C142   C     0.83660   0.12594   0.40797   0.00000  Uiso   1.00
C143   C     0.82018   0.20802   0.40631   0.00000  Uiso   1.00
C144   C     0.83279   0.12554   0.09201   0.00000  Uiso   1.00
C145   C     0.83933   0.16668   0.11705   0.00000  Uiso   1.00
C146   C     0.82914   0.16684   0.38329   0.00000  Uiso   1.00
C147   C     0.83584   0.16884   0.02448   0.00000  Uiso   1.00
C148   C     0.83422   0.16898   0.47599   0.00000  Uiso   1.00
C149   C     0.95707   0.16764   0.24436   0.00000  Uiso   1.00
C150   C     0.70956   0.16627   0.25573   0.00000  Uiso   1.00
Cu151  Cu    0.83333   0.21355   0.25000   0.00000  Uiso   1.00
Cu152  Cu    0.83333   0.11978   0.25000   0.00000  Uiso   1.00
H153   H     0.85604   0.24001   0.03236   0.00000  Uiso   1.00
H154   H     0.85162   0.09713   0.47067   0.00000  Uiso   1.00
H155   H     0.81388   0.23964   0.46907   0.00000  Uiso   1.00
H156   H     0.81906   0.09632   0.02892   0.00000  Uiso   1.00
N157   N     0.83333   0.28402   0.25000   0.00000  Uiso   1.00
N158   N     0.83333   0.04931   0.25000   0.00000  Uiso   1.00
O159   O     0.77321   0.20625   0.25000   0.00000  Uiso   1.00
O160   O     0.89345   0.12709   0.25000   0.00000  Uiso   1.00
O161   O     0.89345   0.20625   0.25001   0.00000  Uiso   1.00
O162   O     0.77321   0.12709   0.25000   0.00000  Uiso   1.00
O163   O     0.83333   0.20626   0.18573   0.00000  Uiso   1.00
O164   O     0.83334   0.12707   0.31427   0.00000  Uiso   1.00
O165   O     0.83334   0.20626   0.31427   0.00000  Uiso   1.00
O166   O     0.83333   0.12707   0.18573   0.00000  Uiso   1.00
Br167  Br    0.76658   0.05522   0.18358   0.00000  Uiso   1.00
Br168  Br    0.89533   0.27802   0.32136   0.00000  Uiso   1.00
Br169  Br    0.90232   0.05662   0.31415   0.00000  Uiso   1.00
Br170  Br    0.76936   0.27612   0.18058   0.00000  Uiso   1.00
C171   C     0.86410   0.24937   0.11746   0.00000  Uiso   1.00
N172   N     0.87662   0.28224   0.13583   0.00000  Uiso   1.00
C173   C     0.83392   0.07991   0.38941   0.00000  Uiso   1.00
N174   N     0.83094   0.04266   0.37541   0.00000  Uiso   1.00
C175   C     0.80515   0.24925   0.38426   0.00000  Uiso   1.00
N176   N     0.79283   0.28219   0.36664   0.00000  Uiso   1.00
C177   C     0.83594   0.07965   0.11036   0.00000  Uiso   1.00
N178   N     0.83935   0.04256   0.12422   0.00000  Uiso   1.00
C179   C     0.70509   0.08044   0.26324   0.00000  Uiso   1.00
N180   N     0.71948   0.04539   0.27346   0.00000  Uiso   1.00
C181   C     0.96089   0.25423   0.24107   0.00000  Uiso   1.00
N182   N     0.94625   0.28990   0.23384   0.00000  Uiso   1.00
C183   C     0.95794   0.08426   0.22279   0.00000  Uiso   1.00
N184   N     0.94167   0.05175   0.20739   0.00000  Uiso   1.00
C185   C     0.70935   0.25028   0.27487   0.00000  Uiso   1.00
N186   N     0.72612   0.28321   0.28860   0.00000  Uiso   1.00
C187   C     0.08769   0.49980   0.25301   0.00000  Uiso   1.00
C188   C     0.24563   0.50030   0.24703   0.00000  Uiso   1.00
C189   C     0.16903   0.49995   0.16526   0.00000  Uiso   1.00
C190   C     0.16480   0.50003   0.33485   0.00000  Uiso   1.00
C191   C     0.13960   0.35760   0.22252   0.00000  Uiso   1.00
C192   C     0.19294   0.64236   0.27831   0.00000  Uiso   1.00
C193   C     0.19397   0.35834   0.27721   0.00000  Uiso   1.00
C194   C     0.14017   0.64158   0.22190   0.00000  Uiso   1.00
C195   C     0.02023   0.45780   0.25139   0.00000  Uiso   1.00
C196   C     0.31296   0.54292   0.24945   0.00000  Uiso   1.00
C197   C     0.31151   0.45888   0.24127   0.00000  Uiso   1.00
C198   C     0.02189   0.54186   0.25833   0.00000  Uiso   1.00
C199   C     0.18071   0.54196   0.04887   0.00000  Uiso   1.00
C200   C     0.17548   0.46159   0.45327   0.00000  Uiso   1.00
C201   C     0.15568   0.54184   0.45212   0.00000  Uiso   1.00
C202   C     0.16133   0.46107   0.04670   0.00000  Uiso   1.00
C203   C     0.18222   0.54141   0.09466   0.00000  Uiso   1.00
C204   C     0.16993   0.45927   0.40797   0.00000  Uiso   1.00
C205   C     0.15351   0.54135   0.40631   0.00000  Uiso   1.00
C206   C     0.16612   0.45887   0.09201   0.00000  Uiso   1.00
C207   C     0.17267   0.50001   0.11705   0.00000  Uiso   1.00
C208   C     0.16247   0.50018   0.38329   0.00000  Uiso   1.00
C209   C     0.16917   0.50218   0.02448   0.00000  Uiso   1.00
C210   C     0.16755   0.50231   0.47599   0.00000  Uiso   1.00
C211   C     0.29040   0.50097   0.24436   0.00000  Uiso   1.00
C212   C     0.04289   0.49960   0.25573   0.00000  Uiso   1.00
Cu213  Cu    0.16667   0.54689   0.25000   0.00000  Uiso   1.00
Cu214  Cu    0.16667   0.45311   0.25000   0.00000  Uiso   1.00
H215   H     0.18938   0.57335   0.03236   0.00000  Uiso   1.00
H216   H     0.18495   0.43047   0.47067   0.00000  Uiso   1.00
H217   H     0.14721   0.57297   0.46907   0.00000  Uiso   1.00
H218   H     0.15239   0.42965   0.02892   0.00000  Uiso   1.00
N219   N     0.16667   0.61736   0.25000   0.00000  Uiso   1.00
N220   N     0.16667   0.38264   0.25000   0.00000  Uiso   1.00
O221   O     0.10655   0.53958   0.25000   0.00000  Uiso   1.00
O222   O     0.22679   0.46042   0.25000   0.00000  Uiso   1.00
O223   O     0.22679   0.53958   0.25001   0.00000  Uiso   1.00
O224   O     0.10655   0.46042   0.25000   0.00000  Uiso   1.00
O225   O     0.16666   0.53959   0.18573   0.00000  Uiso   1.00
O226   O     0.16667   0.46041   0.31427   0.00000  Uiso   1.00
O227   O     0.16667   0.53959   0.31427   0.00000  Uiso   1.00
O228   O     0.16666   0.46041   0.18573   0.00000  Uiso   1.00
Br229  Br    0.09991   0.38856   0.18358   0.00000  Uiso   1.00
Br230  Br    0.22866   0.61135   0.32136   0.00000  Uiso   1.00
Br231  Br    0.23565   0.38995   0.31415   0.00000  Uiso   1.00
Br232  Br    0.10270   0.60945   0.18058   0.00000  Uiso   1.00
C233   C     0.19743   0.58271   0.11746   0.00000  Uiso   1.00
N234   N     0.20995   0.61557   0.13583   0.00000  Uiso   1.00
C235   C     0.16726   0.41324   0.38941   0.00000  Uiso   1.00
N236   N     0.16427   0.37599   0.37541   0.00000  Uiso   1.00
C237   C     0.13848   0.58259   0.38426   0.00000  Uiso   1.00
N238   N     0.12616   0.61552   0.36664   0.00000  Uiso   1.00
C239   C     0.16928   0.41298   0.11036   0.00000  Uiso   1.00
N240   N     0.17269   0.37589   0.12422   0.00000  Uiso   1.00
C241   C     0.03842   0.41377   0.26324   0.00000  Uiso   1.00
N242   N     0.05281   0.37873   0.27346   0.00000  Uiso   1.00
C243   C     0.29422   0.58756   0.24107   0.00000  Uiso   1.00
N244   N     0.27958   0.62323   0.23384   0.00000  Uiso   1.00
C245   C     0.29127   0.41759   0.22279   0.00000  Uiso   1.00
N246   N     0.27500   0.38508   0.20739   0.00000  Uiso   1.00
C247   C     0.04268   0.58361   0.27487   0.00000  Uiso   1.00
N248   N     0.05945   0.61654   0.28860   0.00000  Uiso   1.00
C249   C     0.42102   0.49980   0.25301   0.00000  Uiso   1.00
C250   C     0.57897   0.50030   0.24703   0.00000  Uiso   1.00
C251   C     0.50237   0.49995   0.16526   0.00000  Uiso   1.00
C252   C     0.49813   0.50003   0.33485   0.00000  Uiso   1.00
C253   C     0.47293   0.35760   0.22252   0.00000  Uiso   1.00
C254   C     0.52627   0.64236   0.27831   0.00000  Uiso   1.00
C255   C     0.52730   0.35834   0.27721   0.00000  Uiso   1.00
C256   C     0.47350   0.64158   0.22190   0.00000  Uiso   1.00
C257   C     0.35357   0.45780   0.25139   0.00000  Uiso   1.00
C258   C     0.64629   0.54292   0.24945   0.00000  Uiso   1.00
C259   C     0.64485   0.45888   0.24127   0.00000  Uiso   1.00
C260   C     0.35522   0.54186   0.25833   0.00000  Uiso   1.00
C261   C     0.51404   0.54196   0.04887   0.00000  Uiso   1.00
C262   C     0.50881   0.46159   0.45327   0.00000  Uiso   1.00
C263   C     0.48902   0.54184   0.45212   0.00000  Uiso   1.00
C264   C     0.49466   0.46107   0.04670   0.00000  Uiso   1.00
C265   C     0.51555   0.54141   0.09466   0.00000  Uiso   1.00
C266   C     0.50327   0.45927   0.40797   0.00000  Uiso   1.00
C267   C     0.48685   0.54135   0.40631   0.00000  Uiso   1.00
C268   C     0.49946   0.45887   0.09201   0.00000  Uiso   1.00
C269   C     0.50600   0.50001   0.11705   0.00000  Uiso   1.00
C270   C     0.49581   0.50018   0.38329   0.00000  Uiso   1.00
C271   C     0.50251   0.50218   0.02448   0.00000  Uiso   1.00
C272   C     0.50089   0.50231   0.47599   0.00000  Uiso   1.00
C273   C     0.62374   0.50097   0.24436   0.00000  Uiso   1.00
C274   C     0.37622   0.49960   0.25573   0.00000  Uiso   1.00
Cu275  Cu    0.50000   0.54689   0.25000   0.00000  Uiso   1.00
Cu276  Cu    0.50000   0.45311   0.25000   0.00000  Uiso   1.00
H277   H     0.52271   0.57335   0.03236   0.00000  Uiso   1.00
H278   H     0.51828   0.43047   0.47067   0.00000  Uiso   1.00
H279   H     0.48055   0.57297   0.46907   0.00000  Uiso   1.00
H280   H     0.48572   0.42965   0.02892   0.00000  Uiso   1.00
N281   N     0.50000   0.61736   0.25000   0.00000  Uiso   1.00
N282   N     0.50000   0.38264   0.25000   0.00000  Uiso   1.00
O283   O     0.43988   0.53958   0.25000   0.00000  Uiso   1.00
O284   O     0.56012   0.46042   0.25000   0.00000  Uiso   1.00
O285   O     0.56012   0.53958   0.25001   0.00000  Uiso   1.00
O286   O     0.43988   0.46042   0.25000   0.00000  Uiso   1.00
O287   O     0.50000   0.53959   0.18573   0.00000  Uiso   1.00
O288   O     0.50000   0.46041   0.31427   0.00000  Uiso   1.00
O289   O     0.50000   0.53959   0.31427   0.00000  Uiso   1.00
O290   O     0.50000   0.46041   0.18573   0.00000  Uiso   1.00
Br291  Br    0.43325   0.38856   0.18358   0.00000  Uiso   1.00
Br292  Br    0.56199   0.61135   0.32136   0.00000  Uiso   1.00
Br293  Br    0.56898   0.38995   0.31415   0.00000  Uiso   1.00
Br294  Br    0.43603   0.60945   0.18058   0.00000  Uiso   1.00
C295   C     0.53077   0.58271   0.11746   0.00000  Uiso   1.00
N296   N     0.54328   0.61557   0.13583   0.00000  Uiso   1.00
C297   C     0.50059   0.41324   0.38941   0.00000  Uiso   1.00
N298   N     0.49760   0.37599   0.37541   0.00000  Uiso   1.00
C299   C     0.47181   0.58259   0.38426   0.00000  Uiso   1.00
N300   N     0.45950   0.61552   0.36664   0.00000  Uiso   1.00
C301   C     0.50261   0.41298   0.11036   0.00000  Uiso   1.00
N302   N     0.50602   0.37589   0.12422   0.00000  Uiso   1.00
C303   C     0.37176   0.41377   0.26324   0.00000  Uiso   1.00
N304   N     0.38615   0.37873   0.27346   0.00000  Uiso   1.00
C305   C     0.62756   0.58756   0.24107   0.00000  Uiso   1.00
N306   N     0.61292   0.62323   0.23384   0.00000  Uiso   1.00
C307   C     0.62460   0.41759   0.22279   0.00000  Uiso   1.00
N308   N     0.60834   0.38508   0.20739   0.00000  Uiso   1.00
C309   C     0.37601   0.58361   0.27487   0.00000  Uiso   1.00
N310   N     0.39278   0.61654   0.28860   0.00000  Uiso   1.00
C311   C     0.75436   0.49980   0.25301   0.00000  Uiso   1.00
C312   C     0.91230   0.50030   0.24703   0.00000  Uiso   1.00
C313   C     0.83570   0.49995   0.16526   0.00000  Uiso   1.00
C314   C     0.83146   0.50003   0.33485   0.00000  Uiso   1.00
C315   C     0.80626   0.35760   0.22252   0.00000  Uiso   1.00
C316   C     0.85960   0.64236   0.27831   0.00000  Uiso   1.00
C317   C     0.86064   0.35834   0.27721   0.00000  Uiso   1.00
C318   C     0.80683   0.64158   0.22190   0.00000  Uiso   1.00
C319   C     0.68690   0.45780   0.25139   0.00000  Uiso   1.00
C320   C     0.97962   0.54292   0.24945   0.00000  Uiso   1.00
C321   C     0.97818   0.45888   0.24127   0.00000  Uiso   1.00
C322   C     0.68856   0.54186   0.25833   0.00000  Uiso   1.00
C323   C     0.84737   0.54196   0.04887   0.00000  Uiso   1.00
C324   C     0.84214   0.46159   0.45327   0.00000  Uiso   1.00
C325   C     0.82235   0.54184   0.45212   0.00000  Uiso   1.00
C326   C     0.82799   0.46107   0.04670   0.00000  Uiso   1.00
C327   C     0.84888   0.54141   0.09466   0.00000  Uiso   1.00
C328   C     0.83660   0.45927   0.40797   0.00000  Uiso   1.00
C329   C     0.82018   0.54135   0.40631   0.00000  Uiso   1.00
C330   C     0.83279   0.45887   0.09201   0.00000  Uiso   1.00
C331   C     0.83933   0.50001   0.11705   0.00000  Uiso   1.00
C332   C     0.82914   0.50018   0.38329   0.00000  Uiso   1.00
C333   C     0.83584   0.50218   0.02448   0.00000  Uiso   1.00
C334   C     0.83422   0.50231   0.47599   0.00000  Uiso   1.00
C335   C     0.95707   0.50097   0.24436   0.00000  Uiso   1.00
C336   C     0.70956   0.49960   0.25573   0.00000  Uiso   1.00
Cu337  Cu    0.83333   0.54689   0.25000   0.00000  Uiso   1.00
Cu338  Cu    0.83333   0.45311   0.25000   0.00000  Uiso   1.00
H339   H     0.85604   0.57335   0.03236   0.00000  Uiso   1.00
H340   H     0.85162   0.43047   0.47067   0.00000  Uiso   1.00
H341   H     0.81388   0.57297   0.46907   0.00000  Uiso   1.00
H342   H     0.81906   0.42965   0.02892   0.00000  Uiso   1.00
N343   N     0.83333   0.61736   0.25000   0.00000  Uiso   1.00
N344   N     0.83333   0.38264   0.25000   0.00000  Uiso   1.00
O345   O     0.77321   0.53958   0.25000   0.00000  Uiso   1.00
O346   O     0.89345   0.46042   0.25000   0.00000  Uiso   1.00
O347   O     0.89345   0.53958   0.25001   0.00000  Uiso   1.00
O348   O     0.77321   0.46042   0.25000   0.00000  Uiso   1.00
O349   O     0.83333   0.53959   0.18573   0.00000  Uiso   1.00
O350   O     0.83334   0.46041   0.31427   0.00000  Uiso   1.00
O351   O     0.83334   0.53959   0.31427   0.00000  Uiso   1.00
O352   O     0.83333   0.46041   0.18573   0.00000  Uiso   1.00
Br353  Br    0.76658   0.38856   0.18358   0.00000  Uiso   1.00
Br354  Br    0.89533   0.61135   0.32136   0.00000  Uiso   1.00
Br355  Br    0.90232   0.38995   0.31415   0.00000  Uiso   1.00
Br356  Br    0.76936   0.60945   0.18058   0.00000  Uiso   1.00
C357   C     0.86410   0.58271   0.11746   0.00000  Uiso   1.00
N358   N     0.87662   0.61557   0.13583   0.00000  Uiso   1.00
C359   C     0.83392   0.41324   0.38941   0.00000  Uiso   1.00
N360   N     0.83094   0.37599   0.37541   0.00000  Uiso   1.00
C361   C     0.80515   0.58259   0.38426   0.00000  Uiso   1.00
N362   N     0.79283   0.61552   0.36664   0.00000  Uiso   1.00
C363   C     0.83594   0.41298   0.11036   0.00000  Uiso   1.00
N364   N     0.83935   0.37589   0.12422   0.00000  Uiso   1.00
C365   C     0.70509   0.41377   0.26324   0.00000  Uiso   1.00
N366   N     0.71948   0.37873   0.27346   0.00000  Uiso   1.00
C367   C     0.96089   0.58756   0.24107   0.00000  Uiso   1.00
N368   N     0.94625   0.62323   0.23384   0.00000  Uiso   1.00
C369   C     0.95794   0.41759   0.22279   0.00000  Uiso   1.00
N370   N     0.94167   0.38508   0.20739   0.00000  Uiso   1.00
C371   C     0.70935   0.58361   0.27487   0.00000  Uiso   1.00
N372   N     0.72612   0.61654   0.28860   0.00000  Uiso   1.00
C373   C     0.08769   0.83313   0.25301   0.00000  Uiso   1.00
C374   C     0.24563   0.83363   0.24703   0.00000  Uiso   1.00
C375   C     0.16903   0.83328   0.16526   0.00000  Uiso   1.00
C376   C     0.16480   0.83336   0.33485   0.00000  Uiso   1.00
C377   C     0.13960   0.69094   0.22252   0.00000  Uiso   1.00
C378   C     0.19294   0.97569   0.27831   0.00000  Uiso   1.00
C379   C     0.19397   0.69168   0.27721   0.00000  Uiso   1.00
C380   C     0.14017   0.97492   0.22190   0.00000  Uiso   1.00
C381   C     0.02023   0.79113   0.25139   0.00000  Uiso   1.00
C382   C     0.31296   0.87626   0.24945   0.00000  Uiso   1.00
C383   C     0.31151   0.79221   0.24127   0.00000  Uiso   1.00
C384   C     0.02189   0.87519   0.25833   0.00000  Uiso   1.00
C385   C     0.18071   0.87529   0.04887   0.00000  Uiso   1.00
C386   C     0.17548   0.79492   0.45327   0.00000  Uiso   1.00
C387   C     0.15568   0.87517   0.45212   0.00000  Uiso   1.00
C388   C     0.16133   0.79441   0.04670   0.00000  Uiso   1.00
C389   C     0.18222   0.87474   0.09466   0.00000  Uiso   1.00
C390   C     0.16993   0.79260   0.40797   0.00000  Uiso   1.00
C391   C     0.15351   0.87469   0.40631   0.00000  Uiso   1.00
C392   C     0.16612   0.79221   0.09201   0.00000  Uiso   1.00
C393   C     0.17267   0.83335   0.11705   0.00000  Uiso   1.00
C394   C     0.16247   0.83351   0.38329   0.00000  Uiso   1.00
C395   C     0.16917   0.83551   0.02448   0.00000  Uiso   1.00
C396   C     0.16755   0.83564   0.47599   0.00000  Uiso   1.00
C397   C     0.29040   0.83430   0.24436   0.00000  Uiso   1.00
C398   C     0.04289   0.83293   0.25573   0.00000  Uiso   1.00
Cu399  Cu    0.16667   0.88022   0.25000   0.00000  Uiso   1.00
Cu400  Cu    0.16667   0.78645   0.25000   0.00000  Uiso   1.00
H401   H     0.18938   0.90668   0.03236   0.00000  Uiso   1.00
H402   H     0.18495   0.76380   0.47067   0.00000  Uiso   1.00
H403   H     0.14721   0.90631   0.46907   0.00000  Uiso   1.00
H404   H     0.15239   0.76298   0.02892   0.00000  Uiso   1.00
N405   N     0.16667   0.95069   0.25000   0.00000  Uiso   1.00
N406   N     0.16667   0.71598   0.25000   0.00000  Uiso   1.00
O407   O     0.10655   0.87291   0.25000   0.00000  Uiso   1.00
O408   O     0.22679   0.79375   0.25000   0.00000  Uiso   1.00
O409   O     0.22679   0.87291   0.25001   0.00000  Uiso   1.00
O410   O     0.10655   0.79375   0.25000   0.00000  Uiso   1.00
O411   O     0.16666   0.87293   0.18573   0.00000  Uiso   1.00
O412   O     0.16667   0.79374   0.31427   0.00000  Uiso   1.00
O413   O     0.16667   0.87293   0.31427   0.00000  Uiso   1.00
O414   O     0.16666   0.79374   0.18573   0.00000  Uiso   1.00
Br415  Br    0.09991   0.72189   0.18358   0.00000  Uiso   1.00
Br416  Br    0.22866   0.94468   0.32136   0.00000  Uiso   1.00
Br417  Br    0.23565   0.72328   0.31415   0.00000  Uiso   1.00
Br418  Br    0.10270   0.94279   0.18058   0.00000  Uiso   1.00
C419   C     0.19743   0.91604   0.11746   0.00000  Uiso   1.00
N420   N     0.20995   0.94891   0.13583   0.00000  Uiso   1.00
C421   C     0.16726   0.74658   0.38941   0.00000  Uiso   1.00
N422   N     0.16427   0.70933   0.37541   0.00000  Uiso   1.00
C423   C     0.13848   0.91592   0.38426   0.00000  Uiso   1.00
N424   N     0.12616   0.94886   0.36664   0.00000  Uiso   1.00
C425   C     0.16928   0.74632   0.11036   0.00000  Uiso   1.00
N426   N     0.17269   0.70922   0.12422   0.00000  Uiso   1.00
C427   C     0.03842   0.74710   0.26324   0.00000  Uiso   1.00
N428   N     0.05281   0.71206   0.27346   0.00000  Uiso   1.00
C429   C     0.29422   0.92089   0.24107   0.00000  Uiso   1.00
N430   N     0.27958   0.95656   0.23384   0.00000  Uiso   1.00
C431   C     0.29127   0.75093   0.22279   0.00000  Uiso   1.00
N432   N     0.27500   0.71842   0.20739   0.00000  Uiso   1.00
C433   C     0.04268   0.91694   0.27487   0.00000  Uiso   1.00
N434   N     0.05945   0.94987   0.28860   0.00000  Uiso   1.00
C435   C     0.42102   0.83313   0.25301   0.00000  Uiso   1.00
C436   C     0.57897   0.83363   0.24703   0.00000  Uiso   1.00
C437   C     0.50237   0.83328   0.16526   0.00000  Uiso   1.00
C438   C     0.49813   0.83336   0.33485   0.00000  Uiso   1.00
C439   C     0.47293   0.69094   0.22252   0.00000  Uiso   1.00
C440   C     0.52627   0.97569   0.27831   0.00000  Uiso   1.00
C441   C     0.52730   0.69168   0.27721   0.00000  Uiso   1.00
C442   C     0.47350   0.97492   0.22190   0.00000  Uiso   1.00
C443   C     0.35357   0.79113   0.25139   0.00000  Uiso   1.00
C444   C     0.64629   0.87626   0.24945   0.00000  Uiso   1.00
C445   C     0.64485   0.79221   0.24127   0.00000  Uiso   1.00
C446   C     0.35522   0.87519   0.25833   0.00000  Uiso   1.00
C447   C     0.51404   0.87529   0.04887   0.00000  Uiso   1.00
C448   C     0.50881   0.79492   0.45327   0.00000  Uiso   1.00
C449   C     0.48902   0.87517   0.45212   0.00000  Uiso   1.00
C450   C     0.49466   0.79441   0.04670   0.00000  Uiso   1.00
C451   C     0.51555   0.87474   0.09466   0.00000  Uiso   1.00
C452   C     0.50327   0.79260   0.40797   0.00000  Uiso   1.00
C453   C     0.48685   0.87469   0.40631   0.00000  Uiso   1.00
C454   C     0.49946   0.79221   0.09201   0.00000  Uiso   1.00
C455   C     0.50600   0.83335   0.11705   0.00000  Uiso   1.00
C456   C     0.49581   0.83351   0.38329   0.00000  Uiso   1.00
C457   C     0.50251   0.83551   0.02448   0.00000  Uiso   1.00
C458   C     0.50089   0.83564   0.47599   0.00000  Uiso   1.00
C459   C     0.62374   0.83430   0.24436   0.00000  Uiso   1.00
C460   C     0.37622   0.83293   0.25573   0.00000  Uiso   1.00
Cu461  Cu    0.50000   0.88022   0.25000   0.00000  Uiso   1.00
Cu462  Cu    0.50000   0.78645   0.25000   0.00000  Uiso   1.00
H463   H     0.52271   0.90668   0.03236   0.00000  Uiso   1.00
H464   H     0.51828   0.76380   0.47067   0.00000  Uiso   1.00
H465   H     0.48055   0.90631   0.46907   0.00000  Uiso   1.00
H466   H     0.48572   0.76298   0.02892   0.00000  Uiso   1.00
N467   N     0.50000   0.95069   0.25000   0.00000  Uiso   1.00
N468   N     0.50000   0.71598   0.25000   0.00000  Uiso   1.00
O469   O     0.43988   0.87291   0.25000   0.00000  Uiso   1.00
O470   O     0.56012   0.79375   0.25000   0.00000  Uiso   1.00
O471   O     0.56012   0.87291   0.25001   0.00000  Uiso   1.00
O472   O     0.43988   0.79375   0.25000   0.00000  Uiso   1.00
O473   O     0.50000   0.87293   0.18573   0.00000  Uiso   1.00
O474   O     0.50000   0.79374   0.31427   0.00000  Uiso   1.00
O475   O     0.50000   0.87293   0.31427   0.00000  Uiso   1.00
O476   O     0.50000   0.79374   0.18573   0.00000  Uiso   1.00
Br477  Br    0.43325   0.72189   0.18358   0.00000  Uiso   1.00
Br478  Br    0.56199   0.94468   0.32136   0.00000  Uiso   1.00
Br479  Br    0.56898   0.72328   0.31415   0.00000  Uiso   1.00
Br480  Br    0.43603   0.94279   0.18058   0.00000  Uiso   1.00
C481   C     0.53077   0.91604   0.11746   0.00000  Uiso   1.00
N482   N     0.54328   0.94891   0.13583   0.00000  Uiso   1.00
C483   C     0.50059   0.74658   0.38941   0.00000  Uiso   1.00
N484   N     0.49760   0.70933   0.37541   0.00000  Uiso   1.00
C485   C     0.47181   0.91592   0.38426   0.00000  Uiso   1.00
N486   N     0.45950   0.94886   0.36664   0.00000  Uiso   1.00
C487   C     0.50261   0.74632   0.11036   0.00000  Uiso   1.00
N488   N     0.50602   0.70922   0.12422   0.00000  Uiso   1.00
C489   C     0.37176   0.74710   0.26324   0.00000  Uiso   1.00
N490   N     0.38615   0.71206   0.27346   0.00000  Uiso   1.00
C491   C     0.62756   0.92089   0.24107   0.00000  Uiso   1.00
N492   N     0.61292   0.95656   0.23384   0.00000  Uiso   1.00
C493   C     0.62460   0.75093   0.22279   0.00000  Uiso   1.00
N494   N     0.60834   0.71842   0.20739   0.00000  Uiso   1.00
C495   C     0.37601   0.91694   0.27487   0.00000  Uiso   1.00
N496   N     0.39278   0.94987   0.28860   0.00000  Uiso   1.00
C497   C     0.75436   0.83313   0.25301   0.00000  Uiso   1.00
C498   C     0.91230   0.83363   0.24703   0.00000  Uiso   1.00
C499   C     0.83570   0.83328   0.16526   0.00000  Uiso   1.00
C500   C     0.83146   0.83336   0.33485   0.00000  Uiso   1.00
C501   C     0.80626   0.69094   0.22252   0.00000  Uiso   1.00
C502   C     0.85960   0.97569   0.27831   0.00000  Uiso   1.00
C503   C     0.86064   0.69168   0.27721   0.00000  Uiso   1.00
C504   C     0.80683   0.97492   0.22190   0.00000  Uiso   1.00
C505   C     0.68690   0.79113   0.25139   0.00000  Uiso   1.00
C506   C     0.97962   0.87626   0.24945   0.00000  Uiso   1.00
C507   C     0.97818   0.79221   0.24127   0.00000  Uiso   1.00
C508   C     0.68856   0.87519   0.25833   0.00000  Uiso   1.00
C509   C     0.84737   0.87529   0.04887   0.00000  Uiso   1.00
C510   C     0.84214   0.79492   0.45327   0.00000  Uiso   1.00
C511   C     0.82235   0.87517   0.45212   0.00000  Uiso   1.00
C512   C     0.82799   0.79441   0.04670   0.00000  Uiso   1.00
C513   C     0.84888   0.87474   0.09466   0.00000  Uiso   1.00
C514   C     0.83660   0.79260   0.40797   0.00000  Uiso   1.00
C515   C     0.82018   0.87469   0.40631   0.00000  Uiso   1.00
C516   C     0.83279   0.79221   0.09201   0.00000  Uiso   1.00
C517   C     0.83933   0.83335   0.11705   0.00000  Uiso   1.00
C518   C     0.82914   0.83351   0.38329   0.00000  Uiso   1.00
C519   C     0.83584   0.83551   0.02448   0.00000  Uiso   1.00
C520   C     0.83422   0.83564   0.47599   0.00000  Uiso   1.00
C521   C     0.95707   0.83430   0.24436   0.00000  Uiso   1.00
C522   C     0.70956   0.83293   0.25573   0.00000  Uiso   1.00
Cu523  Cu    0.83333   0.88022   0.25000   0.00000  Uiso   1.00
Cu524  Cu    0.83333   0.78645   0.25000   0.00000  Uiso   1.00
H525   H     0.85604   0.90668   0.03236   0.00000  Uiso   1.00
H526   H     0.85162   0.76380   0.47067   0.00000  Uiso   1.00
H527   H     0.81388   0.90631   0.46907   0.00000  Uiso   1.00
H528   H     0.81906   0.76298   0.02892   0.00000  Uiso   1.00
N529   N     0.83333   0.95069   0.25000   0.00000  Uiso   1.00
N530   N     0.83333   0.71598   0.25000   0.00000  Uiso   1.00
O531   O     0.77321   0.87291   0.25000   0.00000  Uiso   1.00
O532   O     0.89345   0.79375   0.25000   0.00000  Uiso   1.00
O533   O     0.89345   0.87291   0.25001   0.00000  Uiso   1.00
O534   O     0.77321   0.79375   0.25000   0.00000  Uiso   1.00
O535   O     0.83333   0.87293   0.18573   0.00000  Uiso   1.00
O536   O     0.83334   0.79374   0.31427   0.00000  Uiso   1.00
O537   O     0.83334   0.87293   0.31427   0.00000  Uiso   1.00
O538   O     0.83333   0.79374   0.18573   0.00000  Uiso   1.00
Br539  Br    0.76658   0.72189   0.18358   0.00000  Uiso   1.00
Br540  Br    0.89533   0.94468   0.32136   0.00000  Uiso   1.00
Br541  Br    0.90232   0.72328   0.31415   0.00000  Uiso   1.00
Br542  Br    0.76936   0.94279   0.18058   0.00000  Uiso   1.00
C543   C     0.86410   0.91604   0.11746   0.00000  Uiso   1.00
N544   N     0.87662   0.94891   0.13583   0.00000  Uiso   1.00
C545   C     0.83392   0.74658   0.38941   0.00000  Uiso   1.00
N546   N     0.83094   0.70933   0.37541   0.00000  Uiso   1.00
C547   C     0.80515   0.91592   0.38426   0.00000  Uiso   1.00
N548   N     0.79283   0.94886   0.36664   0.00000  Uiso   1.00
C549   C     0.83594   0.74632   0.11036   0.00000  Uiso   1.00
N550   N     0.83935   0.70922   0.12422   0.00000  Uiso   1.00
C551   C     0.70509   0.74710   0.26324   0.00000  Uiso   1.00
N552   N     0.71948   0.71206   0.27346   0.00000  Uiso   1.00
C553   C     0.96089   0.92089   0.24107   0.00000  Uiso   1.00
N554   N     0.94625   0.95656   0.23384   0.00000  Uiso   1.00
C555   C     0.95794   0.75093   0.22279   0.00000  Uiso   1.00
N556   N     0.94167   0.71842   0.20739   0.00000  Uiso   1.00
C557   C     0.70935   0.91694   0.27487   0.00000  Uiso   1.00
N558   N     0.72612   0.94987   0.28860   0.00000  Uiso   1.00
C559   C     0.08769   0.16646   0.75301   0.00000  Uiso   1.00
C560   C     0.24563   0.16697   0.74703   0.00000  Uiso   1.00
C561   C     0.16903   0.16661   0.66526   0.00000  Uiso   1.00
C562   C     0.16480   0.16670   0.83485   0.00000  Uiso   1.00
C563   C     0.13960   0.02427   0.72252   0.00000  Uiso   1.00
C564   C     0.19294   0.30902   0.77831   0.00000  Uiso   1.00
C565   C     0.19397   0.02501   0.77721   0.00000  Uiso   1.00
C566   C     0.14017   0.30825   0.72190   0.00000  Uiso   1.00
C567   C     0.02023   0.12447   0.75139   0.00000  Uiso   1.00
C568   C     0.31296   0.20959   0.74945   0.00000  Uiso   1.00
C569   C     0.31151   0.12555   0.74127   0.00000  Uiso   1.00
C570   C     0.02189   0.20852   0.75833   0.00000  Uiso   1.00
C571   C     0.18071   0.20863   0.54887   0.00000  Uiso   1.00
C572   C     0.17548   0.12825   0.95327   0.00000  Uiso   1.00
C573   C     0.15568   0.20851   0.95212   0.00000  Uiso   1.00
C574   C     0.16133   0.12774   0.54670   0.00000  Uiso   1.00
C575   C     0.18222   0.20807   0.59466   0.00000  Uiso   1.00
C576   C     0.16993   0.12594   0.90797   0.00000  Uiso   1.00
C577   C     0.15351   0.20802   0.90631   0.00000  Uiso   1.00
C578   C     0.16612   0.12554   0.59201   0.00000  Uiso   1.00
C579   C     0.17267   0.16668   0.61705   0.00000  Uiso   1.00
C580   C     0.16247   0.16684   0.88329   0.00000  Uiso   1.00
C581   C     0.16917   0.16884   0.52448   0.00000  Uiso   1.00
C582   C     0.16755   0.16898   0.97599   0.00000  Uiso   1.00
C583   C     0.29040   0.16764   0.74436   0.00000  Uiso   1.00
C584   C     0.04289   0.16627   0.75573   0.00000  Uiso   1.00
Cu585  Cu    0.16667   0.21355   0.75000   0.00000  Uiso   1.00
Cu586  Cu    0.16667   0.11978   0.75000   0.00000  Uiso   1.00
H587   H     0.18938   0.24001   0.53236   0.00000  Uiso   1.00
H588   H     0.18495   0.09713   0.97067   0.00000  Uiso   1.00
H589   H     0.14721   0.23964   0.96907   0.00000  Uiso   1.00
H590   H     0.15239   0.09632   0.52892   0.00000  Uiso   1.00
N591   N     0.16667   0.28402   0.75000   0.00000  Uiso   1.00
N592   N     0.16667   0.04931   0.75000   0.00000  Uiso   1.00
O593   O     0.10655   0.20625   0.75000   0.00000  Uiso   1.00
O594   O     0.22679   0.12709   0.75000   0.00000  Uiso   1.00
O595   O     0.22679   0.20625   0.75001   0.00000  Uiso   1.00
O596   O     0.10655   0.12709   0.75000   0.00000  Uiso   1.00
O597   O     0.16666   0.20626   0.68573   0.00000  Uiso   1.00
O598   O     0.16667   0.12707   0.81427   0.00000  Uiso   1.00
O599   O     0.16667   0.20626   0.81427   0.00000  Uiso   1.00
O600   O     0.16666   0.12707   0.68573   0.00000  Uiso   1.00
Br601  Br    0.09991   0.05522   0.68358   0.00000  Uiso   1.00
Br602  Br    0.22866   0.27802   0.82136   0.00000  Uiso   1.00
Br603  Br    0.23565   0.05662   0.81415   0.00000  Uiso   1.00
Br604  Br    0.10270   0.27612   0.68058   0.00000  Uiso   1.00
C605   C     0.19743   0.24937   0.61746   0.00000  Uiso   1.00
N606   N     0.20995   0.28224   0.63583   0.00000  Uiso   1.00
C607   C     0.16726   0.07991   0.88941   0.00000  Uiso   1.00
N608   N     0.16427   0.04266   0.87541   0.00000  Uiso   1.00
C609   C     0.13848   0.24925   0.88426   0.00000  Uiso   1.00
N610   N     0.12616   0.28219   0.86664   0.00000  Uiso   1.00
C611   C     0.16928   0.07965   0.61036   0.00000  Uiso   1.00
N612   N     0.17269   0.04256   0.62422   0.00000  Uiso   1.00
C613   C     0.03842   0.08044   0.76324   0.00000  Uiso   1.00
N614   N     0.05281   0.04539   0.77346   0.00000  Uiso   1.00
C615   C     0.29422   0.25423   0.74107   0.00000  Uiso   1.00
N616   N     0.27958   0.28990   0.73384   0.00000  Uiso   1.00
C617   C     0.29127   0.08426   0.72279   0.00000  Uiso   1.00
N618   N     0.27500   0.05175   0.70739   0.00000  Uiso   1.00
C619   C     0.04268   0.25028   0.77487   0.00000  Uiso   1.00
N620   N     0.05945   0.28321   0.78860   0.00000  Uiso   1.00
C621   C     0.42102   0.16646   0.75301   0.00000  Uiso   1.00
C622   C     0.57897   0.16697   0.74703   0.00000  Uiso   1.00
C623   C     0.50237   0.16661   0.66526   0.00000  Uiso   1.00
C624   C     0.49813   0.16670   0.83485   0.00000  Uiso   1.00
C625   C     0.47293   0.02427   0.72252   0.00000  Uiso   1.00
C626   C     0.52627   0.30902   0.77831   0.00000  Uiso   1.00
C627   C     0.52730   0.02501   0.77721   0.00000  Uiso   1.00
C628   C     0.47350   0.30825   0.72190   0.00000  Uiso   1.00
C629   C     0.35357   0.12447   0.75139   0.00000  Uiso   1.00
C630   C     0.64629   0.20959   0.74945   0.00000  Uiso   1.00
C631   C     0.64485   0.12555   0.74127   0.00000  Uiso   1.00
C632   C     0.35522   0.20852   0.75833   0.00000  Uiso   1.00
C633   C     0.51404   0.20863   0.54887   0.00000  Uiso   1.00
C634   C     0.50881   0.12825   0.95327   0.00000  Uiso   1.00
C635   C     0.48902   0.20851   0.95212   0.00000  Uiso   1.00
C636   C     0.49466   0.12774   0.54670   0.00000  Uiso   1.00
C637   C     0.51555   0.20807   0.59466   0.00000  Uiso   1.00
C638   C     0.50327   0.12594   0.90797   0.00000  Uiso   1.00
C639   C     0.48685   0.20802   0.90631   0.00000  Uiso   1.00
C640   C     0.49946   0.12554   0.59201   0.00000  Uiso   1.00
C641   C     0.50600   0.16668   0.61705   0.00000  Uiso   1.00
C642   C     0.49581   0.16684   0.88329   0.00000  Uiso   1.00
C643   C     0.50251   0.16884   0.52448   0.00000  Uiso   1.00
C644   C     0.50089   0.16898   0.97599   0.00000  Uiso   1.00
C645   C     0.62374   0.16764   0.74436   0.00000  Uiso   1.00
C646   C     0.37622   0.16627   0.75573   0.00000  Uiso   1.00
Cu647  Cu    0.50000   0.21355   0.75000   0.00000  Uiso   1.00
Cu648  Cu    0.50000   0.11978   0.75000   0.00000  Uiso   1.00
H649   H     0.52271   0.24001   0.53236   0.00000  Uiso   1.00
H650   H     0.51828   0.09713   0.97067   0.00000  Uiso   1.00
H651   H     0.48055   0.23964   0.96907   0.00000  Uiso   1.00
H652   H     0.48572   0.09632   0.52892   0.00000  Uiso   1.00
N653   N     0.50000   0.28402   0.75000   0.00000  Uiso   1.00
N654   N     0.50000   0.04931   0.75000   0.00000  Uiso   1.00
O655   O     0.43988   0.20625   0.75000   0.00000  Uiso   1.00
O656   O     0.56012   0.12709   0.75000   0.00000  Uiso   1.00
O657   O     0.56012   0.20625   0.75001   0.00000  Uiso   1.00
O658   O     0.43988   0.12709   0.75000   0.00000  Uiso   1.00
O659   O     0.50000   0.20626   0.68573   0.00000  Uiso   1.00
O660   O     0.50000   0.12707   0.81427   0.00000  Uiso   1.00
O661   O     0.50000   0.20626   0.81427   0.00000  Uiso   1.00
O662   O     0.50000   0.12707   0.68573   0.00000  Uiso   1.00
Br663  Br    0.43325   0.05522   0.68358   0.00000  Uiso   1.00
Br664  Br    0.56199   0.27802   0.82136   0.00000  Uiso   1.00
Br665  Br    0.56898   0.05662   0.81415   0.00000  Uiso   1.00
Br666  Br    0.43603   0.27612   0.68058   0.00000  Uiso   1.00
C667   C     0.53077   0.24937   0.61746   0.00000  Uiso   1.00
N668   N     0.54328   0.28224   0.63583   0.00000  Uiso   1.00
C669   C     0.50059   0.07991   0.88941   0.00000  Uiso   1.00
N670   N     0.49760   0.04266   0.87541   0.00000  Uiso   1.00
C671   C     0.47181   0.24925   0.88426   0.00000  Uiso   1.00
N672   N     0.45950   0.28219   0.86664   0.00000  Uiso   1.00
C673   C     0.50261   0.07965   0.61036   0.00000  Uiso   1.00
N674   N     0.50602   0.04256   0.62422   0.00000  Uiso   1.00
C675   C     0.37176   0.08044   0.76324   0.00000  Uiso   1.00
N676   N     0.38615   0.04539   0.77346   0.00000  Uiso   1.00
C677   C     0.62756   0.25423   0.74107   0.00000  Uiso   1.00
N678   N     0.61292   0.28990   0.73384   0.00000  Uiso   1.00
C679   C     0.62460   0.08426   0.72279   0.00000  Uiso   1.00
N680   N     0.60834   0.05175   0.70739   0.00000  Uiso   1.00
C681   C     0.37601   0.25028   0.77487   0.00000  Uiso   1.00
N682   N     0.39278   0.28321   0.78860   0.00000  Uiso   1.00
C683   C     0.75436   0.16646   0.75301   0.00000  Uiso   1.00
C684   C     0.91230   0.16697   0.74703   0.00000  Uiso   1.00
C685   C     0.83570   0.16661   0.66526   0.00000  Uiso   1.00
C686   C     0.83146   0.16670   0.83485   0.00000  Uiso   1.00
C687   C     0.80626   0.02427   0.72252   0.00000  Uiso   1.00
C688   C     0.85960   0.30902   0.77831   0.00000  Uiso   1.00
C689   C     0.86064   0.02501   0.77721   0.00000  Uiso   1.00
C690   C     0.80683   0.30825   0.72190   0.00000  Uiso   1.00
C691   C     0.68690   0.12447   0.75139   0.00000  Uiso   1.00
C692   C     0.97962   0.20959   0.74945   0.00000  Uiso   1.00
C693   C     0.97818   0.12555   0.74127   0.00000  Uiso   1.00
C694   C     0.68856   0.20852   0.75833   0.00000  Uiso   1.00
C695   C     0.84737   0.20863   0.54887   0.00000  Uiso   1.00
C696   C     0.84214   0.12825   0.95327   0.00000  Uiso   1.00
C697   C     0.82235   0.20851   0.95212   0.00000  Uiso   1.00
C698   C     0.82799   0.12774   0.54670   0.00000  Uiso   1.00
C699   C     0.84888   0.20807   0.59466   0.00000  Uiso   1.00
C700   C     0.83660   0.12594   0.90797   0.00000  Uiso   1.00
C701   C     0.82018   0.20802   0.90631   0.00000  Uiso   1.00
C702   C     0.83279   0.12554   0.59201   0.00000  Uiso   1.00
C703   C     0.83933   0.16668   0.61705   0.00000  Uiso   1.00
C704   C     0.82914   0.16684   0.88329   0.00000  Uiso   1.00
C705   C     0.83584   0.16884   0.52448   0.00000  Uiso   1.00
C706   C     0.83422   0.16898   0.97599   0.00000  Uiso   1.00
C707   C     0.95707   0.16764   0.74436   0.00000  Uiso   1.00
C708   C     0.70956   0.16627   0.75573   0.00000  Uiso   1.00
Cu709  Cu    0.83333   0.21355   0.75000   0.00000  Uiso   1.00
Cu710  Cu    0.83333   0.11978   0.75000   0.00000  Uiso   1.00
H711   H     0.85604   0.24001   0.53236   0.00000  Uiso   1.00
H712   H     0.85162   0.09713   0.97067   0.00000  Uiso   1.00
H713   H     0.81388   0.23964   0.96907   0.00000  Uiso   1.00
H714   H     0.81906   0.09632   0.52892   0.00000  Uiso   1.00
N715   N     0.83333   0.28402   0.75000   0.00000  Uiso   1.00
N716   N     0.83333   0.04931   0.75000   0.00000  Uiso   1.00
O717   O     0.77321   0.20625   0.75000   0.00000  Uiso   1.00
O718   O     0.89345   0.12709   0.75000   0.00000  Uiso   1.00
O719   O     0.89345   0.20625   0.75001   0.00000  Uiso   1.00
O720   O     0.77321   0.12709   0.75000   0.00000  Uiso   1.00
O721   O     0.83333   0.20626   0.68573   0.00000  Uiso   1.00
O722   O     0.83334   0.12707   0.81427   0.00000  Uiso   1.00
O723   O     0.83334   0.20626   0.81427   0.00000  Uiso   1.00
O724   O     0.83333   0.12707   0.68573   0.00000  Uiso   1.00
Br725  Br    0.76658   0.05522   0.68358   0.00000  Uiso   1.00
Br726  Br    0.89533   0.27802   0.82136   0.00000  Uiso   1.00
Br727  Br    0.90232   0.05662   0.81415   0.00000  Uiso   1.00
Br728  Br    0.76936   0.27612   0.68058   0.00000  Uiso   1.00
C729   C     0.86410   0.24937   0.61746   0.00000  Uiso   1.00
N730   N     0.87662   0.28224   0.63583   0.00000  Uiso   1.00
C731   C     0.83392   0.07991   0.88941   0.00000  Uiso   1.00
N732   N     0.83094   0.04266   0.87541   0.00000  Uiso   1.00
C733   C     0.80515   0.24925   0.88426   0.00000  Uiso   1.00
N734   N     0.79283   0.28219   0.86664   0.00000  Uiso   1.00
C735   C     0.83594   0.07965   0.61036   0.00000  Uiso   1.00
N736   N     0.83935   0.04256   0.62422   0.00000  Uiso   1.00
C737   C     0.70509   0.08044   0.76324   0.00000  Uiso   1.00
N738   N     0.71948   0.04539   0.77346   0.00000  Uiso   1.00
C739   C     0.96089   0.25423   0.74107   0.00000  Uiso   1.00
N740   N     0.94625   0.28990   0.73384   0.00000  Uiso   1.00
C741   C     0.95794   0.08426   0.72279   0.00000  Uiso   1.00
N742   N     0.94167   0.05175   0.70739   0.00000  Uiso   1.00
C743   C     0.70935   0.25028   0.77487   0.00000  Uiso   1.00
N744   N     0.72612   0.28321   0.78860   0.00000  Uiso   1.00
C745   C     0.08769   0.49980   0.75301   0.00000  Uiso   1.00
C746   C     0.24563   0.50030   0.74703   0.00000  Uiso   1.00
C747   C     0.16903   0.49995   0.66526   0.00000  Uiso   1.00
C748   C     0.16480   0.50003   0.83485   0.00000  Uiso   1.00
C749   C     0.13960   0.35760   0.72252   0.00000  Uiso   1.00
C750   C     0.19294   0.64236   0.77831   0.00000  Uiso   1.00
C751   C     0.19397   0.35834   0.77721   0.00000  Uiso   1.00
C752   C     0.14017   0.64158   0.72190   0.00000  Uiso   1.00
C753   C     0.02023   0.45780   0.75139   0.00000  Uiso   1.00
C754   C     0.31296   0.54292   0.74945   0.00000  Uiso   1.00
C755   C     0.31151   0.45888   0.74127   0.00000  Uiso   1.00
C756   C     0.02189   0.54186   0.75833   0.00000  Uiso   1.00
C757   C     0.18071   0.54196   0.54887   0.00000  Uiso   1.00
C758   C     0.17548   0.46159   0.95327   0.00000  Uiso   1.00
C759   C     0.15568   0.54184   0.95212   0.00000  Uiso   1.00
C760   C     0.16133   0.46107   0.54670   0.00000  Uiso   1.00
C761   C     0.18222   0.54141   0.59466   0.00000  Uiso   1.00
C762   C     0.16993   0.45927   0.90797   0.00000  Uiso   1.00
C763   C     0.15351   0.54135   0.90631   0.00000  Uiso   1.00
C764   C     0.16612   0.45887   0.59201   0.00000  Uiso   1.00
C765   C     0.17267   0.50001   0.61705   0.00000  Uiso   1.00
C766   C     0.16247   0.50018   0.88329   0.00000  Uiso   1.00
C767   C     0.16917   0.50218   0.52448   0.00000  Uiso   1.00
C768   C     0.16755   0.50231   0.97599   0.00000  Uiso   1.00
C769   C     0.29040   0.50097   0.74436   0.00000  Uiso   1.00
C770   C     0.04289   0.49960   0.75573   0.00000  Uiso   1.00
Cu771  Cu    0.16667   0.54689   0.75000   0.00000  Uiso   1.00
Cu772  Cu    0.16667   0.45311   0.75000   0.00000  Uiso   1.00
H773   H     0.18938   0.57335   0.53236   0.00000  Uiso   1.00
H774   H     0.18495   0.43047   0.97067   0.00000  Uiso   1.00
H775   H     0.14721   0.57297   0.96907   0.00000  Uiso   1.00
H776   H     0.15239   0.42965   0.52892   0.00000  Uiso   1.00
N777   N     0.16667   0.61736   0.75000   0.00000  Uiso   1.00
N778   N     0.16667   0.38264   0.75000   0.00000  Uiso   1.00
O779   O     0.10655   0.53958   0.75000   0.00000  Uiso   1.00
O780   O     0.22679   0.46042   0.75000   0.00000  Uiso   1.00
O781   O     0.22679   0.53958   0.75001   0.00000  Uiso   1.00
O782   O     0.10655   0.46042   0.75000   0.00000  Uiso   1.00
O783   O     0.16666   0.53959   0.68573   0.00000  Uiso   1.00
O784   O     0.16667   0.46041   0.81427   0.00000  Uiso   1.00
O785   O     0.16667   0.53959   0.81427   0.00000  Uiso   1.00
O786   O     0.16666   0.46041   0.68573   0.00000  Uiso   1.00
Br787  Br    0.09991   0.38856   0.68358   0.00000  Uiso   1.00
Br788  Br    0.22866   0.61135   0.82136   0.00000  Uiso   1.00
Br789  Br    0.23565   0.38995   0.81415   0.00000  Uiso   1.00
Br790  Br    0.10270   0.60945   0.68058   0.00000  Uiso   1.00
C791   C     0.19743   0.58271   0.61746   0.00000  Uiso   1.00
N792   N     0.20995   0.61557   0.63583   0.00000  Uiso   1.00
C793   C     0.16726   0.41324   0.88941   0.00000  Uiso   1.00
N794   N     0.16427   0.37599   0.87541   0.00000  Uiso   1.00
C795   C     0.13848   0.58259   0.88426   0.00000  Uiso   1.00
N796   N     0.12616   0.61552   0.86664   0.00000  Uiso   1.00
C797   C     0.16928   0.41298   0.61036   0.00000  Uiso   1.00
N798   N     0.17269   0.37589   0.62422   0.00000  Uiso   1.00
C799   C     0.03842   0.41377   0.76324   0.00000  Uiso   1.00
N800   N     0.05281   0.37873   0.77346   0.00000  Uiso   1.00
C801   C     0.29422   0.58756   0.74107   0.00000  Uiso   1.00
N802   N     0.27958   0.62323   0.73384   0.00000  Uiso   1.00
C803   C     0.29127   0.41759   0.72279   0.00000  Uiso   1.00
N804   N     0.27500   0.38508   0.70739   0.00000  Uiso   1.00
C805   C     0.04268   0.58361   0.77487   0.00000  Uiso   1.00
N806   N     0.05945   0.61654   0.78860   0.00000  Uiso   1.00
C807   C     0.42102   0.49980   0.75301   0.00000  Uiso   1.00
C808   C     0.57897   0.50030   0.74703   0.00000  Uiso   1.00
C809   C     0.50237   0.49995   0.66526   0.00000  Uiso   1.00
C810   C     0.49813   0.50003   0.83485   0.00000  Uiso   1.00
C811   C     0.47293   0.35760   0.72252   0.00000  Uiso   1.00
C812   C     0.52627   0.64236   0.77831   0.00000  Uiso   1.00
C813   C     0.52730   0.35834   0.77721   0.00000  Uiso   1.00
C814   C     0.47350   0.64158   0.72190   0.00000  Uiso   1.00
C815   C     0.35357   0.45780   0.75139   0.00000  Uiso   1.00
C816   C     0.64629   0.54292   0.74945   0.00000  Uiso   1.00
C817   C     0.64485   0.45888   0.74127   0.00000  Uiso   1.00
C818   C     0.35522   0.54186   0.75833   0.00000  Uiso   1.00
C819   C     0.51404   0.54196   0.54887   0.00000  Uiso   1.00
C820   C     0.50881   0.46159   0.95327   0.00000  Uiso   1.00
C821   C     0.48902   0.54184   0.95212   0.00000  Uiso   1.00
C822   C     0.49466   0.46107   0.54670   0.00000  Uiso   1.00
C823   C     0.51555   0.54141   0.59466   0.00000  Uiso   1.00
C824   C     0.50327   0.45927   0.90797   0.00000  Uiso   1.00
C825   C     0.48685   0.54135   0.90631   0.00000  Uiso   1.00
C826   C     0.49946   0.45887   0.59201   0.00000  Uiso   1.00
C827   C     0.50600   0.50001   0.61705   0.00000  Uiso   1.00
C828   C     0.49581   0.50018   0.88329   0.00000  Uiso   1.00
C829   C     0.50251   0.50218   0.52448   0.00000  Uiso   1.00
C830   C     0.50089   0.50231   0.97599   0.00000  Uiso   1.00
C831   C     0.62374   0.50097   0.74436   0.00000  Uiso   1.00
C832   C     0.37622   0.49960   0.75573   0.00000  Uiso   1.00
Cu833  Cu    0.50000   0.54689   0.75000   0.00000  Uiso   1.00
Cu834  Cu    0.50000   0.45311   0.75000   0.00000  Uiso   1.00
H835   H     0.52271   0.57335   0.53236   0.00000  Uiso   1.00
H836   H     0.51828   0.43047   0.97067   0.00000  Uiso   1.00
H837   H     0.48055   0.57297   0.96907   0.00000  Uiso   1.00
H838   H     0.48572   0.42965   0.52892   0.00000  Uiso   1.00
N839   N     0.50000   0.61736   0.75000   0.00000  Uiso   1.00
N840   N     0.50000   0.38264   0.75000   0.00000  Uiso   1.00
O841   O     0.43988   0.53958   0.75000   0.00000  Uiso   1.00
O842   O     0.56012   0.46042   0.75000   0.00000  Uiso   1.00
O843   O     0.56012   0.53958   0.75001   0.00000  Uiso   1.00
O844   O     0.43988   0.46042   0.75000   0.00000  Uiso   1.00
O845   O     0.50000   0.53959   0.68573   0.00000  Uiso   1.00
O846   O     0.50000   0.46041   0.81427   0.00000  Uiso   1.00
O847   O     0.50000   0.53959   0.81427   0.00000  Uiso   1.00
O848   O     0.50000   0.46041   0.68573   0.00000  Uiso   1.00
Br849  Br    0.43325   0.38856   0.68358   0.00000  Uiso   1.00
Br850  Br    0.56199   0.61135   0.82136   0.00000  Uiso   1.00
Br851  Br    0.56898   0.38995   0.81415   0.00000  Uiso   1.00
Br852  Br    0.43603   0.60945   0.68058   0.00000  Uiso   1.00
C853   C     0.53077   0.58271   0.61746   0.00000  Uiso   1.00
N854   N     0.54328   0.61557   0.63583   0.00000  Uiso   1.00
C855   C     0.50059   0.41324   0.88941   0.00000  Uiso   1.00
N856   N     0.49760   0.37599   0.87541   0.00000  Uiso   1.00
C857   C     0.47181   0.58259   0.88426   0.00000  Uiso   1.00
N858   N     0.45950   0.61552   0.86664   0.00000  Uiso   1.00
C859   C     0.50261   0.41298   0.61036   0.00000  Uiso   1.00
N860   N     0.50602   0.37589   0.62422   0.00000  Uiso   1.00
C861   C     0.37176   0.41377   0.76324   0.00000  Uiso   1.00
N862   N     0.38615   0.37873   0.77346   0.00000  Uiso   1.00
C863   C     0.62756   0.58756   0.74107   0.00000  Uiso   1.00
N864   N     0.61292   0.62323   0.73384   0.00000  Uiso   1.00
C865   C     0.62460   0.41759   0.72279   0.00000  Uiso   1.00
N866   N     0.60834   0.38508   0.70739   0.00000  Uiso   1.00
C867   C     0.37601   0.58361   0.77487   0.00000  Uiso   1.00
N868   N     0.39278   0.61654   0.78860   0.00000  Uiso   1.00
C869   C     0.75436   0.49980   0.75301   0.00000  Uiso   1.00
C870   C     0.91230   0.50030   0.74703   0.00000  Uiso   1.00
C871   C     0.83570   0.49995   0.66526   0.00000  Uiso   1.00
C872   C     0.83146   0.50003   0.83485   0.00000  Uiso   1.00
C873   C     0.80626   0.35760   0.72252   0.00000  Uiso   1.00
C874   C     0.85960   0.64236   0.77831   0.00000  Uiso   1.00
C875   C     0.86064   0.35834   0.77721   0.00000  Uiso   1.00
C876   C     0.80683   0.64158   0.72190   0.00000  Uiso   1.00
C877   C     0.68690   0.45780   0.75139   0.00000  Uiso   1.00
C878   C     0.97962   0.54292   0.74945   0.00000  Uiso   1.00
C879   C     0.97818   0.45888   0.74127   0.00000  Uiso   1.00
C880   C     0.68856   0.54186   0.75833   0.00000  Uiso   1.00
C881   C     0.84737   0.54196   0.54887   0.00000  Uiso   1.00
C882   C     0.84214   0.46159   0.95327   0.00000  Uiso   1.00
C883   C     0.82235   0.54184   0.95212   0.00000  Uiso   1.00
C884   C     0.82799   0.46107   0.54670   0.00000  Uiso   1.00
C885   C     0.84888   0.54141   0.59466   0.00000  Uiso   1.00
C886   C     0.83660   0.45927   0.90797   0.00000  Uiso   1.00
C887   C     0.82018   0.54135   0.90631   0.00000  Uiso   1.00
C888   C     0.83279   0.45887   0.59201   0.00000  Uiso   1.00
C889   C     0.83933   0.50001   0.61705   0.00000  Uiso   1.00
C890   C     0.82914   0.50018   0.88329   0.00000  Uiso   1.00
C891   C     0.83584   0.50218   0.52448   0.00000  Uiso   1.00
C892   C     0.83422   0.50231   0.97599   0.00000  Uiso   1.00
C893   C     0.95707   0.50097   0.74436   0.00000  Uiso   1.00
C894   C     0.70956   0.49960   0.75573   0.00000  Uiso   1.00
Cu895  Cu    0.83333   0.54689   0.75000   0.00000  Uiso   1.00
Cu896  Cu    0.83333   0.45311   0.75000   0.00000  Uiso   1.00
H897   H     0.85604   0.57335   0.53236   0.00000  Uiso   1.00
H898   H     0.85162   0.43047   0.97067   0.00000  Uiso   1.00
H899   H     0.81388   0.57297   0.96907   0.00000  Uiso   1.00
H900   H     0.81906   0.42965   0.52892   0.00000  Uiso   1.00
N901   N     0.83333   0.61736   0.75000   0.00000  Uiso   1.00
N902   N     0.83333   0.38264   0.75000   0.00000  Uiso   1.00
O903   O     0.77321   0.53958   0.75000   0.00000  Uiso   1.00
O904   O     0.89345   0.46042   0.75000   0.00000  Uiso   1.00
O905   O     0.89345   0.53958   0.75001   0.00000  Uiso   1.00
O906   O     0.77321   0.46042   0.75000   0.00000  Uiso   1.00
O907   O     0.83333   0.53959   0.68573   0.00000  Uiso   1.00
O908   O     0.83334   0.46041   0.81427   0.00000  Uiso   1.00
O909   O     0.83334   0.53959   0.81427   0.00000  Uiso   1.00
O910   O     0.83333   0.46041   0.68573   0.00000  Uiso   1.00
Br911  Br    0.76658   0.38856   0.68358   0.00000  Uiso   1.00
Br912  Br    0.89533   0.61135   0.82136   0.00000  Uiso   1.00
Br913  Br    0.90232   0.38995   0.81415   0.00000  Uiso   1.00
Br914  Br    0.76936   0.60945   0.68058   0.00000  Uiso   1.00
C915   C     0.86410   0.58271   0.61746   0.00000  Uiso   1.00
N916   N     0.87662   0.61557   0.63583   0.00000  Uiso   1.00
C917   C     0.83392   0.41324   0.88941   0.00000  Uiso   1.00
N918   N     0.83094   0.37599   0.87541   0.00000  Uiso   1.00
C919   C     0.80515   0.58259   0.88426   0.00000  Uiso   1.00
N920   N     0.79283   0.61552   0.86664   0.00000  Uiso   1.00
C921   C     0.83594   0.41298   0.61036   0.00000  Uiso   1.00
N922   N     0.83935   0.37589   0.62422   0.00000  Uiso   1.00
C923   C     0.70509   0.41377   0.76324   0.00000  Uiso   1.00
N924   N     0.71948   0.37873   0.77346   0.00000  Uiso   1.00
C925   C     0.96089   0.58756   0.74107   0.00000  Uiso   1.00
N926   N     0.94625   0.62323   0.73384   0.00000  Uiso   1.00
C927   C     0.95794   0.41759   0.72279   0.00000  Uiso   1.00
N928   N     0.94167   0.38508   0.70739   0.00000  Uiso   1.00
C929   C     0.70935   0.58361   0.77487   0.00000  Uiso   1.00
N930   N     0.72612   0.61654   0.78860   0.00000  Uiso   1.00
C931   C     0.08769   0.83313   0.75301   0.00000  Uiso   1.00
C932   C     0.24563   0.83363   0.74703   0.00000  Uiso   1.00
C933   C     0.16903   0.83328   0.66526   0.00000  Uiso   1.00
C934   C     0.16480   0.83336   0.83485   0.00000  Uiso   1.00
C935   C     0.13960   0.69094   0.72252   0.00000  Uiso   1.00
C936   C     0.19294   0.97569   0.77831   0.00000  Uiso   1.00
C937   C     0.19397   0.69168   0.77721   0.00000  Uiso   1.00
C938   C     0.14017   0.97492   0.72190   0.00000  Uiso   1.00
C939   C     0.02023   0.79113   0.75139   0.00000  Uiso   1.00
C940   C     0.31296   0.87626   0.74945   0.00000  Uiso   1.00
C941   C     0.31151   0.79221   0.74127   0.00000  Uiso   1.00
C942   C     0.02189   0.87519   0.75833   0.00000  Uiso   1.00
C943   C     0.18071   0.87529   0.54887   0.00000  Uiso   1.00
C944   C     0.17548   0.79492   0.95327   0.00000  Uiso   1.00
C945   C     0.15568   0.87517   0.95212   0.00000  Uiso   1.00
C946   C     0.16133   0.79441   0.54670   0.00000  Uiso   1.00
C947   C     0.18222   0.87474   0.59466   0.00000  Uiso   1.00
C948   C     0.16993   0.79260   0.90797   0.00000  Uiso   1.00
C949   C     0.15351   0.87469   0.90631   0.00000  Uiso   1.00
C950   C     0.16612   0.79221   0.59201   0.00000  Uiso   1.00
C951   C     0.17267   0.83335   0.61705   0.00000  Uiso   1.00
C952   C     0.16247   0.83351   0.88329   0.00000  Uiso   1.00
C953   C     0.16917   0.83551   0.52448   0.00000  Uiso   1.00
C954   C     0.16755   0.83564   0.97599   0.00000  Uiso   1.00
C955   C     0.29040   0.83430   0.74436   0.00000  Uiso   1.00
C956   C     0.04289   0.83293   0.75573   0.00000  Uiso   1.00
Cu957  Cu    0.16667   0.88022   0.75000   0.00000  Uiso   1.00
Cu958  Cu    0.16667   0.78645   0.75000   0.00000  Uiso   1.00
H959   H     0.18938   0.90668   0.53236   0.00000  Uiso   1.00
H960   H     0.18495   0.76380   0.97067   0.00000  Uiso   1.00
H961   H     0.14721   0.90631   0.96907   0.00000  Uiso   1.00
H962   H     0.15239   0.76298   0.52892   0.00000  Uiso   1.00
N963   N     0.16667   0.95069   0.75000   0.00000  Uiso   1.00
N964   N     0.16667   0.71598   0.75000   0.00000  Uiso   1.00
O965   O     0.10655   0.87291   0.75000   0.00000  Uiso   1.00
O966   O     0.22679   0.79375   0.75000   0.00000  Uiso   1.00
O967   O     0.22679   0.87291   0.75001   0.00000  Uiso   1.00
O968   O     0.10655   0.79375   0.75000   0.00000  Uiso   1.00
O969   O     0.16666   0.87293   0.68573   0.00000  Uiso   1.00
O970   O     0.16667   0.79374   0.81427   0.00000  Uiso   1.00
O971   O     0.16667   0.87293   0.81427   0.00000  Uiso   1.00
O972   O     0.16666   0.79374   0.68573   0.00000  Uiso   1.00
Br973  Br    0.09991   0.72189   0.68358   0.00000  Uiso   1.00
Br974  Br    0.22866   0.94468   0.82136   0.00000  Uiso   1.00
Br975  Br    0.23565   0.72328   0.81415   0.00000  Uiso   1.00
Br976  Br    0.10270   0.94279   0.68058   0.00000  Uiso   1.00
C977   C     0.19743   0.91604   0.61746   0.00000  Uiso   1.00
N978   N     0.20995   0.94891   0.63583   0.00000  Uiso   1.00
C979   C     0.16726   0.74658   0.88941   0.00000  Uiso   1.00
N980   N     0.16427   0.70933   0.87541   0.00000  Uiso   1.00
C981   C     0.13848   0.91592   0.88426   0.00000  Uiso   1.00
N982   N     0.12616   0.94886   0.86664   0.00000  Uiso   1.00
C983   C     0.16928   0.74632   0.61036   0.00000  Uiso   1.00
N984   N     0.17269   0.70922   0.62422   0.00000  Uiso   1.00
C985   C     0.03842   0.74710   0.76324   0.00000  Uiso   1.00
N986   N     0.05281   0.71206   0.77346   0.00000  Uiso   1.00
C987   C     0.29422   0.92089   0.74107   0.00000  Uiso   1.00
N988   N     0.27958   0.95656   0.73384   0.00000  Uiso   1.00
C989   C     0.29127   0.75093   0.72279   0.00000  Uiso   1.00
N990   N     0.27500   0.71842   0.70739   0.00000  Uiso   1.00
C991   C     0.04268   0.91694   0.77487   0.00000  Uiso   1.00
N992   N     0.05945   0.94987   0.78860   0.00000  Uiso   1.00
C993   C     0.42102   0.83313   0.75301   0.00000  Uiso   1.00
C994   C     0.57897   0.83363   0.74703   0.00000  Uiso   1.00
C995   C     0.50237   0.83328   0.66526   0.00000  Uiso   1.00
C996   C     0.49813   0.83336   0.83485   0.00000  Uiso   1.00
C997   C     0.47293   0.69094   0.72252   0.00000  Uiso   1.00
C998   C     0.52627   0.97569   0.77831   0.00000  Uiso   1.00
C999   C     0.52730   0.69168   0.77721   0.00000  Uiso   1.00
C1000  C     0.47350   0.97492   0.72190   0.00000  Uiso   1.00
C1001  C     0.35357   0.79113   0.75139   0.00000  Uiso   1.00
C1002  C     0.64629   0.87626   0.74945   0.00000  Uiso   1.00
C1003  C     0.64485   0.79221   0.74127   0.00000  Uiso   1.00
C1004  C     0.35522   0.87519   0.75833   0.00000  Uiso   1.00
C1005  C     0.51404   0.87529   0.54887   0.00000  Uiso   1.00
C1006  C     0.50881   0.79492   0.95327   0.00000  Uiso   1.00
C1007  C     0.48902   0.87517   0.95212   0.00000  Uiso   1.00
C1008  C     0.49466   0.79441   0.54670   0.00000  Uiso   1.00
C1009  C     0.51555   0.87474   0.59466   0.00000  Uiso   1.00
C1010  C     0.50327   0.79260   0.90797   0.00000  Uiso   1.00
C1011  C     0.48685   0.87469   0.90631   0.00000  Uiso   1.00
C1012  C     0.49946   0.79221   0.59201   0.00000  Uiso   1.00
C1013  C     0.50600   0.83335   0.61705   0.00000  Uiso   1.00
C1014  C     0.49581   0.83351   0.88329   0.00000  Uiso   1.00
C1015  C     0.50251   0.83551   0.52448   0.00000  Uiso   1.00
C1016  C     0.50089   0.83564   0.97599   0.00000  Uiso   1.00
C1017  C     0.62374   0.83430   0.74436   0.00000  Uiso   1.00
C1018  C     0.37622   0.83293   0.75573   0.00000  Uiso   1.00
Cu1019 Cu    0.50000   0.88022   0.75000   0.00000  Uiso   1.00
Cu1020 Cu    0.50000   0.78645   0.75000   0.00000  Uiso   1.00
H1021  H     0.52271   0.90668   0.53236   0.00000  Uiso   1.00
H1022  H     0.51828   0.76380   0.97067   0.00000  Uiso   1.00
H1023  H     0.48055   0.90631   0.96907   0.00000  Uiso   1.00
H1024  H     0.48572   0.76298   0.52892   0.00000  Uiso   1.00
N1025  N     0.50000   0.95069   0.75000   0.00000  Uiso   1.00
N1026  N     0.50000   0.71598   0.75000   0.00000  Uiso   1.00
O1027  O     0.43988   0.87291   0.75000   0.00000  Uiso   1.00
O1028  O     0.56012   0.79375   0.75000   0.00000  Uiso   1.00
O1029  O     0.56012   0.87291   0.75001   0.00000  Uiso   1.00
O1030  O     0.43988   0.79375   0.75000   0.00000  Uiso   1.00
O1031  O     0.50000   0.87293   0.68573   0.00000  Uiso   1.00
O1032  O     0.50000   0.79374   0.81427   0.00000  Uiso   1.00
O1033  O     0.50000   0.87293   0.81427   0.00000  Uiso   1.00
O1034  O     0.50000   0.79374   0.68573   0.00000  Uiso   1.00
Br1035 Br    0.43325   0.72189   0.68358   0.00000  Uiso   1.00
Br1036 Br    0.56199   0.94468   0.82136   0.00000  Uiso   1.00
Br1037 Br    0.56898   0.72328   0.81415   0.00000  Uiso   1.00
Br1038 Br    0.43603   0.94279   0.68058   0.00000  Uiso   1.00
C1039  C     0.53077   0.91604   0.61746   0.00000  Uiso   1.00
N1040  N     0.54328   0.94891   0.63583   0.00000  Uiso   1.00
C1041  C     0.50059   0.74658   0.88941   0.00000  Uiso   1.00
N1042  N     0.49760   0.70933   0.87541   0.00000  Uiso   1.00
C1043  C     0.47181   0.91592   0.88426   0.00000  Uiso   1.00
N1044  N     0.45950   0.94886   0.86664   0.00000  Uiso   1.00
C1045  C     0.50261   0.74632   0.61036   0.00000  Uiso   1.00
N1046  N     0.50602   0.70922   0.62422   0.00000  Uiso   1.00
C1047  C     0.37176   0.74710   0.76324   0.00000  Uiso   1.00
N1048  N     0.38615   0.71206   0.77346   0.00000  Uiso   1.00
C1049  C     0.62756   0.92089   0.74107   0.00000  Uiso   1.00
N1050  N     0.61292   0.95656   0.73384   0.00000  Uiso   1.00
C1051  C     0.62460   0.75093   0.72279   0.00000  Uiso   1.00
N1052  N     0.60834   0.71842   0.70739   0.00000  Uiso   1.00
C1053  C     0.37601   0.91694   0.77487   0.00000  Uiso   1.00
N1054  N     0.39278   0.94987   0.78860   0.00000  Uiso   1.00
C1055  C     0.75436   0.83313   0.75301   0.00000  Uiso   1.00
C1056  C     0.91230   0.83363   0.74703   0.00000  Uiso   1.00
C1057  C     0.83570   0.83328   0.66526   0.00000  Uiso   1.00
C1058  C     0.83146   0.83336   0.83485   0.00000  Uiso   1.00
C1059  C     0.80626   0.69094   0.72252   0.00000  Uiso   1.00
C1060  C     0.85960   0.97569   0.77831   0.00000  Uiso   1.00
C1061  C     0.86064   0.69168   0.77721   0.00000  Uiso   1.00
C1062  C     0.80683   0.97492   0.72190   0.00000  Uiso   1.00
C1063  C     0.68690   0.79113   0.75139   0.00000  Uiso   1.00
C1064  C     0.97962   0.87626   0.74945   0.00000  Uiso   1.00
C1065  C     0.97818   0.79221   0.74127   0.00000  Uiso   1.00
C1066  C     0.68856   0.87519   0.75833   0.00000  Uiso   1.00
C1067  C     0.84737   0.87529   0.54887   0.00000  Uiso   1.00
C1068  C     0.84214   0.79492   0.95327   0.00000  Uiso   1.00
C1069  C     0.82235   0.87517   0.95212   0.00000  Uiso   1.00
C1070  C     0.82799   0.79441   0.54670   0.00000  Uiso   1.00
C1071  C     0.84888   0.87474   0.59466   0.00000  Uiso   1.00
C1072  C     0.83660   0.79260   0.90797   0.00000  Uiso   1.00
C1073  C     0.82018   0.87469   0.90631   0.00000  Uiso   1.00
C1074  C     0.83279   0.79221   0.59201   0.00000  Uiso   1.00
C1075  C     0.83933   0.83335   0.61705   0.00000  Uiso   1.00
C1076  C     0.82914   0.83351   0.88329   0.00000  Uiso   1.00
C1077  C     0.83584   0.83551   0.52448   0.00000  Uiso   1.00
C1078  C     0.83422   0.83564   0.97599   0.00000  Uiso   1.00
C1079  C     0.95707   0.83430   0.74436   0.00000  Uiso   1.00
C1080  C     0.70956   0.83293   0.75573   0.00000  Uiso   1.00
Cu1081 Cu    0.83333   0.88022   0.75000   0.00000  Uiso   1.00
Cu1082 Cu    0.83333   0.78645   0.75000   0.00000  Uiso   1.00
H1083  H     0.85604   0.90668   0.53236   0.00000  Uiso   1.00
H1084  H     0.85162   0.76380   0.97067   0.00000  Uiso   1.00
H1085  H     0.81388   0.90631   0.96907   0.00000  Uiso   1.00
H1086  H     0.81906   0.76298   0.52892   0.00000  Uiso   1.00
N1087  N     0.83333   0.95069   0.75000   0.00000  Uiso   1.00
N1088  N     0.83333   0.71598   0.75000   0.00000  Uiso   1.00
O1089  O     0.77321   0.87291   0.75000   0.00000  Uiso   1.00
O1090  O     0.89345   0.79375   0.75000   0.00000  Uiso   1.00
O1091  O     0.89345   0.87291   0.75001   0.00000  Uiso   1.00
O1092  O     0.77321   0.79375   0.75000   0.00000  Uiso   1.00
O1093  O     0.83333   0.87293   0.68573   0.00000  Uiso   1.00
O1094  O     0.83334   0.79374   0.81427   0.00000  Uiso   1.00
O1095  O     0.83334   0.87293   0.81427   0.00000  Uiso   1.00
O1096  O     0.83333   0.79374   0.68573   0.00000  Uiso   1.00
Br1097 Br    0.76658   0.72189   0.68358   0.00000  Uiso   1.00
Br1098 Br    0.89533   0.94468   0.82136   0.00000  Uiso   1.00
Br1099 Br    0.90232   0.72328   0.81415   0.00000  Uiso   1.00
Br1100 Br    0.76936   0.94279   0.68058   0.00000  Uiso   1.00
C1101  C     0.86410   0.91604   0.61746   0.00000  Uiso   1.00
N1102  N     0.87662   0.94891   0.63583   0.00000  Uiso   1.00
C1103  C     0.83392   0.74658   0.88941   0.00000  Uiso   1.00
N1104  N     0.83094   0.70933   0.87541   0.00000  Uiso   1.00
C1105  C     0.80515   0.91592   0.88426   0.00000  Uiso   1.00
N1106  N     0.79283   0.94886   0.86664   0.00000  Uiso   1.00
C1107  C     0.83594   0.74632   0.61036   0.00000  Uiso   1.00
N1108  N     0.83935   0.70922   0.62422   0.00000  Uiso   1.00
C1109  C     0.70509   0.74710   0.76324   0.00000  Uiso   1.00
N1110  N     0.71948   0.71206   0.77346   0.00000  Uiso   1.00
C1111  C     0.96089   0.92089   0.74107   0.00000  Uiso   1.00
N1112  N     0.94625   0.95656   0.73384   0.00000  Uiso   1.00
C1113  C     0.95794   0.75093   0.72279   0.00000  Uiso   1.00
N1114  N     0.94167   0.71842   0.70739   0.00000  Uiso   1.00
C1115  C     0.70935   0.91694   0.77487   0.00000  Uiso   1.00
N1116  N     0.72612   0.94987   0.78860   0.00000  Uiso   1.00
loop_
_geom_bond_atom_site_label_1
_geom_bond_atom_site_label_2
_geom_bond_distance
_geom_bond_site_symmetry_2
_ccdc_geom_bond_type
C1     O35     1.305   .     A
C1     O38     1.305   .     A
C1     C26     1.477   .     S
C2     O37     1.303   .     A
C2     C25     1.476   .     S
C2     O36     1.307   .     A
C3     O42     1.308   .     A
C3     O39     1.308   .     A
C3     C21     1.487   .     S
C4     C22     1.489   .     S
C4     O40     1.307   .     A
C4     O41     1.309   .     A
C5     N34     1.376   .     A
C5     Br43    1.929   .     S
C5     C380    1.425   1_545 S
C6     N33     1.374   .     A
C6     Br44    1.928   .     S
C6     C193    1.424   .     S
C7     Br45    1.930   .     S
C7     N34     1.378   .     A
C7     C378    1.424   1_545 S
C8     N33     1.376   .     A
C8     Br46    1.927   .     S
C8     C191    1.425   .     S
C9     C55     1.446   .     S
C9     C26     1.411   .     A
C9     C135    1.393   1_455 S
C10    C25     1.415   .     A
C10    C57     1.449   .     S
C10    C74     1.394   .     S
C11    C59     1.451   .     S
C11    C25     1.410   .     A
C11    C71     1.393   .     S
C12    C61     1.450   .     S
C12    C26     1.411   .     A
C12    C134    1.394   1_455 S
C13    C17     1.398   .     A
C13    C23     1.401   .     A
C13    H29     1.084   .     S
C14    C18     1.385   .     A
C14    H30     1.083   .     S
C14    C24     1.399   .     A
C15    H31     1.084   .     S
C15    C19     1.398   .     A
C15    C24     1.400   .     A
C16    H32     1.082   .     S
C16    C20     1.385   .     A
C16    C23     1.400   .     A
C17    C21     1.422   .     A
C17    C47     1.445   .     S
C18    C49     1.442   .     S
C18    C22     1.418   .     A
C19    C22     1.422   .     A
C19    C51     1.444   .     S
C20    C21     1.416   .     A
C20    C53     1.442   .     S
C23    C582    1.480   1_554 S
C24    C581    1.480   .     S
Cu27   N33     2.034   .     S
Cu27   O37     1.985   .     S
Cu27   Cu28    2.706   .     S
Cu27   O39     1.976   .     S
Cu27   O35     1.981   .     S
Cu27   O41     1.977   .     S
Cu28   O38     1.985   .     S
Cu28   O42     1.977   .     S
Cu28   N34     2.034   .     S
Cu28   O36     1.981   .     S
Cu28   O40     1.976   .     S
C47    N48     1.157   .     T
C49    N50     1.156   .     T
C51    N52     1.157   .     T
C53    N54     1.156   .     T
C55    N56     1.155   .     T
C57    N58     1.156   .     T
C59    N60     1.156   .     T
C61    N62     1.156   .     T
C63    O97     1.305   .     A
C63    O100    1.305   .     A
C63    C88     1.477   .     S
C64    O99     1.303   .     A
C64    C87     1.476   .     S
C64    O98     1.307   .     A
C65    O104    1.308   .     A
C65    O101    1.308   .     A
C65    C83     1.487   .     S
C66    C84     1.489   .     S
C66    O102    1.307   .     A
C66    O103    1.309   .     A
C67    N96     1.376   .     A
C67    Br105   1.929   .     S
C67    C442    1.425   1_545 S
C68    N95     1.374   .     A
C68    Br106   1.928   .     S
C68    C255    1.424   .     S
C69    Br107   1.930   .     S
C69    N96     1.378   .     A
C69    C440    1.424   1_545 S
C70    N95     1.376   .     A
C70    Br108   1.927   .     S
C70    C253    1.425   .     S
C71    C117    1.446   .     S
C71    C88     1.411   .     A
C72    C87     1.415   .     A
C72    C119    1.449   .     S
C72    C136    1.394   .     S
C73    C121    1.451   .     S
C73    C87     1.410   .     A
C73    C133    1.393   .     S
C74    C123    1.450   .     S
C74    C88     1.411   .     A
C75    C79     1.398   .     A
C75    C85     1.401   .     A
C75    H91     1.084   .     S
C76    C80     1.385   .     A
C76    H92     1.083   .     S
C76    C86     1.399   .     A
C77    H93     1.084   .     S
C77    C81     1.398   .     A
C77    C86     1.400   .     A
C78    H94     1.082   .     S
C78    C82     1.385   .     A
C78    C85     1.400   .     A
C79    C83     1.422   .     A
C79    C109    1.445   .     S
C80    C111    1.442   .     S
C80    C84     1.418   .     A
C81    C84     1.422   .     A
C81    C113    1.444   .     S
C82    C83     1.416   .     A
C82    C115    1.442   .     S
C85    C644    1.480   1_554 S
C86    C643    1.480   .     S
Cu89   N95     2.034   .     S
Cu89   O99     1.985   .     S
Cu89   Cu90    2.706   .     S
Cu89   O101    1.976   .     S
Cu89   O97     1.981   .     S
Cu89   O103    1.977   .     S
Cu90   O100    1.985   .     S
Cu90   O104    1.977   .     S
Cu90   N96     2.034   .     S
Cu90   O98     1.981   .     S
Cu90   O102    1.976   .     S
C109   N110    1.157   .     T
C111   N112    1.156   .     T
C113   N114    1.157   .     T
C115   N116    1.156   .     T
C117   N118    1.155   .     T
C119   N120    1.156   .     T
C121   N122    1.156   .     T
C123   N124    1.156   .     T
C125   O159    1.305   .     A
C125   O162    1.305   .     A
C125   C150    1.477   .     S
C126   O161    1.303   .     A
C126   C149    1.476   .     S
C126   O160    1.307   .     A
C127   O166    1.308   .     A
C127   O163    1.308   .     A
C127   C145    1.487   .     S
C128   C146    1.489   .     S
C128   O164    1.307   .     A
C128   O165    1.309   .     A
C129   N158    1.376   .     A
C129   Br167   1.929   .     S
C129   C504    1.425   1_545 S
C130   N157    1.374   .     A
C130   Br168   1.928   .     S
C130   C317    1.424   .     S
C131   Br169   1.930   .     S
C131   N158    1.378   .     A
C131   C502    1.424   1_545 S
C132   N157    1.376   .     A
C132   Br170   1.927   .     S
C132   C315    1.425   .     S
C133   C179    1.446   .     S
C133   C150    1.411   .     A
C134   C149    1.415   .     A
C134   C181    1.449   .     S
C134   C12     1.394   1_655 S
C135   C183    1.451   .     S
C135   C149    1.410   .     A
C135   C9      1.393   1_655 S
C136   C185    1.450   .     S
C136   C150    1.411   .     A
C137   C141    1.398   .     A
C137   C147    1.401   .     A
C137   H153    1.084   .     S
C138   C142    1.385   .     A
C138   H154    1.083   .     S
C138   C148    1.399   .     A
C139   H155    1.084   .     S
C139   C143    1.398   .     A
C139   C148    1.400   .     A
C140   H156    1.082   .     S
C140   C144    1.385   .     A
C140   C147    1.400   .     A
C141   C145    1.422   .     A
C141   C171    1.445   .     S
C142   C173    1.442   .     S
C142   C146    1.418   .     A
C143   C146    1.422   .     A
C143   C175    1.444   .     S
C144   C145    1.416   .     A
C144   C177    1.442   .     S
C147   C706    1.480   1_554 S
C148   C705    1.480   .     S
Cu151  N157    2.034   .     S
Cu151  O161    1.985   .     S
Cu151  Cu152   2.706   .     S
Cu151  O163    1.976   .     S
Cu151  O159    1.981   .     S
Cu151  O165    1.977   .     S
Cu152  O162    1.985   .     S
Cu152  O166    1.977   .     S
Cu152  N158    2.034   .     S
Cu152  O160    1.981   .     S
Cu152  O164    1.976   .     S
C171   N172    1.157   .     T
C173   N174    1.156   .     T
C175   N176    1.157   .     T
C177   N178    1.156   .     T
C179   N180    1.155   .     T
C181   N182    1.156   .     T
C183   N184    1.156   .     T
C185   N186    1.156   .     T
C187   O221    1.305   .     A
C187   O224    1.305   .     A
C187   C212    1.477   .     S
C188   O223    1.303   .     A
C188   C211    1.476   .     S
C188   O222    1.307   .     A
C189   O228    1.308   .     A
C189   O225    1.308   .     A
C189   C207    1.487   .     S
C190   C208    1.489   .     S
C190   O226    1.307   .     A
C190   O227    1.309   .     A
C191   N220    1.376   .     A
C191   Br229   1.929   .     S
C192   N219    1.374   .     A
C192   Br230   1.928   .     S
C192   C379    1.424   .     S
C193   Br231   1.930   .     S
C193   N220    1.378   .     A
C194   N219    1.376   .     A
C194   Br232   1.927   .     S
C194   C377    1.425   .     S
C195   C241    1.446   .     S
C195   C212    1.411   .     A
C195   C321    1.393   1_455 S
C196   C211    1.415   .     A
C196   C243    1.449   .     S
C196   C260    1.394   .     S
C197   C245    1.451   .     S
C197   C211    1.410   .     A
C197   C257    1.393   .     S
C198   C247    1.450   .     S
C198   C212    1.411   .     A
C198   C320    1.394   1_455 S
C199   C203    1.398   .     A
C199   C209    1.401   .     A
C199   H215    1.084   .     S
C200   C204    1.385   .     A
C200   H216    1.083   .     S
C200   C210    1.399   .     A
C201   H217    1.084   .     S
C201   C205    1.398   .     A
C201   C210    1.400   .     A
C202   H218    1.082   .     S
C202   C206    1.385   .     A
C202   C209    1.400   .     A
C203   C207    1.422   .     A
C203   C233    1.445   .     S
C204   C235    1.442   .     S
C204   C208    1.418   .     A
C205   C208    1.422   .     A
C205   C237    1.444   .     S
C206   C207    1.416   .     A
C206   C239    1.442   .     S
C209   C768    1.480   1_554 S
C210   C767    1.480   .     S
Cu213  N219    2.034   .     S
Cu213  O223    1.985   .     S
Cu213  Cu214   2.706   .     S
Cu213  O225    1.976   .     S
Cu213  O221    1.981   .     S
Cu213  O227    1.977   .     S
Cu214  O224    1.985   .     S
Cu214  O228    1.977   .     S
Cu214  N220    2.034   .     S
Cu214  O222    1.981   .     S
Cu214  O226    1.976   .     S
C233   N234    1.157   .     T
C235   N236    1.156   .     T
C237   N238    1.157   .     T
C239   N240    1.156   .     T
C241   N242    1.155   .     T
C243   N244    1.156   .     T
C245   N246    1.156   .     T
C247   N248    1.156   .     T
C249   O283    1.305   .     A
C249   O286    1.305   .     A
C249   C274    1.477   .     S
C250   O285    1.303   .     A
C250   C273    1.476   .     S
C250   O284    1.307   .     A
C251   O290    1.308   .     A
C251   O287    1.308   .     A
C251   C269    1.487   .     S
C252   C270    1.489   .     S
C252   O288    1.307   .     A
C252   O289    1.309   .     A
C253   N282    1.376   .     A
C253   Br291   1.929   .     S
C254   N281    1.374   .     A
C254   Br292   1.928   .     S
C254   C441    1.424   .     S
C255   Br293   1.930   .     S
C255   N282    1.378   .     A
C256   N281    1.376   .     A
C256   Br294   1.927   .     S
C256   C439    1.425   .     S
C257   C303    1.446   .     S
C257   C274    1.411   .     A
C258   C273    1.415   .     A
C258   C305    1.449   .     S
C258   C322    1.394   .     S
C259   C307    1.451   .     S
C259   C273    1.410   .     A
C259   C319    1.393   .     S
C260   C309    1.450   .     S
C260   C274    1.411   .     A
C261   C265    1.398   .     A
C261   C271    1.401   .     A
C261   H277    1.084   .     S
C262   C266    1.385   .     A
C262   H278    1.083   .     S
C262   C272    1.399   .     A
C263   H279    1.084   .     S
C263   C267    1.398   .     A
C263   C272    1.400   .     A
C264   H280    1.082   .     S
C264   C268    1.385   .     A
C264   C271    1.400   .     A
C265   C269    1.422   .     A
C265   C295    1.445   .     S
C266   C297    1.442   .     S
C266   C270    1.418   .     A
C267   C270    1.422   .     A
C267   C299    1.444   .     S
C268   C269    1.416   .     A
C268   C301    1.442   .     S
C271   C830    1.480   1_554 S
C272   C829    1.480   .     S
Cu275  N281    2.034   .     S
Cu275  O285    1.985   .     S
Cu275  Cu276   2.706   .     S
Cu275  O287    1.976   .     S
Cu275  O283    1.981   .     S
Cu275  O289    1.977   .     S
Cu276  O286    1.985   .     S
Cu276  O290    1.977   .     S
Cu276  N282    2.034   .     S
Cu276  O284    1.981   .     S
Cu276  O288    1.976   .     S
C295   N296    1.157   .     T
C297   N298    1.156   .     T
C299   N300    1.157   .     T
C301   N302    1.156   .     T
C303   N304    1.155   .     T
C305   N306    1.156   .     T
C307   N308    1.156   .     T
C309   N310    1.156   .     T
C311   O345    1.305   .     A
C311   O348    1.305   .     A
C311   C336    1.477   .     S
C312   O347    1.303   .     A
C312   C335    1.476   .     S
C312   O346    1.307   .     A
C313   O352    1.308   .     A
C313   O349    1.308   .     A
C313   C331    1.487   .     S
C314   C332    1.489   .     S
C314   O350    1.307   .     A
C314   O351    1.309   .     A
C315   N344    1.376   .     A
C315   Br353   1.929   .     S
C316   N343    1.374   .     A
C316   Br354   1.928   .     S
C316   C503    1.424   .     S
C317   Br355   1.930   .     S
C317   N344    1.378   .     A
C318   N343    1.376   .     A
C318   Br356   1.927   .     S
C318   C501    1.425   .     S
C319   C365    1.446   .     S
C319   C336    1.411   .     A
C320   C335    1.415   .     A
C320   C367    1.449   .     S
C320   C198    1.394   1_655 S
C321   C369    1.451   .     S
C321   C335    1.410   .     A
C321   C195    1.393   1_655 S
C322   C371    1.450   .     S
C322   C336    1.411   .     A
C323   C327    1.398   .     A
C323   C333    1.401   .     A
C323   H339    1.084   .     S
C324   C328    1.385   .     A
C324   H340    1.083   .     S
C324   C334    1.399   .     A
C325   H341    1.084   .     S
C325   C329    1.398   .     A
C325   C334    1.400   .     A
C326   H342    1.082   .     S
C326   C330    1.385   .     A
C326   C333    1.400   .     A
C327   C331    1.422   .     A
C327   C357    1.445   .     S
C328   C359    1.442   .     S
C328   C332    1.418   .     A
C329   C332    1.422   .     A
C329   C361    1.444   .     S
C330   C331    1.416   .     A
C330   C363    1.442   .     S
C333   C892    1.480   1_554 S
C334   C891    1.480   .     S
Cu337  N343    2.034   .     S
Cu337  O347    1.985   .     S
Cu337  Cu338   2.706   .     S
Cu337  O349    1.976   .     S
Cu337  O345    1.981   .     S
Cu337  O351    1.977   .     S
Cu338  O348    1.985   .     S
Cu338  O352    1.977   .     S
Cu338  N344    2.034   .     S
Cu338  O346    1.981   .     S
Cu338  O350    1.976   .     S
C357   N358    1.157   .     T
C359   N360    1.156   .     T
C361   N362    1.157   .     T
C363   N364    1.156   .     T
C365   N366    1.155   .     T
C367   N368    1.156   .     T
C369   N370    1.156   .     T
C371   N372    1.156   .     T
C373   O407    1.305   .     A
C373   O410    1.305   .     A
C373   C398    1.477   .     S
C374   O409    1.303   .     A
C374   C397    1.476   .     S
C374   O408    1.307   .     A
C375   O414    1.308   .     A
C375   O411    1.308   .     A
C375   C393    1.487   .     S
C376   C394    1.489   .     S
C376   O412    1.307   .     A
C376   O413    1.309   .     A
C377   N406    1.376   .     A
C377   Br415   1.929   .     S
C378   N405    1.374   .     A
C378   Br416   1.928   .     S
C378   C7      1.424   1_565 S
C379   Br417   1.930   .     S
C379   N406    1.378   .     A
C380   N405    1.376   .     A
C380   Br418   1.927   .     S
C380   C5      1.425   1_565 S
C381   C427    1.446   .     S
C381   C398    1.411   .     A
C381   C507    1.393   1_455 S
C382   C397    1.415   .     A
C382   C429    1.449   .     S
C382   C446    1.394   .     S
C383   C431    1.451   .     S
C383   C397    1.410   .     A
C383   C443    1.393   .     S
C384   C433    1.450   .     S
C384   C398    1.411   .     A
C384   C506    1.394   1_455 S
C385   C389    1.398   .     A
C385   C395    1.401   .     A
C385   H401    1.084   .     S
C386   C390    1.385   .     A
C386   H402    1.083   .     S
C386   C396    1.399   .     A
C387   H403    1.084   .     S
C387   C391    1.398   .     A
C387   C396    1.400   .     A
C388   H404    1.082   .     S
C388   C392    1.385   .     A
C388   C395    1.400   .     A
C389   C393    1.422   .     A
C389   C419    1.445   .     S
C390   C421    1.442   .     S
C390   C394    1.418   .     A
C391   C394    1.422   .     A
C391   C423    1.444   .     S
C392   C393    1.416   .     A
C392   C425    1.442   .     S
C395   C954    1.480   1_554 S
C396   C953    1.480   .     S
Cu399  N405    2.034   .     S
Cu399  O409    1.985   .     S
Cu399  Cu400   2.706   .     S
Cu399  O411    1.976   .     S
Cu399  O407    1.981   .     S
Cu399  O413    1.977   .     S
Cu400  O410    1.985   .     S
Cu400  O414    1.977   .     S
Cu400  N406    2.034   .     S
Cu400  O408    1.981   .     S
Cu400  O412    1.976   .     S
C419   N420    1.157   .     T
C421   N422    1.156   .     T
C423   N424    1.157   .     T
C425   N426    1.156   .     T
C427   N428    1.155   .     T
C429   N430    1.156   .     T
C431   N432    1.156   .     T
C433   N434    1.156   .     T
C435   O469    1.305   .     A
C435   O472    1.305   .     A
C435   C460    1.477   .     S
C436   O471    1.303   .     A
C436   C459    1.476   .     S
C436   O470    1.307   .     A
C437   O476    1.308   .     A
C437   O473    1.308   .     A
C437   C455    1.487   .     S
C438   C456    1.489   .     S
C438   O474    1.307   .     A
C438   O475    1.309   .     A
C439   N468    1.376   .     A
C439   Br477   1.929   .     S
C440   N467    1.374   .     A
C440   Br478   1.928   .     S
C440   C69     1.424   1_565 S
C441   Br479   1.930   .     S
C441   N468    1.378   .     A
C442   N467    1.376   .     A
C442   Br480   1.927   .     S
C442   C67     1.425   1_565 S
C443   C489    1.446   .     S
C443   C460    1.411   .     A
C444   C459    1.415   .     A
C444   C491    1.449   .     S
C444   C508    1.394   .     S
C445   C493    1.451   .     S
C445   C459    1.410   .     A
C445   C505    1.393   .     S
C446   C495    1.450   .     S
C446   C460    1.411   .     A
C447   C451    1.398   .     A
C447   C457    1.401   .     A
C447   H463    1.084   .     S
C448   C452    1.385   .     A
C448   H464    1.083   .     S
C448   C458    1.399   .     A
C449   H465    1.084   .     S
C449   C453    1.398   .     A
C449   C458    1.400   .     A
C450   H466    1.082   .     S
C450   C454    1.385   .     A
C450   C457    1.400   .     A
C451   C455    1.422   .     A
C451   C481    1.445   .     S
C452   C483    1.442   .     S
C452   C456    1.418   .     A
C453   C456    1.422   .     A
C453   C485    1.444   .     S
C454   C455    1.416   .     A
C454   C487    1.442   .     S
C457   C1016   1.480   1_554 S
C458   C1015   1.480   .     S
Cu461  N467    2.034   .     S
Cu461  O471    1.985   .     S
Cu461  Cu462   2.706   .     S
Cu461  O473    1.976   .     S
Cu461  O469    1.981   .     S
Cu461  O475    1.977   .     S
Cu462  O472    1.985   .     S
Cu462  O476    1.977   .     S
Cu462  N468    2.034   .     S
Cu462  O470    1.981   .     S
Cu462  O474    1.976   .     S
C481   N482    1.157   .     T
C483   N484    1.156   .     T
C485   N486    1.157   .     T
C487   N488    1.156   .     T
C489   N490    1.155   .     T
C491   N492    1.156   .     T
C493   N494    1.156   .     T
C495   N496    1.156   .     T
C497   O531    1.305   .     A
C497   O534    1.305   .     A
C497   C522    1.477   .     S
C498   O533    1.303   .     A
C498   C521    1.476   .     S
C498   O532    1.307   .     A
C499   O538    1.308   .     A
C499   O535    1.308   .     A
C499   C517    1.487   .     S
C500   C518    1.489   .     S
C500   O536    1.307   .     A
C500   O537    1.309   .     A
C501   N530    1.376   .     A
C501   Br539   1.929   .     S
C502   N529    1.374   .     A
C502   Br540   1.928   .     S
C502   C131    1.424   1_565 S
C503   Br541   1.930   .     S
C503   N530    1.378   .     A
C504   N529    1.376   .     A
C504   Br542   1.927   .     S
C504   C129    1.425   1_565 S
C505   C551    1.446   .     S
C505   C522    1.411   .     A
C506   C521    1.415   .     A
C506   C553    1.449   .     S
C506   C384    1.394   1_655 S
C507   C555    1.451   .     S
C507   C521    1.410   .     A
C507   C381    1.393   1_655 S
C508   C557    1.450   .     S
C508   C522    1.411   .     A
C509   C513    1.398   .     A
C509   C519    1.401   .     A
C509   H525    1.084   .     S
C510   C514    1.385   .     A
C510   H526    1.083   .     S
C510   C520    1.399   .     A
C511   H527    1.084   .     S
C511   C515    1.398   .     A
C511   C520    1.400   .     A
C512   H528    1.082   .     S
C512   C516    1.385   .     A
C512   C519    1.400   .     A
C513   C517    1.422   .     A
C513   C543    1.445   .     S
C514   C545    1.442   .     S
C514   C518    1.418   .     A
C515   C518    1.422   .     A
C515   C547    1.444   .     S
C516   C517    1.416   .     A
C516   C549    1.442   .     S
C519   C1078   1.480   1_554 S
C520   C1077   1.480   .     S
Cu523  N529    2.034   .     S
Cu523  O533    1.985   .     S
Cu523  Cu524   2.706   .     S
Cu523  O535    1.976   .     S
Cu523  O531    1.981   .     S
Cu523  O537    1.977   .     S
Cu524  O534    1.985   .     S
Cu524  O538    1.977   .     S
Cu524  N530    2.034   .     S
Cu524  O532    1.981   .     S
Cu524  O536    1.976   .     S
C543   N544    1.157   .     T
C545   N546    1.156   .     T
C547   N548    1.157   .     T
C549   N550    1.156   .     T
C551   N552    1.155   .     T
C553   N554    1.156   .     T
C555   N556    1.156   .     T
C557   N558    1.156   .     T
C559   O593    1.305   .     A
C559   O596    1.305   .     A
C559   C584    1.477   .     S
C560   O595    1.303   .     A
C560   C583    1.476   .     S
C560   O594    1.307   .     A
C561   O600    1.308   .     A
C561   O597    1.308   .     A
C561   C579    1.487   .     S
C562   C580    1.489   .     S
C562   O598    1.307   .     A
C562   O599    1.309   .     A
C563   N592    1.376   .     A
C563   Br601   1.929   .     S
C563   C938    1.425   1_545 S
C564   N591    1.374   .     A
C564   Br602   1.928   .     S
C564   C751    1.424   .     S
C565   Br603   1.930   .     S
C565   N592    1.378   .     A
C565   C936    1.424   1_545 S
C566   N591    1.376   .     A
C566   Br604   1.927   .     S
C566   C749    1.425   .     S
C567   C613    1.446   .     S
C567   C584    1.411   .     A
C567   C693    1.393   1_455 S
C568   C583    1.415   .     A
C568   C615    1.449   .     S
C568   C632    1.394   .     S
C569   C617    1.451   .     S
C569   C583    1.410   .     A
C569   C629    1.393   .     S
C570   C619    1.450   .     S
C570   C584    1.411   .     A
C570   C692    1.394   1_455 S
C571   C575    1.398   .     A
C571   C581    1.401   .     A
C571   H587    1.084   .     S
C572   C576    1.385   .     A
C572   H588    1.083   .     S
C572   C582    1.399   .     A
C573   H589    1.084   .     S
C573   C577    1.398   .     A
C573   C582    1.400   .     A
C574   H590    1.082   .     S
C574   C578    1.385   .     A
C574   C581    1.400   .     A
C575   C579    1.422   .     A
C575   C605    1.445   .     S
C576   C607    1.442   .     S
C576   C580    1.418   .     A
C577   C580    1.422   .     A
C577   C609    1.444   .     S
C578   C579    1.416   .     A
C578   C611    1.442   .     S
C582   C23     1.480   1_556 S
Cu585  N591    2.034   .     S
Cu585  O595    1.985   .     S
Cu585  Cu586   2.706   .     S
Cu585  O597    1.976   .     S
Cu585  O593    1.981   .     S
Cu585  O599    1.977   .     S
Cu586  O596    1.985   .     S
Cu586  O600    1.977   .     S
Cu586  N592    2.034   .     S
Cu586  O594    1.981   .     S
Cu586  O598    1.976   .     S
C605   N606    1.157   .     T
C607   N608    1.156   .     T
C609   N610    1.157   .     T
C611   N612    1.156   .     T
C613   N614    1.155   .     T
C615   N616    1.156   .     T
C617   N618    1.156   .     T
C619   N620    1.156   .     T
C621   O655    1.305   .     A
C621   O658    1.305   .     A
C621   C646    1.477   .     S
C622   O657    1.303   .     A
C622   C645    1.476   .     S
C622   O656    1.307   .     A
C623   O662    1.308   .     A
C623   O659    1.308   .     A
C623   C641    1.487   .     S
C624   C642    1.489   .     S
C624   O660    1.307   .     A
C624   O661    1.309   .     A
C625   N654    1.376   .     A
C625   Br663   1.929   .     S
C625   C1000   1.425   1_545 S
C626   N653    1.374   .     A
C626   Br664   1.928   .     S
C626   C813    1.424   .     S
C627   Br665   1.930   .     S
C627   N654    1.378   .     A
C627   C998    1.424   1_545 S
C628   N653    1.376   .     A
C628   Br666   1.927   .     S
C628   C811    1.425   .     S
C629   C675    1.446   .     S
C629   C646    1.411   .     A
C630   C645    1.415   .     A
C630   C677    1.449   .     S
C630   C694    1.394   .     S
C631   C679    1.451   .     S
C631   C645    1.410   .     A
C631   C691    1.393   .     S
C632   C681    1.450   .     S
C632   C646    1.411   .     A
C633   C637    1.398   .     A
C633   C643    1.401   .     A
C633   H649    1.084   .     S
C634   C638    1.385   .     A
C634   H650    1.083   .     S
C634   C644    1.399   .     A
C635   H651    1.084   .     S
C635   C639    1.398   .     A
C635   C644    1.400   .     A
C636   H652    1.082   .     S
C636   C640    1.385   .     A
C636   C643    1.400   .     A
C637   C641    1.422   .     A
C637   C667    1.445   .     S
C638   C669    1.442   .     S
C638   C642    1.418   .     A
C639   C642    1.422   .     A
C639   C671    1.444   .     S
C640   C641    1.416   .     A
C640   C673    1.442   .     S
C644   C85     1.480   1_556 S
Cu647  N653    2.034   .     S
Cu647  O657    1.985   .     S
Cu647  Cu648   2.706   .     S
Cu647  O659    1.976   .     S
Cu647  O655    1.981   .     S
Cu647  O661    1.977   .     S
Cu648  O658    1.985   .     S
Cu648  O662    1.977   .     S
Cu648  N654    2.034   .     S
Cu648  O656    1.981   .     S
Cu648  O660    1.976   .     S
C667   N668    1.157   .     T
C669   N670    1.156   .     T
C671   N672    1.157   .     T
C673   N674    1.156   .     T
C675   N676    1.155   .     T
C677   N678    1.156   .     T
C679   N680    1.156   .     T
C681   N682    1.156   .     T
C683   O717    1.305   .     A
C683   O720    1.305   .     A
C683   C708    1.477   .     S
C684   O719    1.303   .     A
C684   C707    1.476   .     S
C684   O718    1.307   .     A
C685   O724    1.308   .     A
C685   O721    1.308   .     A
C685   C703    1.487   .     S
C686   C704    1.489   .     S
C686   O722    1.307   .     A
C686   O723    1.309   .     A
C687   N716    1.376   .     A
C687   Br725   1.929   .     S
C687   C1062   1.425   1_545 S
C688   N715    1.374   .     A
C688   Br726   1.928   .     S
C688   C875    1.424   .     S
C689   Br727   1.930   .     S
C689   N716    1.378   .     A
C689   C1060   1.424   1_545 S
C690   N715    1.376   .     A
C690   Br728   1.927   .     S
C690   C873    1.425   .     S
C691   C737    1.446   .     S
C691   C708    1.411   .     A
C692   C707    1.415   .     A
C692   C739    1.449   .     S
C692   C570    1.394   1_655 S
C693   C741    1.451   .     S
C693   C707    1.410   .     A
C693   C567    1.393   1_655 S
C694   C743    1.450   .     S
C694   C708    1.411   .     A
C695   C699    1.398   .     A
C695   C705    1.401   .     A
C695   H711    1.084   .     S
C696   C700    1.385   .     A
C696   H712    1.083   .     S
C696   C706    1.399   .     A
C697   H713    1.084   .     S
C697   C701    1.398   .     A
C697   C706    1.400   .     A
C698   H714    1.082   .     S
C698   C702    1.385   .     A
C698   C705    1.400   .     A
C699   C703    1.422   .     A
C699   C729    1.445   .     S
C700   C731    1.442   .     S
C700   C704    1.418   .     A
C701   C704    1.422   .     A
C701   C733    1.444   .     S
C702   C703    1.416   .     A
C702   C735    1.442   .     S
C706   C147    1.480   1_556 S
Cu709  N715    2.034   .     S
Cu709  O719    1.985   .     S
Cu709  Cu710   2.706   .     S
Cu709  O721    1.976   .     S
Cu709  O717    1.981   .     S
Cu709  O723    1.977   .     S
Cu710  O720    1.985   .     S
Cu710  O724    1.977   .     S
Cu710  N716    2.034   .     S
Cu710  O718    1.981   .     S
Cu710  O722    1.976   .     S
C729   N730    1.157   .     T
C731   N732    1.156   .     T
C733   N734    1.157   .     T
C735   N736    1.156   .     T
C737   N738    1.155   .     T
C739   N740    1.156   .     T
C741   N742    1.156   .     T
C743   N744    1.156   .     T
C745   O779    1.305   .     A
C745   O782    1.305   .     A
C745   C770    1.477   .     S
C746   O781    1.303   .     A
C746   C769    1.476   .     S
C746   O780    1.307   .     A
C747   O786    1.308   .     A
C747   O783    1.308   .     A
C747   C765    1.487   .     S
C748   C766    1.489   .     S
C748   O784    1.307   .     A
C748   O785    1.309   .     A
C749   N778    1.376   .     A
C749   Br787   1.929   .     S
C750   N777    1.374   .     A
C750   Br788   1.928   .     S
C750   C937    1.424   .     S
C751   Br789   1.930   .     S
C751   N778    1.378   .     A
C752   N777    1.376   .     A
C752   Br790   1.927   .     S
C752   C935    1.425   .     S
C753   C799    1.446   .     S
C753   C770    1.411   .     A
C753   C879    1.393   1_455 S
C754   C769    1.415   .     A
C754   C801    1.449   .     S
C754   C818    1.394   .     S
C755   C803    1.451   .     S
C755   C769    1.410   .     A
C755   C815    1.393   .     S
C756   C805    1.450   .     S
C756   C770    1.411   .     A
C756   C878    1.394   1_455 S
C757   C761    1.398   .     A
C757   C767    1.401   .     A
C757   H773    1.084   .     S
C758   C762    1.385   .     A
C758   H774    1.083   .     S
C758   C768    1.399   .     A
C759   H775    1.084   .     S
C759   C763    1.398   .     A
C759   C768    1.400   .     A
C760   H776    1.082   .     S
C760   C764    1.385   .     A
C760   C767    1.400   .     A
C761   C765    1.422   .     A
C761   C791    1.445   .     S
C762   C793    1.442   .     S
C762   C766    1.418   .     A
C763   C766    1.422   .     A
C763   C795    1.444   .     S
C764   C765    1.416   .     A
C764   C797    1.442   .     S
C768   C209    1.480   1_556 S
Cu771  N777    2.034   .     S
Cu771  O781    1.985   .     S
Cu771  Cu772   2.706   .     S
Cu771  O783    1.976   .     S
Cu771  O779    1.981   .     S
Cu771  O785    1.977   .     S
Cu772  O782    1.985   .     S
Cu772  O786    1.977   .     S
Cu772  N778    2.034   .     S
Cu772  O780    1.981   .     S
Cu772  O784    1.976   .     S
C791   N792    1.157   .     T
C793   N794    1.156   .     T
C795   N796    1.157   .     T
C797   N798    1.156   .     T
C799   N800    1.155   .     T
C801   N802    1.156   .     T
C803   N804    1.156   .     T
C805   N806    1.156   .     T
C807   O841    1.305   .     A
C807   O844    1.305   .     A
C807   C832    1.477   .     S
C808   O843    1.303   .     A
C808   C831    1.476   .     S
C808   O842    1.307   .     A
C809   O848    1.308   .     A
C809   O845    1.308   .     A
C809   C827    1.487   .     S
C810   C828    1.489   .     S
C810   O846    1.307   .     A
C810   O847    1.309   .     A
C811   N840    1.376   .     A
C811   Br849   1.929   .     S
C812   N839    1.374   .     A
C812   Br850   1.928   .     S
C812   C999    1.424   .     S
C813   Br851   1.930   .     S
C813   N840    1.378   .     A
C814   N839    1.376   .     A
C814   Br852   1.927   .     S
C814   C997    1.425   .     S
C815   C861    1.446   .     S
C815   C832    1.411   .     A
C816   C831    1.415   .     A
C816   C863    1.449   .     S
C816   C880    1.394   .     S
C817   C865    1.451   .     S
C817   C831    1.410   .     A
C817   C877    1.393   .     S
C818   C867    1.450   .     S
C818   C832    1.411   .     A
C819   C823    1.398   .     A
C819   C829    1.401   .     A
C819   H835    1.084   .     S
C820   C824    1.385   .     A
C820   H836    1.083   .     S
C820   C830    1.399   .     A
C821   H837    1.084   .     S
C821   C825    1.398   .     A
C821   C830    1.400   .     A
C822   H838    1.082   .     S
C822   C826    1.385   .     A
C822   C829    1.400   .     A
C823   C827    1.422   .     A
C823   C853    1.445   .     S
C824   C855    1.442   .     S
C824   C828    1.418   .     A
C825   C828    1.422   .     A
C825   C857    1.444   .     S
C826   C827    1.416   .     A
C826   C859    1.442   .     S
C830   C271    1.480   1_556 S
Cu833  N839    2.034   .     S
Cu833  O843    1.985   .     S
Cu833  Cu834   2.706   .     S
Cu833  O845    1.976   .     S
Cu833  O841    1.981   .     S
Cu833  O847    1.977   .     S
Cu834  O844    1.985   .     S
Cu834  O848    1.977   .     S
Cu834  N840    2.034   .     S
Cu834  O842    1.981   .     S
Cu834  O846    1.976   .     S
C853   N854    1.157   .     T
C855   N856    1.156   .     T
C857   N858    1.157   .     T
C859   N860    1.156   .     T
C861   N862    1.155   .     T
C863   N864    1.156   .     T
C865   N866    1.156   .     T
C867   N868    1.156   .     T
C869   O903    1.305   .     A
C869   O906    1.305   .     A
C869   C894    1.477   .     S
C870   O905    1.303   .     A
C870   C893    1.476   .     S
C870   O904    1.307   .     A
C871   O910    1.308   .     A
C871   O907    1.308   .     A
C871   C889    1.487   .     S
C872   C890    1.489   .     S
C872   O908    1.307   .     A
C872   O909    1.309   .     A
C873   N902    1.376   .     A
C873   Br911   1.929   .     S
C874   N901    1.374   .     A
C874   Br912   1.928   .     S
C874   C1061   1.424   .     S
C875   Br913   1.930   .     S
C875   N902    1.378   .     A
C876   N901    1.376   .     A
C876   Br914   1.927   .     S
C876   C1059   1.425   .     S
C877   C923    1.446   .     S
C877   C894    1.411   .     A
C878   C893    1.415   .     A
C878   C925    1.449   .     S
C878   C756    1.394   1_655 S
C879   C927    1.451   .     S
C879   C893    1.410   .     A
C879   C753    1.393   1_655 S
C880   C929    1.450   .     S
C880   C894    1.411   .     A
C881   C885    1.398   .     A
C881   C891    1.401   .     A
C881   H897    1.084   .     S
C882   C886    1.385   .     A
C882   H898    1.083   .     S
C882   C892    1.399   .     A
C883   H899    1.084   .     S
C883   C887    1.398   .     A
C883   C892    1.400   .     A
C884   H900    1.082   .     S
C884   C888    1.385   .     A
C884   C891    1.400   .     A
C885   C889    1.422   .     A
C885   C915    1.445   .     S
C886   C917    1.442   .     S
C886   C890    1.418   .     A
C887   C890    1.422   .     A
C887   C919    1.444   .     S
C888   C889    1.416   .     A
C888   C921    1.442   .     S
C892   C333    1.480   1_556 S
Cu895  N901    2.034   .     S
Cu895  O905    1.985   .     S
Cu895  Cu896   2.706   .     S
Cu895  O907    1.976   .     S
Cu895  O903    1.981   .     S
Cu895  O909    1.977   .     S
Cu896  O906    1.985   .     S
Cu896  O910    1.977   .     S
Cu896  N902    2.034   .     S
Cu896  O904    1.981   .     S
Cu896  O908    1.976   .     S
C915   N916    1.157   .     T
C917   N918    1.156   .     T
C919   N920    1.157   .     T
C921   N922    1.156   .     T
C923   N924    1.155   .     T
C925   N926    1.156   .     T
C927   N928    1.156   .     T
C929   N930    1.156   .     T
C931   O965    1.305   .     A
C931   O968    1.305   .     A
C931   C956    1.477   .     S
C932   O967    1.303   .     A
C932   C955    1.476   .     S
C932   O966    1.307   .     A
C933   O972    1.308   .     A
C933   O969    1.308   .     A
C933   C951    1.487   .     S
C934   C952    1.489   .     S
C934   O970    1.307   .     A
C934   O971    1.309   .     A
C935   N964    1.376   .     A
C935   Br973   1.929   .     S
C936   N963    1.374   .     A
C936   Br974   1.928   .     S
C936   C565    1.424   1_565 S
C937   Br975   1.930   .     S
C937   N964    1.378   .     A
C938   N963    1.376   .     A
C938   Br976   1.927   .     S
C938   C563    1.425   1_565 S
C939   C985    1.446   .     S
C939   C956    1.411   .     A
C939   C1065   1.393   1_455 S
C940   C955    1.415   .     A
C940   C987    1.449   .     S
C940   C1004   1.394   .     S
C941   C989    1.451   .     S
C941   C955    1.410   .     A
C941   C1001   1.393   .     S
C942   C991    1.450   .     S
C942   C956    1.411   .     A
C942   C1064   1.394   1_455 S
C943   C947    1.398   .     A
C943   C953    1.401   .     A
C943   H959    1.084   .     S
C944   C948    1.385   .     A
C944   H960    1.083   .     S
C944   C954    1.399   .     A
C945   H961    1.084   .     S
C945   C949    1.398   .     A
C945   C954    1.400   .     A
C946   H962    1.082   .     S
C946   C950    1.385   .     A
C946   C953    1.400   .     A
C947   C951    1.422   .     A
C947   C977    1.445   .     S
C948   C979    1.442   .     S
C948   C952    1.418   .     A
C949   C952    1.422   .     A
C949   C981    1.444   .     S
C950   C951    1.416   .     A
C950   C983    1.442   .     S
C954   C395    1.480   1_556 S
Cu957  N963    2.034   .     S
Cu957  O967    1.985   .     S
Cu957  Cu958   2.706   .     S
Cu957  O969    1.976   .     S
Cu957  O965    1.981   .     S
Cu957  O971    1.977   .     S
Cu958  O968    1.985   .     S
Cu958  O972    1.977   .     S
Cu958  N964    2.034   .     S
Cu958  O966    1.981   .     S
Cu958  O970    1.976   .     S
C977   N978    1.157   .     T
C979   N980    1.156   .     T
C981   N982    1.157   .     T
C983   N984    1.156   .     T
C985   N986    1.155   .     T
C987   N988    1.156   .     T
C989   N990    1.156   .     T
C991   N992    1.156   .     T
C993   O1027   1.305   .     A
C993   O1030   1.305   .     A
C993   C1018   1.477   .     S
C994   O1029   1.303   .     A
C994   C1017   1.476   .     S
C994   O1028   1.307   .     A
C995   O1034   1.308   .     A
C995   O1031   1.308   .     A
C995   C1013   1.487   .     S
C996   C1014   1.489   .     S
C996   O1032   1.307   .     A
C996   O1033   1.309   .     A
C997   N1026   1.376   .     A
C997   Br1035  1.929   .     S
C998   N1025   1.374   .     A
C998   Br1036  1.928   .     S
C998   C627    1.424   1_565 S
C999   Br1037  1.930   .     S
C999   N1026   1.378   .     A
C1000  N1025   1.376   .     A
C1000  Br1038  1.927   .     S
C1000  C625    1.425   1_565 S
C1001  C1047   1.446   .     S
C1001  C1018   1.411   .     A
C1002  C1017   1.415   .     A
C1002  C1049   1.449   .     S
C1002  C1066   1.394   .     S
C1003  C1051   1.451   .     S
C1003  C1017   1.410   .     A
C1003  C1063   1.393   .     S
C1004  C1053   1.450   .     S
C1004  C1018   1.411   .     A
C1005  C1009   1.398   .     A
C1005  C1015   1.401   .     A
C1005  H1021   1.084   .     S
C1006  C1010   1.385   .     A
C1006  H1022   1.083   .     S
C1006  C1016   1.399   .     A
C1007  H1023   1.084   .     S
C1007  C1011   1.398   .     A
C1007  C1016   1.400   .     A
C1008  H1024   1.082   .     S
C1008  C1012   1.385   .     A
C1008  C1015   1.400   .     A
C1009  C1013   1.422   .     A
C1009  C1039   1.445   .     S
C1010  C1041   1.442   .     S
C1010  C1014   1.418   .     A
C1011  C1014   1.422   .     A
C1011  C1043   1.444   .     S
C1012  C1013   1.416   .     A
C1012  C1045   1.442   .     S
C1016  C457    1.480   1_556 S
Cu1019 N1025   2.034   .     S
Cu1019 O1029   1.985   .     S
Cu1019 Cu1020  2.706   .     S
Cu1019 O1031   1.976   .     S
Cu1019 O1027   1.981   .     S
Cu1019 O1033   1.977   .     S
Cu1020 O1030   1.985   .     S
Cu1020 O1034   1.977   .     S
Cu1020 N1026   2.034   .     S
Cu1020 O1028   1.981   .     S
Cu1020 O1032   1.976   .     S
C1039  N1040   1.157   .     T
C1041  N1042   1.156   .     T
C1043  N1044   1.157   .     T
C1045  N1046   1.156   .     T
C1047  N1048   1.155   .     T
C1049  N1050   1.156   .     T
C1051  N1052   1.156   .     T
C1053  N1054   1.156   .     T
C1055  O1089   1.305   .     A
C1055  O1092   1.305   .     A
C1055  C1080   1.477   .     S
C1056  O1091   1.303   .     A
C1056  C1079   1.476   .     S
C1056  O1090   1.307   .     A
C1057  O1096   1.308   .     A
C1057  O1093   1.308   .     A
C1057  C1075   1.487   .     S
C1058  C1076   1.489   .     S
C1058  O1094   1.307   .     A
C1058  O1095   1.309   .     A
C1059  N1088   1.376   .     A
C1059  Br1097  1.929   .     S
C1060  N1087   1.374   .     A
C1060  Br1098  1.928   .     S
C1060  C689    1.424   1_565 S
C1061  Br1099  1.930   .     S
C1061  N1088   1.378   .     A
C1062  N1087   1.376   .     A
C1062  Br1100  1.927   .     S
C1062  C687    1.425   1_565 S
C1063  C1109   1.446   .     S
C1063  C1080   1.411   .     A
C1064  C1079   1.415   .     A
C1064  C1111   1.449   .     S
C1064  C942    1.394   1_655 S
C1065  C1113   1.451   .     S
C1065  C1079   1.410   .     A
C1065  C939    1.393   1_655 S
C1066  C1115   1.450   .     S
C1066  C1080   1.411   .     A
C1067  C1071   1.398   .     A
C1067  C1077   1.401   .     A
C1067  H1083   1.084   .     S
C1068  C1072   1.385   .     A
C1068  H1084   1.083   .     S
C1068  C1078   1.399   .     A
C1069  H1085   1.084   .     S
C1069  C1073   1.398   .     A
C1069  C1078   1.400   .     A
C1070  H1086   1.082   .     S
C1070  C1074   1.385   .     A
C1070  C1077   1.400   .     A
C1071  C1075   1.422   .     A
C1071  C1101   1.445   .     S
C1072  C1103   1.442   .     S
C1072  C1076   1.418   .     A
C1073  C1076   1.422   .     A
C1073  C1105   1.444   .     S
C1074  C1075   1.416   .     A
C1074  C1107   1.442   .     S
C1078  C519    1.480   1_556 S
Cu1081 N1087   2.034   .     S
Cu1081 O1091   1.985   .     S
Cu1081 Cu1082  2.706   .     S
Cu1081 O1093   1.976   .     S
Cu1081 O1089   1.981   .     S
Cu1081 O1095   1.977   .     S
Cu1082 O1092   1.985   .     S
Cu1082 O1096   1.977   .     S
Cu1082 N1088   2.034   .     S
Cu1082 O1090   1.981   .     S
Cu1082 O1094   1.976   .     S
C1101  N1102   1.157   .     T
C1103  N1104   1.156   .     T
C1105  N1106   1.157   .     T
C1107  N1108   1.156   .     T
C1109  N1110   1.155   .     T
C1111  N1112   1.156   .     T
C1113  N1114   1.156   .     T
C1115  N1116   1.156   .     T
