data_str_m2_o1_o1_pcu_sym.66
_audit_creation_date              2020-01-03
_audit_creation_method            'Materials Studio'
_symmetry_space_group_name_H-M    'P1'
_symmetry_Int_Tables_number       1
_symmetry_cell_setting            triclinic
loop_
_symmetry_equiv_pos_as_xyz
  x,y,z
_cell_length_a                    31.3379
_cell_length_b                    29.7316
_cell_length_c                    28.8546
_cell_angle_alpha                 92.9682
_cell_angle_beta                  90.0821
_cell_angle_gamma                 89.9584
loop_
_atom_site_label
_atom_site_type_symbol
_atom_site_fract_x
_atom_site_fract_y
_atom_site_fract_z
_atom_site_U_iso_or_equiv
_atom_site_adp_type
_atom_site_occupancy
C1     C     0.05908   0.19030   0.16625   0.00000  Uiso   1.00
C2     C     0.00552   0.28918   0.31114   0.00000  Uiso   1.00
C3     C     0.00013   0.28960   0.02721   0.00000  Uiso   1.00
C4     C     0.49954   0.21037   0.30601   0.00000  Uiso   1.00
C5     C     0.25406   0.46054   0.02230   0.00000  Uiso   1.00
C6     C     0.25488   0.03929   0.31099   0.00000  Uiso   1.00
C7     C     0.25059   0.03968   0.02729   0.00000  Uiso   1.00
C8     C     0.24954   0.46035   0.30603   0.00000  Uiso   1.00
C9     C     0.40594   0.12174   0.13250   0.00000  Uiso   1.00
C10    C     0.08619   0.38597   0.19129   0.00000  Uiso   1.00
C11    C     0.12786   0.33517   0.13991   0.00000  Uiso   1.00
C12    C     0.44030   0.30910   0.16747   0.00000  Uiso   1.00
C13    C     0.37104   0.16564   0.19563   0.00000  Uiso   1.00
C14    C     0.12474   0.16075   0.20009   0.00000  Uiso   1.00
C15    C     0.36758   0.33130   0.14537   0.00000  Uiso   1.00
C16    C     0.41060   0.38295   0.19458   0.00000  Uiso   1.00
C17    C     0.08782   0.11628   0.13880   0.00000  Uiso   1.00
C18    C     0.15794   0.36956   0.13527   0.00000  Uiso   1.00
C19    C     0.33763   0.13403   0.19422   0.00000  Uiso   1.00
C20    C     0.37658   0.08677   0.13698   0.00000  Uiso   1.00
C21    C     0.12010   0.41703   0.19335   0.00000  Uiso   1.00
C22    C     0.38052   0.41711   0.18963   0.00000  Uiso   1.00
C23    C     0.44016   0.19107   0.16592   0.00000  Uiso   1.00
C24    C     0.12145   0.08488   0.13662   0.00000  Uiso   1.00
C25    C     0.15384   0.12535   0.20365   0.00000  Uiso   1.00
C26    C     0.33442   0.36316   0.14722   0.00000  Uiso   1.00
C27    C     0.09193   0.34383   0.16779   0.00000  Uiso   1.00
C28    C     0.40526   0.15891   0.16458   0.00000  Uiso   1.00
C29    C     0.40564   0.34156   0.16932   0.00000  Uiso   1.00
C30    C     0.09214   0.15622   0.16662   0.00000  Uiso   1.00
C31    C     0.34230   0.09340   0.16766   0.00000  Uiso   1.00
C32    C     0.15573   0.40850   0.16477   0.00000  Uiso   1.00
C33    C     0.15491   0.09057   0.16883   0.00000  Uiso   1.00
C34    C     0.05842   0.31034   0.16732   0.00000  Uiso   1.00
C35    C     0.34254   0.40696   0.16564   0.00000  Uiso   1.00
C36    C     0.06422   0.16118   0.03000   0.00000  Uiso   1.00
C37    C     0.07177   0.32568   0.29718   0.00000  Uiso   1.00
C38    C     0.46640   0.36178   0.05036   0.00000  Uiso   1.00
C39    C     0.46888   0.13701   0.28127   0.00000  Uiso   1.00
C40    C     0.31590   0.41595   0.03745   0.00000  Uiso   1.00
C41    C     0.31586   0.08830   0.30312   0.00000  Uiso   1.00
C42    C     0.21942   0.11222   0.05352   0.00000  Uiso   1.00
C43    C     0.21596   0.38819   0.28133   0.00000  Uiso   1.00
C44    C     0.41396   0.12766   0.05459   0.00000  Uiso   1.00
C45    C     0.30915   0.44049   0.16608   0.00000  Uiso   1.00
C46    C     0.02521   0.42391   0.17698   0.00000  Uiso   1.00
C47    C     0.16729   0.27100   0.12287   0.00000  Uiso   1.00
C48    C     0.35994   0.20039   0.26846   0.00000  Uiso   1.00
C49    C     0.16314   0.21925   0.23615   0.00000  Uiso   1.00
C50    C     0.35799   0.28833   0.07823   0.00000  Uiso   1.00
C51    C     0.43363   0.38099   0.26896   0.00000  Uiso   1.00
C52    C     0.02407   0.08227   0.14704   0.00000  Uiso   1.00
C53    C     0.17183   0.37043   0.05809   0.00000  Uiso   1.00
C54    C     0.27253   0.16623   0.18898   0.00000  Uiso   1.00
C55    C     0.41459   0.02289   0.11507   0.00000  Uiso   1.00
C56    C     0.18996   0.05865   0.16737   0.00000  Uiso   1.00
C57    C     0.10733   0.45523   0.26379   0.00000  Uiso   1.00
C58    C     0.38021   0.47164   0.24963   0.00000  Uiso   1.00
C59    C     0.10785   0.05063   0.06369   0.00000  Uiso   1.00
C60    C     0.15493   0.10617   0.27849   0.00000  Uiso   1.00
C61    C     0.27299   0.33048   0.16848   0.00000  Uiso   1.00
C62    C     0.19044   0.44079   0.16594   0.00000  Uiso   1.00
C63    C     0.30895   0.05976   0.16727   0.00000  Uiso   1.00
C64    C     0.00382   0.21060   0.02232   0.00000  Uiso   1.00
Cu65   Cu    0.00000   0.25000   0.21355   0.00000  Uiso   1.00
Cu66   Cu    0.00000   0.25000   0.11978   0.00000  Uiso   1.00
Cu67   Cu    0.25000   0.00000   0.21355   0.00000  Uiso   1.00
Cu68   Cu    0.25000   0.00000   0.11978   0.00000  Uiso   1.00
H69    H     0.00036   0.14439   0.04064   0.00000  Uiso   1.00
H70    H     0.45347   0.37101   0.08530   0.00000  Uiso   1.00
H71    H     0.44031   0.34684   0.02853   0.00000  Uiso   1.00
H72    H     0.47762   0.39323   0.03525   0.00000  Uiso   1.00
H73    H     0.03308   0.15565   0.27569   0.00000  Uiso   1.00
H74    H     0.46060   0.12358   0.24581   0.00000  Uiso   1.00
H75    H     0.43999   0.15269   0.29710   0.00000  Uiso   1.00
H76    H     0.47947   0.10839   0.30168   0.00000  Uiso   1.00
H77    H     0.25403   0.39240   0.03332   0.00000  Uiso   1.00
H78    H     0.33313   0.44688   0.05008   0.00000  Uiso   1.00
H79    H     0.32469   0.40845   0.00073   0.00000  Uiso   1.00
H80    H     0.08453   0.16148   0.06130   0.00000  Uiso   1.00
H81    H     0.32696   0.38741   0.05744   0.00000  Uiso   1.00
H82    H     0.25197   0.10506   0.29013   0.00000  Uiso   1.00
H83    H     0.32985   0.06364   0.32660   0.00000  Uiso   1.00
H84    H     0.31757   0.12243   0.32058   0.00000  Uiso   1.00
H85    H     0.33621   0.08751   0.27188   0.00000  Uiso   1.00
H86    H     0.28404   0.09541   0.05526   0.00000  Uiso   1.00
H87    H     0.21948   0.13405   0.08589   0.00000  Uiso   1.00
H88    H     0.18858   0.09424   0.05139   0.00000  Uiso   1.00
H89    H     0.22294   0.13412   0.02384   0.00000  Uiso   1.00
H90    H     0.28075   0.40448   0.27445   0.00000  Uiso   1.00
H91    H     0.07837   0.18613   0.00699   0.00000  Uiso   1.00
H92    H     0.20443   0.37836   0.24592   0.00000  Uiso   1.00
H93    H     0.18908   0.40347   0.30146   0.00000  Uiso   1.00
H94    H     0.22686   0.35705   0.29734   0.00000  Uiso   1.00
H95    H     0.42667   0.10384   0.02725   0.00000  Uiso   1.00
H96    H     0.42057   0.16264   0.04504   0.00000  Uiso   1.00
H97    H     0.37864   0.12284   0.05476   0.00000  Uiso   1.00
H98    H     0.49976   0.44372   0.19520   0.00000  Uiso   1.00
H99    H     0.01023   0.40141   0.14962   0.00000  Uiso   1.00
H100   H     0.04602   0.44900   0.16060   0.00000  Uiso   1.00
H101   H     0.19295   0.27867   0.09803   0.00000  Uiso   1.00
H102   H     0.06583   0.12736   0.01187   0.00000  Uiso   1.00
H103   H     0.16023   0.23447   0.11825   0.00000  Uiso   1.00
H104   H     0.17877   0.27753   0.15910   0.00000  Uiso   1.00
H105   H     0.37036   0.16706   0.28019   0.00000  Uiso   1.00
H106   H     0.32547   0.20537   0.27588   0.00000  Uiso   1.00
H107   H     0.37772   0.22649   0.28949   0.00000  Uiso   1.00
H108   H     0.18215   0.20665   0.26526   0.00000  Uiso   1.00
H109   H     0.15704   0.25559   0.24412   0.00000  Uiso   1.00
H110   H     0.18194   0.21639   0.20350   0.00000  Uiso   1.00
H111   H     0.38477   0.30719   0.06313   0.00000  Uiso   1.00
H112   H     0.32690   0.30227   0.06731   0.00000  Uiso   1.00
H113   H     0.01345   0.35729   0.30265   0.00000  Uiso   1.00
H114   H     0.35991   0.25311   0.06369   0.00000  Uiso   1.00
H115   H     0.45250   0.40309   0.29325   0.00000  Uiso   1.00
H116   H     0.44087   0.34546   0.27549   0.00000  Uiso   1.00
H117   H     0.39937   0.38692   0.27755   0.00000  Uiso   1.00
H118   H     0.01376   0.10415   0.17743   0.00000  Uiso   1.00
H119   H     0.04054   0.05164   0.15879   0.00000  Uiso   1.00
H120   H     0.49517   0.07064   0.12815   0.00000  Uiso   1.00
H121   H     0.13787   0.35976   0.05417   0.00000  Uiso   1.00
H122   H     0.19004   0.34922   0.03247   0.00000  Uiso   1.00
H123   H     0.17438   0.40628   0.04951   0.00000  Uiso   1.00
H124   H     0.08089   0.32981   0.00095   0.00000  Uiso   1.00
H125   H     0.24287   0.17387   0.20844   0.00000  Uiso   1.00
H126   H     0.26383   0.14506   0.15747   0.00000  Uiso   1.00
H127   H     0.28646   0.19883   0.17915   0.00000  Uiso   1.00
H128   H     0.43971   0.03135   0.08993   0.00000  Uiso   1.00
H129   H     0.40671   0.48676   0.10835   0.00000  Uiso   1.00
H130   H     0.42703   0.02685   0.15130   0.00000  Uiso   1.00
H131   H     0.12191   0.42491   0.27835   0.00000  Uiso   1.00
H132   H     0.07238   0.45547   0.26986   0.00000  Uiso   1.00
H133   H     0.12083   0.48505   0.28333   0.00000  Uiso   1.00
H134   H     0.35580   0.44907   0.26414   0.00000  Uiso   1.00
H135   H     0.08626   0.35357   0.27877   0.00000  Uiso   1.00
H136   H     0.36727   0.00639   0.25279   0.00000  Uiso   1.00
H137   H     0.40964   0.47122   0.27098   0.00000  Uiso   1.00
H138   H     0.11713   0.08413   0.05163   0.00000  Uiso   1.00
H139   H     0.07312   0.04512   0.05840   0.00000  Uiso   1.00
H140   H     0.12483   0.02492   0.04138   0.00000  Uiso   1.00
H141   H     0.13695   0.13385   0.29693   0.00000  Uiso   1.00
H142   H     0.17659   0.09111   0.30357   0.00000  Uiso   1.00
H143   H     0.13263   0.07871   0.26645   0.00000  Uiso   1.00
H144   H     0.27215   0.35265   0.20074   0.00000  Uiso   1.00
H145   H     0.28798   0.29757   0.17546   0.00000  Uiso   1.00
H146   H     0.08527   0.29336   0.28269   0.00000  Uiso   1.00
H147   H     0.23961   0.32375   0.15812   0.00000  Uiso   1.00
H148   H     0.03122   0.34610   0.05678   0.00000  Uiso   1.00
N149   N     0.00000   0.25000   0.28402   0.00000  Uiso   1.00
N150   N     0.27193   0.07760   0.29033   0.00000  Uiso   1.00
N151   N     0.25435   0.08060   0.05492   0.00000  Uiso   1.00
N152   N     0.25121   0.41929   0.27843   0.00000  Uiso   1.00
N153   N     0.00000   0.25000   0.04931   0.00000  Uiso   1.00
N154   N     0.25000   0.00000   0.28402   0.00000  Uiso   1.00
N155   N     0.25000   0.00000   0.04931   0.00000  Uiso   1.00
N156   N     0.02030   0.17187   0.04273   0.00000  Uiso   1.00
N157   N     0.02572   0.32650   0.29166   0.00000  Uiso   1.00
N158   N     0.00175   0.33083   0.05454   0.00000  Uiso   1.00
N159   N     0.00296   0.16942   0.27846   0.00000  Uiso   1.00
N160   N     0.27008   0.42154   0.04283   0.00000  Uiso   1.00
O161   O     0.04509   0.20491   0.20625   0.00000  Uiso   1.00
O162   O     0.20492   0.04509   0.12709   0.00000  Uiso   1.00
O163   O     0.20492   0.04509   0.20625   0.00000  Uiso   1.00
O164   O     0.29509   0.45491   0.12709   0.00000  Uiso   1.00
O165   O     0.20492   0.45491   0.12709   0.00000  Uiso   1.00
O166   O     0.29509   0.04509   0.20625   0.00000  Uiso   1.00
O167   O     0.29509   0.04509   0.12709   0.00000  Uiso   1.00
O168   O     0.20492   0.45491   0.20625   0.00000  Uiso   1.00
O169   O     0.43516   0.11956   0.09672   0.00000  Uiso   1.00
O170   O     0.04676   0.39795   0.20944   0.00000  Uiso   1.00
O171   O     0.12997   0.29521   0.11278   0.00000  Uiso   1.00
O172   O     0.45492   0.29509   0.12709   0.00000  Uiso   1.00
O173   O     0.36800   0.20658   0.22105   0.00000  Uiso   1.00
O174   O     0.12355   0.19673   0.23291   0.00000  Uiso   1.00
O175   O     0.36091   0.28786   0.12698   0.00000  Uiso   1.00
O176   O     0.44534   0.39059   0.22321   0.00000  Uiso   1.00
O177   O     0.04957   0.10646   0.11671   0.00000  Uiso   1.00
O178   O     0.18977   0.36479   0.10238   0.00000  Uiso   1.00
O179   O     0.30017   0.14312   0.21805   0.00000  Uiso   1.00
O180   O     0.37758   0.04850   0.10727   0.00000  Uiso   1.00
O181   O     0.11613   0.45918   0.21618   0.00000  Uiso   1.00
O182   O     0.39050   0.46147   0.20261   0.00000  Uiso   1.00
O183   O     0.45492   0.29509   0.20625   0.00000  Uiso   1.00
O184   O     0.11879   0.04428   0.11041   0.00000  Uiso   1.00
O185   O     0.17960   0.12323   0.24235   0.00000  Uiso   1.00
O186   O     0.29389   0.35139   0.13207   0.00000  Uiso   1.00
O187   O     0.04509   0.20491   0.12709   0.00000  Uiso   1.00
O188   O     0.45492   0.20491   0.12709   0.00000  Uiso   1.00
O189   O     0.04509   0.29509   0.20625   0.00000  Uiso   1.00
O190   O     0.04509   0.29509   0.12709   0.00000  Uiso   1.00
O191   O     0.45492   0.20491   0.20625   0.00000  Uiso   1.00
O192   O     0.29509   0.45491   0.20625   0.00000  Uiso   1.00
C193   C     0.55908   0.19030   0.16625   0.00000  Uiso   1.00
C194   C     0.50552   0.28918   0.31114   0.00000  Uiso   1.00
C195   C     0.50013   0.28960   0.02721   0.00000  Uiso   1.00
C196   C     0.99954   0.21037   0.30601   0.00000  Uiso   1.00
C197   C     0.75406   0.46054   0.02230   0.00000  Uiso   1.00
C198   C     0.75488   0.03929   0.31099   0.00000  Uiso   1.00
C199   C     0.75059   0.03968   0.02729   0.00000  Uiso   1.00
C200   C     0.74954   0.46035   0.30603   0.00000  Uiso   1.00
C201   C     0.90594   0.12174   0.13250   0.00000  Uiso   1.00
C202   C     0.58619   0.38597   0.19129   0.00000  Uiso   1.00
C203   C     0.62786   0.33517   0.13991   0.00000  Uiso   1.00
C204   C     0.94030   0.30910   0.16747   0.00000  Uiso   1.00
C205   C     0.87104   0.16564   0.19563   0.00000  Uiso   1.00
C206   C     0.62474   0.16075   0.20009   0.00000  Uiso   1.00
C207   C     0.86758   0.33130   0.14537   0.00000  Uiso   1.00
C208   C     0.91060   0.38295   0.19458   0.00000  Uiso   1.00
C209   C     0.58782   0.11628   0.13880   0.00000  Uiso   1.00
C210   C     0.65794   0.36956   0.13527   0.00000  Uiso   1.00
C211   C     0.83763   0.13403   0.19422   0.00000  Uiso   1.00
C212   C     0.87658   0.08677   0.13698   0.00000  Uiso   1.00
C213   C     0.62010   0.41703   0.19335   0.00000  Uiso   1.00
C214   C     0.88052   0.41711   0.18963   0.00000  Uiso   1.00
C215   C     0.94016   0.19107   0.16592   0.00000  Uiso   1.00
C216   C     0.62145   0.08488   0.13662   0.00000  Uiso   1.00
C217   C     0.65384   0.12535   0.20365   0.00000  Uiso   1.00
C218   C     0.83442   0.36316   0.14722   0.00000  Uiso   1.00
C219   C     0.59193   0.34383   0.16779   0.00000  Uiso   1.00
C220   C     0.90526   0.15891   0.16458   0.00000  Uiso   1.00
C221   C     0.90564   0.34156   0.16932   0.00000  Uiso   1.00
C222   C     0.59214   0.15622   0.16662   0.00000  Uiso   1.00
C223   C     0.84230   0.09340   0.16766   0.00000  Uiso   1.00
C224   C     0.65573   0.40850   0.16477   0.00000  Uiso   1.00
C225   C     0.65491   0.09057   0.16883   0.00000  Uiso   1.00
C226   C     0.55842   0.31034   0.16732   0.00000  Uiso   1.00
C227   C     0.84254   0.40696   0.16564   0.00000  Uiso   1.00
C228   C     0.56422   0.16118   0.03000   0.00000  Uiso   1.00
C229   C     0.57177   0.32568   0.29718   0.00000  Uiso   1.00
C230   C     0.96640   0.36178   0.05036   0.00000  Uiso   1.00
C231   C     0.96888   0.13701   0.28127   0.00000  Uiso   1.00
C232   C     0.81590   0.41595   0.03745   0.00000  Uiso   1.00
C233   C     0.81586   0.08830   0.30312   0.00000  Uiso   1.00
C234   C     0.71942   0.11222   0.05352   0.00000  Uiso   1.00
C235   C     0.71596   0.38819   0.28133   0.00000  Uiso   1.00
C236   C     0.91396   0.12766   0.05459   0.00000  Uiso   1.00
C237   C     0.80915   0.44049   0.16608   0.00000  Uiso   1.00
C238   C     0.52521   0.42391   0.17698   0.00000  Uiso   1.00
C239   C     0.66729   0.27100   0.12287   0.00000  Uiso   1.00
C240   C     0.85994   0.20039   0.26846   0.00000  Uiso   1.00
C241   C     0.66314   0.21925   0.23615   0.00000  Uiso   1.00
C242   C     0.85799   0.28833   0.07823   0.00000  Uiso   1.00
C243   C     0.93363   0.38099   0.26896   0.00000  Uiso   1.00
C244   C     0.52407   0.08227   0.14704   0.00000  Uiso   1.00
C245   C     0.67183   0.37043   0.05809   0.00000  Uiso   1.00
C246   C     0.77253   0.16623   0.18898   0.00000  Uiso   1.00
C247   C     0.91459   0.02289   0.11507   0.00000  Uiso   1.00
C248   C     0.68996   0.05865   0.16737   0.00000  Uiso   1.00
C249   C     0.60733   0.45523   0.26379   0.00000  Uiso   1.00
C250   C     0.88021   0.47164   0.24963   0.00000  Uiso   1.00
C251   C     0.60785   0.05063   0.06369   0.00000  Uiso   1.00
C252   C     0.65493   0.10617   0.27849   0.00000  Uiso   1.00
C253   C     0.77299   0.33048   0.16848   0.00000  Uiso   1.00
C254   C     0.69044   0.44079   0.16594   0.00000  Uiso   1.00
C255   C     0.80895   0.05976   0.16727   0.00000  Uiso   1.00
C256   C     0.50382   0.21060   0.02232   0.00000  Uiso   1.00
Cu257  Cu    0.50000   0.25000   0.21355   0.00000  Uiso   1.00
Cu258  Cu    0.50000   0.25000   0.11978   0.00000  Uiso   1.00
Cu259  Cu    0.75000   0.00000   0.21355   0.00000  Uiso   1.00
Cu260  Cu    0.75000   0.00000   0.11978   0.00000  Uiso   1.00
H261   H     0.50036   0.14439   0.04064   0.00000  Uiso   1.00
H262   H     0.95347   0.37101   0.08530   0.00000  Uiso   1.00
H263   H     0.94031   0.34684   0.02853   0.00000  Uiso   1.00
H264   H     0.97762   0.39323   0.03525   0.00000  Uiso   1.00
H265   H     0.53308   0.15565   0.27569   0.00000  Uiso   1.00
H266   H     0.96060   0.12358   0.24581   0.00000  Uiso   1.00
H267   H     0.93999   0.15269   0.29710   0.00000  Uiso   1.00
H268   H     0.97947   0.10839   0.30168   0.00000  Uiso   1.00
H269   H     0.75403   0.39240   0.03332   0.00000  Uiso   1.00
H270   H     0.83313   0.44688   0.05008   0.00000  Uiso   1.00
H271   H     0.82469   0.40845   0.00073   0.00000  Uiso   1.00
H272   H     0.58453   0.16148   0.06130   0.00000  Uiso   1.00
H273   H     0.82696   0.38741   0.05744   0.00000  Uiso   1.00
H274   H     0.75197   0.10506   0.29013   0.00000  Uiso   1.00
H275   H     0.82985   0.06364   0.32660   0.00000  Uiso   1.00
H276   H     0.81757   0.12243   0.32058   0.00000  Uiso   1.00
H277   H     0.83621   0.08751   0.27188   0.00000  Uiso   1.00
H278   H     0.78404   0.09541   0.05526   0.00000  Uiso   1.00
H279   H     0.71948   0.13405   0.08589   0.00000  Uiso   1.00
H280   H     0.68858   0.09424   0.05139   0.00000  Uiso   1.00
H281   H     0.72294   0.13412   0.02384   0.00000  Uiso   1.00
H282   H     0.78075   0.40448   0.27445   0.00000  Uiso   1.00
H283   H     0.57837   0.18613   0.00699   0.00000  Uiso   1.00
H284   H     0.70443   0.37836   0.24592   0.00000  Uiso   1.00
H285   H     0.68908   0.40347   0.30146   0.00000  Uiso   1.00
H286   H     0.72686   0.35705   0.29734   0.00000  Uiso   1.00
H287   H     0.92667   0.10384   0.02725   0.00000  Uiso   1.00
H288   H     0.92057   0.16264   0.04504   0.00000  Uiso   1.00
H289   H     0.87864   0.12284   0.05476   0.00000  Uiso   1.00
H290   H     0.99976   0.44372   0.19520   0.00000  Uiso   1.00
H291   H     0.51023   0.40141   0.14962   0.00000  Uiso   1.00
H292   H     0.54602   0.44900   0.16060   0.00000  Uiso   1.00
H293   H     0.69295   0.27867   0.09803   0.00000  Uiso   1.00
H294   H     0.56583   0.12736   0.01187   0.00000  Uiso   1.00
H295   H     0.66023   0.23447   0.11825   0.00000  Uiso   1.00
H296   H     0.67877   0.27753   0.15910   0.00000  Uiso   1.00
H297   H     0.87036   0.16706   0.28019   0.00000  Uiso   1.00
H298   H     0.82547   0.20537   0.27588   0.00000  Uiso   1.00
H299   H     0.87772   0.22649   0.28949   0.00000  Uiso   1.00
H300   H     0.68215   0.20665   0.26526   0.00000  Uiso   1.00
H301   H     0.65704   0.25559   0.24412   0.00000  Uiso   1.00
H302   H     0.68194   0.21639   0.20350   0.00000  Uiso   1.00
H303   H     0.88477   0.30719   0.06313   0.00000  Uiso   1.00
H304   H     0.82690   0.30227   0.06731   0.00000  Uiso   1.00
H305   H     0.51345   0.35729   0.30265   0.00000  Uiso   1.00
H306   H     0.85991   0.25311   0.06369   0.00000  Uiso   1.00
H307   H     0.95250   0.40309   0.29325   0.00000  Uiso   1.00
H308   H     0.94087   0.34546   0.27549   0.00000  Uiso   1.00
H309   H     0.89937   0.38692   0.27755   0.00000  Uiso   1.00
H310   H     0.51376   0.10415   0.17743   0.00000  Uiso   1.00
H311   H     0.54054   0.05164   0.15879   0.00000  Uiso   1.00
H312   H     0.99517   0.07064   0.12815   0.00000  Uiso   1.00
H313   H     0.63787   0.35976   0.05417   0.00000  Uiso   1.00
H314   H     0.69004   0.34922   0.03247   0.00000  Uiso   1.00
H315   H     0.67438   0.40628   0.04951   0.00000  Uiso   1.00
H316   H     0.58089   0.32981   0.00095   0.00000  Uiso   1.00
H317   H     0.74287   0.17387   0.20844   0.00000  Uiso   1.00
H318   H     0.76383   0.14506   0.15747   0.00000  Uiso   1.00
H319   H     0.78646   0.19883   0.17915   0.00000  Uiso   1.00
H320   H     0.93971   0.03135   0.08993   0.00000  Uiso   1.00
H321   H     0.90671   0.48676   0.10835   0.00000  Uiso   1.00
H322   H     0.92703   0.02685   0.15130   0.00000  Uiso   1.00
H323   H     0.62191   0.42491   0.27835   0.00000  Uiso   1.00
H324   H     0.57238   0.45547   0.26986   0.00000  Uiso   1.00
H325   H     0.62083   0.48505   0.28333   0.00000  Uiso   1.00
H326   H     0.85580   0.44907   0.26414   0.00000  Uiso   1.00
H327   H     0.58626   0.35357   0.27877   0.00000  Uiso   1.00
H328   H     0.86727   0.00639   0.25279   0.00000  Uiso   1.00
H329   H     0.90964   0.47122   0.27098   0.00000  Uiso   1.00
H330   H     0.61713   0.08413   0.05163   0.00000  Uiso   1.00
H331   H     0.57312   0.04512   0.05840   0.00000  Uiso   1.00
H332   H     0.62483   0.02492   0.04138   0.00000  Uiso   1.00
H333   H     0.63695   0.13385   0.29693   0.00000  Uiso   1.00
H334   H     0.67659   0.09111   0.30357   0.00000  Uiso   1.00
H335   H     0.63263   0.07871   0.26645   0.00000  Uiso   1.00
H336   H     0.77215   0.35265   0.20074   0.00000  Uiso   1.00
H337   H     0.78798   0.29757   0.17546   0.00000  Uiso   1.00
H338   H     0.58527   0.29336   0.28269   0.00000  Uiso   1.00
H339   H     0.73961   0.32375   0.15812   0.00000  Uiso   1.00
H340   H     0.53122   0.34610   0.05678   0.00000  Uiso   1.00
N341   N     0.50000   0.25000   0.28402   0.00000  Uiso   1.00
N342   N     0.77193   0.07760   0.29033   0.00000  Uiso   1.00
N343   N     0.75435   0.08060   0.05492   0.00000  Uiso   1.00
N344   N     0.75121   0.41929   0.27843   0.00000  Uiso   1.00
N345   N     0.50000   0.25000   0.04931   0.00000  Uiso   1.00
N346   N     0.75000   0.00000   0.28402   0.00000  Uiso   1.00
N347   N     0.75000   0.00000   0.04931   0.00000  Uiso   1.00
N348   N     0.52030   0.17187   0.04273   0.00000  Uiso   1.00
N349   N     0.52572   0.32650   0.29166   0.00000  Uiso   1.00
N350   N     0.50175   0.33083   0.05454   0.00000  Uiso   1.00
N351   N     0.50296   0.16942   0.27846   0.00000  Uiso   1.00
N352   N     0.77008   0.42154   0.04283   0.00000  Uiso   1.00
O353   O     0.54509   0.20491   0.20625   0.00000  Uiso   1.00
O354   O     0.70492   0.04509   0.12709   0.00000  Uiso   1.00
O355   O     0.70492   0.04509   0.20625   0.00000  Uiso   1.00
O356   O     0.79509   0.45491   0.12709   0.00000  Uiso   1.00
O357   O     0.70492   0.45491   0.12709   0.00000  Uiso   1.00
O358   O     0.79509   0.04509   0.20625   0.00000  Uiso   1.00
O359   O     0.79509   0.04509   0.12709   0.00000  Uiso   1.00
O360   O     0.70492   0.45491   0.20625   0.00000  Uiso   1.00
O361   O     0.93516   0.11956   0.09672   0.00000  Uiso   1.00
O362   O     0.54676   0.39795   0.20944   0.00000  Uiso   1.00
O363   O     0.62997   0.29521   0.11278   0.00000  Uiso   1.00
O364   O     0.95492   0.29509   0.12709   0.00000  Uiso   1.00
O365   O     0.86800   0.20658   0.22105   0.00000  Uiso   1.00
O366   O     0.62355   0.19673   0.23291   0.00000  Uiso   1.00
O367   O     0.86091   0.28786   0.12698   0.00000  Uiso   1.00
O368   O     0.94534   0.39059   0.22321   0.00000  Uiso   1.00
O369   O     0.54957   0.10646   0.11671   0.00000  Uiso   1.00
O370   O     0.68977   0.36479   0.10238   0.00000  Uiso   1.00
O371   O     0.80017   0.14312   0.21805   0.00000  Uiso   1.00
O372   O     0.87758   0.04850   0.10727   0.00000  Uiso   1.00
O373   O     0.61613   0.45918   0.21618   0.00000  Uiso   1.00
O374   O     0.89050   0.46147   0.20261   0.00000  Uiso   1.00
O375   O     0.95492   0.29509   0.20625   0.00000  Uiso   1.00
O376   O     0.61879   0.04428   0.11041   0.00000  Uiso   1.00
O377   O     0.67960   0.12323   0.24235   0.00000  Uiso   1.00
O378   O     0.79389   0.35139   0.13207   0.00000  Uiso   1.00
O379   O     0.54509   0.20491   0.12709   0.00000  Uiso   1.00
O380   O     0.95492   0.20491   0.12709   0.00000  Uiso   1.00
O381   O     0.54509   0.29509   0.20625   0.00000  Uiso   1.00
O382   O     0.54509   0.29509   0.12709   0.00000  Uiso   1.00
O383   O     0.95492   0.20491   0.20625   0.00000  Uiso   1.00
O384   O     0.79509   0.45491   0.20625   0.00000  Uiso   1.00
C385   C     0.05908   0.69030   0.16625   0.00000  Uiso   1.00
C386   C     0.00552   0.78918   0.31114   0.00000  Uiso   1.00
C387   C     0.00013   0.78960   0.02721   0.00000  Uiso   1.00
C388   C     0.49954   0.71037   0.30601   0.00000  Uiso   1.00
C389   C     0.25406   0.96054   0.02230   0.00000  Uiso   1.00
C390   C     0.25488   0.53929   0.31099   0.00000  Uiso   1.00
C391   C     0.25059   0.53968   0.02729   0.00000  Uiso   1.00
C392   C     0.24954   0.96035   0.30603   0.00000  Uiso   1.00
C393   C     0.40594   0.62174   0.13250   0.00000  Uiso   1.00
C394   C     0.08619   0.88597   0.19129   0.00000  Uiso   1.00
C395   C     0.12786   0.83517   0.13991   0.00000  Uiso   1.00
C396   C     0.44030   0.80910   0.16747   0.00000  Uiso   1.00
C397   C     0.37104   0.66564   0.19563   0.00000  Uiso   1.00
C398   C     0.12474   0.66075   0.20009   0.00000  Uiso   1.00
C399   C     0.36758   0.83130   0.14537   0.00000  Uiso   1.00
C400   C     0.41060   0.88295   0.19458   0.00000  Uiso   1.00
C401   C     0.08782   0.61628   0.13880   0.00000  Uiso   1.00
C402   C     0.15794   0.86956   0.13527   0.00000  Uiso   1.00
C403   C     0.33763   0.63403   0.19422   0.00000  Uiso   1.00
C404   C     0.37658   0.58677   0.13698   0.00000  Uiso   1.00
C405   C     0.12010   0.91703   0.19335   0.00000  Uiso   1.00
C406   C     0.38052   0.91711   0.18963   0.00000  Uiso   1.00
C407   C     0.44016   0.69107   0.16592   0.00000  Uiso   1.00
C408   C     0.12145   0.58488   0.13662   0.00000  Uiso   1.00
C409   C     0.15384   0.62535   0.20365   0.00000  Uiso   1.00
C410   C     0.33442   0.86316   0.14722   0.00000  Uiso   1.00
C411   C     0.09193   0.84383   0.16779   0.00000  Uiso   1.00
C412   C     0.40526   0.65891   0.16458   0.00000  Uiso   1.00
C413   C     0.40564   0.84156   0.16932   0.00000  Uiso   1.00
C414   C     0.09214   0.65622   0.16662   0.00000  Uiso   1.00
C415   C     0.34230   0.59340   0.16766   0.00000  Uiso   1.00
C416   C     0.15573   0.90850   0.16477   0.00000  Uiso   1.00
C417   C     0.15491   0.59057   0.16883   0.00000  Uiso   1.00
C418   C     0.05842   0.81034   0.16732   0.00000  Uiso   1.00
C419   C     0.34254   0.90696   0.16564   0.00000  Uiso   1.00
C420   C     0.06422   0.66118   0.03000   0.00000  Uiso   1.00
C421   C     0.07177   0.82568   0.29718   0.00000  Uiso   1.00
C422   C     0.46640   0.86178   0.05036   0.00000  Uiso   1.00
C423   C     0.46888   0.63701   0.28127   0.00000  Uiso   1.00
C424   C     0.31590   0.91595   0.03745   0.00000  Uiso   1.00
C425   C     0.31586   0.58830   0.30312   0.00000  Uiso   1.00
C426   C     0.21942   0.61222   0.05352   0.00000  Uiso   1.00
C427   C     0.21596   0.88819   0.28133   0.00000  Uiso   1.00
C428   C     0.41396   0.62766   0.05459   0.00000  Uiso   1.00
C429   C     0.30915   0.94049   0.16608   0.00000  Uiso   1.00
C430   C     0.02521   0.92391   0.17698   0.00000  Uiso   1.00
C431   C     0.16729   0.77100   0.12287   0.00000  Uiso   1.00
C432   C     0.35994   0.70039   0.26846   0.00000  Uiso   1.00
C433   C     0.16314   0.71925   0.23615   0.00000  Uiso   1.00
C434   C     0.35799   0.78833   0.07823   0.00000  Uiso   1.00
C435   C     0.43363   0.88099   0.26896   0.00000  Uiso   1.00
C436   C     0.02407   0.58227   0.14704   0.00000  Uiso   1.00
C437   C     0.17183   0.87043   0.05809   0.00000  Uiso   1.00
C438   C     0.27253   0.66623   0.18898   0.00000  Uiso   1.00
C439   C     0.41459   0.52289   0.11507   0.00000  Uiso   1.00
C440   C     0.18996   0.55865   0.16737   0.00000  Uiso   1.00
C441   C     0.10733   0.95523   0.26379   0.00000  Uiso   1.00
C442   C     0.38021   0.97164   0.24963   0.00000  Uiso   1.00
C443   C     0.10785   0.55063   0.06369   0.00000  Uiso   1.00
C444   C     0.15493   0.60617   0.27849   0.00000  Uiso   1.00
C445   C     0.27299   0.83048   0.16848   0.00000  Uiso   1.00
C446   C     0.19044   0.94079   0.16594   0.00000  Uiso   1.00
C447   C     0.30895   0.55976   0.16727   0.00000  Uiso   1.00
C448   C     0.00382   0.71060   0.02232   0.00000  Uiso   1.00
Cu449  Cu    0.00000   0.75000   0.21355   0.00000  Uiso   1.00
Cu450  Cu    0.00000   0.75000   0.11978   0.00000  Uiso   1.00
Cu451  Cu    0.25000   0.50000   0.21355   0.00000  Uiso   1.00
Cu452  Cu    0.25000   0.50000   0.11978   0.00000  Uiso   1.00
H453   H     0.00036   0.64439   0.04064   0.00000  Uiso   1.00
H454   H     0.45347   0.87101   0.08530   0.00000  Uiso   1.00
H455   H     0.44031   0.84684   0.02853   0.00000  Uiso   1.00
H456   H     0.47762   0.89323   0.03525   0.00000  Uiso   1.00
H457   H     0.03308   0.65565   0.27569   0.00000  Uiso   1.00
H458   H     0.46060   0.62358   0.24581   0.00000  Uiso   1.00
H459   H     0.43999   0.65269   0.29710   0.00000  Uiso   1.00
H460   H     0.47947   0.60839   0.30168   0.00000  Uiso   1.00
H461   H     0.25403   0.89240   0.03332   0.00000  Uiso   1.00
H462   H     0.33313   0.94688   0.05008   0.00000  Uiso   1.00
H463   H     0.32469   0.90845   0.00073   0.00000  Uiso   1.00
H464   H     0.08453   0.66148   0.06130   0.00000  Uiso   1.00
H465   H     0.32696   0.88741   0.05744   0.00000  Uiso   1.00
H466   H     0.25197   0.60506   0.29013   0.00000  Uiso   1.00
H467   H     0.32985   0.56364   0.32660   0.00000  Uiso   1.00
H468   H     0.31757   0.62243   0.32058   0.00000  Uiso   1.00
H469   H     0.33621   0.58751   0.27188   0.00000  Uiso   1.00
H470   H     0.28404   0.59541   0.05526   0.00000  Uiso   1.00
H471   H     0.21948   0.63405   0.08589   0.00000  Uiso   1.00
H472   H     0.18858   0.59424   0.05139   0.00000  Uiso   1.00
H473   H     0.22294   0.63412   0.02384   0.00000  Uiso   1.00
H474   H     0.28075   0.90448   0.27445   0.00000  Uiso   1.00
H475   H     0.07837   0.68613   0.00699   0.00000  Uiso   1.00
H476   H     0.20443   0.87836   0.24592   0.00000  Uiso   1.00
H477   H     0.18908   0.90347   0.30146   0.00000  Uiso   1.00
H478   H     0.22686   0.85705   0.29734   0.00000  Uiso   1.00
H479   H     0.42667   0.60384   0.02725   0.00000  Uiso   1.00
H480   H     0.42057   0.66264   0.04504   0.00000  Uiso   1.00
H481   H     0.37864   0.62284   0.05476   0.00000  Uiso   1.00
H482   H     0.49976   0.94372   0.19520   0.00000  Uiso   1.00
H483   H     0.01023   0.90141   0.14962   0.00000  Uiso   1.00
H484   H     0.04602   0.94900   0.16060   0.00000  Uiso   1.00
H485   H     0.19295   0.77867   0.09803   0.00000  Uiso   1.00
H486   H     0.06583   0.62736   0.01187   0.00000  Uiso   1.00
H487   H     0.16023   0.73447   0.11825   0.00000  Uiso   1.00
H488   H     0.17877   0.77753   0.15910   0.00000  Uiso   1.00
H489   H     0.37036   0.66706   0.28019   0.00000  Uiso   1.00
H490   H     0.32547   0.70537   0.27588   0.00000  Uiso   1.00
H491   H     0.37772   0.72649   0.28949   0.00000  Uiso   1.00
H492   H     0.18215   0.70665   0.26526   0.00000  Uiso   1.00
H493   H     0.15704   0.75559   0.24412   0.00000  Uiso   1.00
H494   H     0.18194   0.71639   0.20350   0.00000  Uiso   1.00
H495   H     0.38477   0.80719   0.06313   0.00000  Uiso   1.00
H496   H     0.32690   0.80227   0.06731   0.00000  Uiso   1.00
H497   H     0.01345   0.85729   0.30265   0.00000  Uiso   1.00
H498   H     0.35991   0.75311   0.06369   0.00000  Uiso   1.00
H499   H     0.45250   0.90309   0.29325   0.00000  Uiso   1.00
H500   H     0.44087   0.84546   0.27549   0.00000  Uiso   1.00
H501   H     0.39937   0.88692   0.27755   0.00000  Uiso   1.00
H502   H     0.01376   0.60415   0.17743   0.00000  Uiso   1.00
H503   H     0.04054   0.55164   0.15879   0.00000  Uiso   1.00
H504   H     0.49517   0.57064   0.12815   0.00000  Uiso   1.00
H505   H     0.13787   0.85976   0.05417   0.00000  Uiso   1.00
H506   H     0.19004   0.84922   0.03247   0.00000  Uiso   1.00
H507   H     0.17438   0.90628   0.04951   0.00000  Uiso   1.00
H508   H     0.08089   0.82981   0.00095   0.00000  Uiso   1.00
H509   H     0.24287   0.67387   0.20844   0.00000  Uiso   1.00
H510   H     0.26383   0.64506   0.15747   0.00000  Uiso   1.00
H511   H     0.28646   0.69883   0.17915   0.00000  Uiso   1.00
H512   H     0.43971   0.53135   0.08993   0.00000  Uiso   1.00
H513   H     0.40671   0.98676   0.10835   0.00000  Uiso   1.00
H514   H     0.42703   0.52685   0.15130   0.00000  Uiso   1.00
H515   H     0.12191   0.92491   0.27835   0.00000  Uiso   1.00
H516   H     0.07238   0.95547   0.26986   0.00000  Uiso   1.00
H517   H     0.12083   0.98505   0.28333   0.00000  Uiso   1.00
H518   H     0.35580   0.94907   0.26414   0.00000  Uiso   1.00
H519   H     0.08626   0.85357   0.27877   0.00000  Uiso   1.00
H520   H     0.36727   0.50639   0.25279   0.00000  Uiso   1.00
H521   H     0.40964   0.97122   0.27098   0.00000  Uiso   1.00
H522   H     0.11713   0.58413   0.05163   0.00000  Uiso   1.00
H523   H     0.07312   0.54512   0.05840   0.00000  Uiso   1.00
H524   H     0.12483   0.52492   0.04138   0.00000  Uiso   1.00
H525   H     0.13695   0.63385   0.29693   0.00000  Uiso   1.00
H526   H     0.17659   0.59111   0.30357   0.00000  Uiso   1.00
H527   H     0.13263   0.57871   0.26645   0.00000  Uiso   1.00
H528   H     0.27215   0.85265   0.20074   0.00000  Uiso   1.00
H529   H     0.28798   0.79757   0.17546   0.00000  Uiso   1.00
H530   H     0.08527   0.79336   0.28269   0.00000  Uiso   1.00
H531   H     0.23961   0.82375   0.15812   0.00000  Uiso   1.00
H532   H     0.03122   0.84610   0.05678   0.00000  Uiso   1.00
N533   N     0.00000   0.75000   0.28402   0.00000  Uiso   1.00
N534   N     0.27193   0.57760   0.29033   0.00000  Uiso   1.00
N535   N     0.25435   0.58060   0.05492   0.00000  Uiso   1.00
N536   N     0.25121   0.91929   0.27843   0.00000  Uiso   1.00
N537   N     0.00000   0.75000   0.04931   0.00000  Uiso   1.00
N538   N     0.25000   0.50000   0.28402   0.00000  Uiso   1.00
N539   N     0.25000   0.50000   0.04931   0.00000  Uiso   1.00
N540   N     0.02030   0.67187   0.04273   0.00000  Uiso   1.00
N541   N     0.02572   0.82650   0.29166   0.00000  Uiso   1.00
N542   N     0.00175   0.83083   0.05454   0.00000  Uiso   1.00
N543   N     0.00296   0.66942   0.27846   0.00000  Uiso   1.00
N544   N     0.27008   0.92154   0.04283   0.00000  Uiso   1.00
O545   O     0.04509   0.70491   0.20625   0.00000  Uiso   1.00
O546   O     0.20492   0.54509   0.12709   0.00000  Uiso   1.00
O547   O     0.20492   0.54509   0.20625   0.00000  Uiso   1.00
O548   O     0.29509   0.95491   0.12709   0.00000  Uiso   1.00
O549   O     0.20492   0.95491   0.12709   0.00000  Uiso   1.00
O550   O     0.29509   0.54509   0.20625   0.00000  Uiso   1.00
O551   O     0.29509   0.54509   0.12709   0.00000  Uiso   1.00
O552   O     0.20492   0.95491   0.20625   0.00000  Uiso   1.00
O553   O     0.43516   0.61956   0.09672   0.00000  Uiso   1.00
O554   O     0.04676   0.89795   0.20944   0.00000  Uiso   1.00
O555   O     0.12997   0.79521   0.11278   0.00000  Uiso   1.00
O556   O     0.45492   0.79509   0.12709   0.00000  Uiso   1.00
O557   O     0.36800   0.70658   0.22105   0.00000  Uiso   1.00
O558   O     0.12355   0.69673   0.23291   0.00000  Uiso   1.00
O559   O     0.36091   0.78786   0.12698   0.00000  Uiso   1.00
O560   O     0.44534   0.89059   0.22321   0.00000  Uiso   1.00
O561   O     0.04957   0.60646   0.11671   0.00000  Uiso   1.00
O562   O     0.18977   0.86479   0.10238   0.00000  Uiso   1.00
O563   O     0.30017   0.64312   0.21805   0.00000  Uiso   1.00
O564   O     0.37758   0.54850   0.10727   0.00000  Uiso   1.00
O565   O     0.11613   0.95918   0.21618   0.00000  Uiso   1.00
O566   O     0.39050   0.96147   0.20261   0.00000  Uiso   1.00
O567   O     0.45492   0.79509   0.20625   0.00000  Uiso   1.00
O568   O     0.11879   0.54428   0.11041   0.00000  Uiso   1.00
O569   O     0.17960   0.62323   0.24235   0.00000  Uiso   1.00
O570   O     0.29389   0.85139   0.13207   0.00000  Uiso   1.00
O571   O     0.04509   0.70491   0.12709   0.00000  Uiso   1.00
O572   O     0.45492   0.70491   0.12709   0.00000  Uiso   1.00
O573   O     0.04509   0.79509   0.20625   0.00000  Uiso   1.00
O574   O     0.04509   0.79509   0.12709   0.00000  Uiso   1.00
O575   O     0.45492   0.70491   0.20625   0.00000  Uiso   1.00
O576   O     0.29509   0.95491   0.20625   0.00000  Uiso   1.00
C577   C     0.55908   0.69030   0.16625   0.00000  Uiso   1.00
C578   C     0.50552   0.78918   0.31114   0.00000  Uiso   1.00
C579   C     0.50013   0.78960   0.02721   0.00000  Uiso   1.00
C580   C     0.99954   0.71037   0.30601   0.00000  Uiso   1.00
C581   C     0.75406   0.96054   0.02230   0.00000  Uiso   1.00
C582   C     0.75488   0.53929   0.31099   0.00000  Uiso   1.00
C583   C     0.75059   0.53968   0.02729   0.00000  Uiso   1.00
C584   C     0.74954   0.96035   0.30603   0.00000  Uiso   1.00
C585   C     0.90594   0.62174   0.13250   0.00000  Uiso   1.00
C586   C     0.58619   0.88597   0.19129   0.00000  Uiso   1.00
C587   C     0.62786   0.83517   0.13991   0.00000  Uiso   1.00
C588   C     0.94030   0.80910   0.16747   0.00000  Uiso   1.00
C589   C     0.87104   0.66564   0.19563   0.00000  Uiso   1.00
C590   C     0.62474   0.66075   0.20009   0.00000  Uiso   1.00
C591   C     0.86758   0.83130   0.14537   0.00000  Uiso   1.00
C592   C     0.91060   0.88295   0.19458   0.00000  Uiso   1.00
C593   C     0.58782   0.61628   0.13880   0.00000  Uiso   1.00
C594   C     0.65794   0.86956   0.13527   0.00000  Uiso   1.00
C595   C     0.83763   0.63403   0.19422   0.00000  Uiso   1.00
C596   C     0.87658   0.58677   0.13698   0.00000  Uiso   1.00
C597   C     0.62010   0.91703   0.19335   0.00000  Uiso   1.00
C598   C     0.88052   0.91711   0.18963   0.00000  Uiso   1.00
C599   C     0.94016   0.69107   0.16592   0.00000  Uiso   1.00
C600   C     0.62145   0.58488   0.13662   0.00000  Uiso   1.00
C601   C     0.65384   0.62535   0.20365   0.00000  Uiso   1.00
C602   C     0.83442   0.86316   0.14722   0.00000  Uiso   1.00
C603   C     0.59193   0.84383   0.16779   0.00000  Uiso   1.00
C604   C     0.90526   0.65891   0.16458   0.00000  Uiso   1.00
C605   C     0.90564   0.84156   0.16932   0.00000  Uiso   1.00
C606   C     0.59214   0.65622   0.16662   0.00000  Uiso   1.00
C607   C     0.84230   0.59340   0.16766   0.00000  Uiso   1.00
C608   C     0.65573   0.90850   0.16477   0.00000  Uiso   1.00
C609   C     0.65491   0.59057   0.16883   0.00000  Uiso   1.00
C610   C     0.55842   0.81034   0.16732   0.00000  Uiso   1.00
C611   C     0.84254   0.90696   0.16564   0.00000  Uiso   1.00
C612   C     0.56422   0.66118   0.03000   0.00000  Uiso   1.00
C613   C     0.57177   0.82568   0.29718   0.00000  Uiso   1.00
C614   C     0.96640   0.86178   0.05036   0.00000  Uiso   1.00
C615   C     0.96888   0.63701   0.28127   0.00000  Uiso   1.00
C616   C     0.81590   0.91595   0.03745   0.00000  Uiso   1.00
C617   C     0.81586   0.58830   0.30312   0.00000  Uiso   1.00
C618   C     0.71942   0.61222   0.05352   0.00000  Uiso   1.00
C619   C     0.71596   0.88819   0.28133   0.00000  Uiso   1.00
C620   C     0.91396   0.62766   0.05459   0.00000  Uiso   1.00
C621   C     0.80915   0.94049   0.16608   0.00000  Uiso   1.00
C622   C     0.52521   0.92391   0.17698   0.00000  Uiso   1.00
C623   C     0.66729   0.77100   0.12287   0.00000  Uiso   1.00
C624   C     0.85994   0.70039   0.26846   0.00000  Uiso   1.00
C625   C     0.66314   0.71925   0.23615   0.00000  Uiso   1.00
C626   C     0.85799   0.78833   0.07823   0.00000  Uiso   1.00
C627   C     0.93363   0.88099   0.26896   0.00000  Uiso   1.00
C628   C     0.52407   0.58227   0.14704   0.00000  Uiso   1.00
C629   C     0.67183   0.87043   0.05809   0.00000  Uiso   1.00
C630   C     0.77253   0.66623   0.18898   0.00000  Uiso   1.00
C631   C     0.91459   0.52289   0.11507   0.00000  Uiso   1.00
C632   C     0.68996   0.55865   0.16737   0.00000  Uiso   1.00
C633   C     0.60733   0.95523   0.26379   0.00000  Uiso   1.00
C634   C     0.88021   0.97164   0.24963   0.00000  Uiso   1.00
C635   C     0.60785   0.55063   0.06369   0.00000  Uiso   1.00
C636   C     0.65493   0.60617   0.27849   0.00000  Uiso   1.00
C637   C     0.77299   0.83048   0.16848   0.00000  Uiso   1.00
C638   C     0.69044   0.94079   0.16594   0.00000  Uiso   1.00
C639   C     0.80895   0.55976   0.16727   0.00000  Uiso   1.00
C640   C     0.50382   0.71060   0.02232   0.00000  Uiso   1.00
Cu641  Cu    0.50000   0.75000   0.21355   0.00000  Uiso   1.00
Cu642  Cu    0.50000   0.75000   0.11978   0.00000  Uiso   1.00
Cu643  Cu    0.75000   0.50000   0.21355   0.00000  Uiso   1.00
Cu644  Cu    0.75000   0.50000   0.11978   0.00000  Uiso   1.00
H645   H     0.50036   0.64439   0.04064   0.00000  Uiso   1.00
H646   H     0.95347   0.87101   0.08530   0.00000  Uiso   1.00
H647   H     0.94031   0.84684   0.02853   0.00000  Uiso   1.00
H648   H     0.97762   0.89323   0.03525   0.00000  Uiso   1.00
H649   H     0.53308   0.65565   0.27569   0.00000  Uiso   1.00
H650   H     0.96060   0.62358   0.24581   0.00000  Uiso   1.00
H651   H     0.93999   0.65269   0.29710   0.00000  Uiso   1.00
H652   H     0.97947   0.60839   0.30168   0.00000  Uiso   1.00
H653   H     0.75403   0.89240   0.03332   0.00000  Uiso   1.00
H654   H     0.83313   0.94688   0.05008   0.00000  Uiso   1.00
H655   H     0.82469   0.90845   0.00073   0.00000  Uiso   1.00
H656   H     0.58453   0.66148   0.06130   0.00000  Uiso   1.00
H657   H     0.82696   0.88741   0.05744   0.00000  Uiso   1.00
H658   H     0.75197   0.60506   0.29013   0.00000  Uiso   1.00
H659   H     0.82985   0.56364   0.32660   0.00000  Uiso   1.00
H660   H     0.81757   0.62243   0.32058   0.00000  Uiso   1.00
H661   H     0.83621   0.58751   0.27188   0.00000  Uiso   1.00
H662   H     0.78404   0.59541   0.05526   0.00000  Uiso   1.00
H663   H     0.71948   0.63405   0.08589   0.00000  Uiso   1.00
H664   H     0.68858   0.59424   0.05139   0.00000  Uiso   1.00
H665   H     0.72294   0.63412   0.02384   0.00000  Uiso   1.00
H666   H     0.78075   0.90448   0.27445   0.00000  Uiso   1.00
H667   H     0.57837   0.68613   0.00699   0.00000  Uiso   1.00
H668   H     0.70443   0.87836   0.24592   0.00000  Uiso   1.00
H669   H     0.68908   0.90347   0.30146   0.00000  Uiso   1.00
H670   H     0.72686   0.85705   0.29734   0.00000  Uiso   1.00
H671   H     0.92667   0.60384   0.02725   0.00000  Uiso   1.00
H672   H     0.92057   0.66264   0.04504   0.00000  Uiso   1.00
H673   H     0.87864   0.62284   0.05476   0.00000  Uiso   1.00
H674   H     0.99976   0.94372   0.19520   0.00000  Uiso   1.00
H675   H     0.51023   0.90141   0.14962   0.00000  Uiso   1.00
H676   H     0.54602   0.94900   0.16060   0.00000  Uiso   1.00
H677   H     0.69295   0.77867   0.09803   0.00000  Uiso   1.00
H678   H     0.56583   0.62736   0.01187   0.00000  Uiso   1.00
H679   H     0.66023   0.73447   0.11825   0.00000  Uiso   1.00
H680   H     0.67877   0.77753   0.15910   0.00000  Uiso   1.00
H681   H     0.87036   0.66706   0.28019   0.00000  Uiso   1.00
H682   H     0.82547   0.70537   0.27588   0.00000  Uiso   1.00
H683   H     0.87772   0.72649   0.28949   0.00000  Uiso   1.00
H684   H     0.68215   0.70665   0.26526   0.00000  Uiso   1.00
H685   H     0.65704   0.75559   0.24412   0.00000  Uiso   1.00
H686   H     0.68194   0.71639   0.20350   0.00000  Uiso   1.00
H687   H     0.88477   0.80719   0.06313   0.00000  Uiso   1.00
H688   H     0.82690   0.80227   0.06731   0.00000  Uiso   1.00
H689   H     0.51345   0.85729   0.30265   0.00000  Uiso   1.00
H690   H     0.85991   0.75311   0.06369   0.00000  Uiso   1.00
H691   H     0.95250   0.90309   0.29325   0.00000  Uiso   1.00
H692   H     0.94087   0.84546   0.27549   0.00000  Uiso   1.00
H693   H     0.89937   0.88692   0.27755   0.00000  Uiso   1.00
H694   H     0.51376   0.60415   0.17743   0.00000  Uiso   1.00
H695   H     0.54054   0.55164   0.15879   0.00000  Uiso   1.00
H696   H     0.99517   0.57064   0.12815   0.00000  Uiso   1.00
H697   H     0.63787   0.85976   0.05417   0.00000  Uiso   1.00
H698   H     0.69004   0.84922   0.03247   0.00000  Uiso   1.00
H699   H     0.67438   0.90628   0.04951   0.00000  Uiso   1.00
H700   H     0.58089   0.82981   0.00095   0.00000  Uiso   1.00
H701   H     0.74287   0.67387   0.20844   0.00000  Uiso   1.00
H702   H     0.76383   0.64506   0.15747   0.00000  Uiso   1.00
H703   H     0.78646   0.69883   0.17915   0.00000  Uiso   1.00
H704   H     0.93971   0.53135   0.08993   0.00000  Uiso   1.00
H705   H     0.90671   0.98676   0.10835   0.00000  Uiso   1.00
H706   H     0.92703   0.52685   0.15130   0.00000  Uiso   1.00
H707   H     0.62191   0.92491   0.27835   0.00000  Uiso   1.00
H708   H     0.57238   0.95547   0.26986   0.00000  Uiso   1.00
H709   H     0.62083   0.98505   0.28333   0.00000  Uiso   1.00
H710   H     0.85580   0.94907   0.26414   0.00000  Uiso   1.00
H711   H     0.58626   0.85357   0.27877   0.00000  Uiso   1.00
H712   H     0.86727   0.50639   0.25279   0.00000  Uiso   1.00
H713   H     0.90964   0.97122   0.27098   0.00000  Uiso   1.00
H714   H     0.61713   0.58413   0.05163   0.00000  Uiso   1.00
H715   H     0.57312   0.54512   0.05840   0.00000  Uiso   1.00
H716   H     0.62483   0.52492   0.04138   0.00000  Uiso   1.00
H717   H     0.63695   0.63385   0.29693   0.00000  Uiso   1.00
H718   H     0.67659   0.59111   0.30357   0.00000  Uiso   1.00
H719   H     0.63263   0.57871   0.26645   0.00000  Uiso   1.00
H720   H     0.77215   0.85265   0.20074   0.00000  Uiso   1.00
H721   H     0.78798   0.79757   0.17546   0.00000  Uiso   1.00
H722   H     0.58527   0.79336   0.28269   0.00000  Uiso   1.00
H723   H     0.73961   0.82375   0.15812   0.00000  Uiso   1.00
H724   H     0.53122   0.84610   0.05678   0.00000  Uiso   1.00
N725   N     0.50000   0.75000   0.28402   0.00000  Uiso   1.00
N726   N     0.77193   0.57760   0.29033   0.00000  Uiso   1.00
N727   N     0.75435   0.58060   0.05492   0.00000  Uiso   1.00
N728   N     0.75121   0.91929   0.27843   0.00000  Uiso   1.00
N729   N     0.50000   0.75000   0.04931   0.00000  Uiso   1.00
N730   N     0.75000   0.50000   0.28402   0.00000  Uiso   1.00
N731   N     0.75000   0.50000   0.04931   0.00000  Uiso   1.00
N732   N     0.52030   0.67187   0.04273   0.00000  Uiso   1.00
N733   N     0.52572   0.82650   0.29166   0.00000  Uiso   1.00
N734   N     0.50175   0.83083   0.05454   0.00000  Uiso   1.00
N735   N     0.50296   0.66942   0.27846   0.00000  Uiso   1.00
N736   N     0.77008   0.92154   0.04283   0.00000  Uiso   1.00
O737   O     0.54509   0.70491   0.20625   0.00000  Uiso   1.00
O738   O     0.70492   0.54509   0.12709   0.00000  Uiso   1.00
O739   O     0.70492   0.54509   0.20625   0.00000  Uiso   1.00
O740   O     0.79509   0.95491   0.12709   0.00000  Uiso   1.00
O741   O     0.70492   0.95491   0.12709   0.00000  Uiso   1.00
O742   O     0.79509   0.54509   0.20625   0.00000  Uiso   1.00
O743   O     0.79509   0.54509   0.12709   0.00000  Uiso   1.00
O744   O     0.70492   0.95491   0.20625   0.00000  Uiso   1.00
O745   O     0.93516   0.61956   0.09672   0.00000  Uiso   1.00
O746   O     0.54676   0.89795   0.20944   0.00000  Uiso   1.00
O747   O     0.62997   0.79521   0.11278   0.00000  Uiso   1.00
O748   O     0.95492   0.79509   0.12709   0.00000  Uiso   1.00
O749   O     0.86800   0.70658   0.22105   0.00000  Uiso   1.00
O750   O     0.62355   0.69673   0.23291   0.00000  Uiso   1.00
O751   O     0.86091   0.78786   0.12698   0.00000  Uiso   1.00
O752   O     0.94534   0.89059   0.22321   0.00000  Uiso   1.00
O753   O     0.54957   0.60646   0.11671   0.00000  Uiso   1.00
O754   O     0.68977   0.86479   0.10238   0.00000  Uiso   1.00
O755   O     0.80017   0.64312   0.21805   0.00000  Uiso   1.00
O756   O     0.87758   0.54850   0.10727   0.00000  Uiso   1.00
O757   O     0.61613   0.95918   0.21618   0.00000  Uiso   1.00
O758   O     0.89050   0.96147   0.20261   0.00000  Uiso   1.00
O759   O     0.95492   0.79509   0.20625   0.00000  Uiso   1.00
O760   O     0.61879   0.54428   0.11041   0.00000  Uiso   1.00
O761   O     0.67960   0.62323   0.24235   0.00000  Uiso   1.00
O762   O     0.79389   0.85139   0.13207   0.00000  Uiso   1.00
O763   O     0.54509   0.70491   0.12709   0.00000  Uiso   1.00
O764   O     0.95492   0.70491   0.12709   0.00000  Uiso   1.00
O765   O     0.54509   0.79509   0.20625   0.00000  Uiso   1.00
O766   O     0.54509   0.79509   0.12709   0.00000  Uiso   1.00
O767   O     0.95492   0.70491   0.20625   0.00000  Uiso   1.00
O768   O     0.79509   0.95491   0.20625   0.00000  Uiso   1.00
C769   C     0.05908   0.19030   0.49959   0.00000  Uiso   1.00
C770   C     0.00552   0.28918   0.64447   0.00000  Uiso   1.00
C771   C     0.00013   0.28960   0.36055   0.00000  Uiso   1.00
C772   C     0.49954   0.21037   0.63934   0.00000  Uiso   1.00
C773   C     0.25406   0.46054   0.35563   0.00000  Uiso   1.00
C774   C     0.25488   0.03929   0.64432   0.00000  Uiso   1.00
C775   C     0.25059   0.03968   0.36063   0.00000  Uiso   1.00
C776   C     0.24954   0.46035   0.63937   0.00000  Uiso   1.00
C777   C     0.40594   0.12174   0.46583   0.00000  Uiso   1.00
C778   C     0.08619   0.38597   0.52462   0.00000  Uiso   1.00
C779   C     0.12786   0.33517   0.47324   0.00000  Uiso   1.00
C780   C     0.44030   0.30910   0.50080   0.00000  Uiso   1.00
C781   C     0.37104   0.16564   0.52896   0.00000  Uiso   1.00
C782   C     0.12474   0.16075   0.53342   0.00000  Uiso   1.00
C783   C     0.36758   0.33130   0.47870   0.00000  Uiso   1.00
C784   C     0.41060   0.38295   0.52791   0.00000  Uiso   1.00
C785   C     0.08782   0.11628   0.47213   0.00000  Uiso   1.00
C786   C     0.15794   0.36956   0.46860   0.00000  Uiso   1.00
C787   C     0.33763   0.13403   0.52756   0.00000  Uiso   1.00
C788   C     0.37658   0.08677   0.47032   0.00000  Uiso   1.00
C789   C     0.12010   0.41703   0.52668   0.00000  Uiso   1.00
C790   C     0.38052   0.41711   0.52297   0.00000  Uiso   1.00
C791   C     0.44016   0.19107   0.49925   0.00000  Uiso   1.00
C792   C     0.12145   0.08488   0.46996   0.00000  Uiso   1.00
C793   C     0.15384   0.12535   0.53698   0.00000  Uiso   1.00
C794   C     0.33442   0.36316   0.48056   0.00000  Uiso   1.00
C795   C     0.09193   0.34383   0.50112   0.00000  Uiso   1.00
C796   C     0.40526   0.15891   0.49791   0.00000  Uiso   1.00
C797   C     0.40564   0.34156   0.50265   0.00000  Uiso   1.00
C798   C     0.09214   0.15622   0.49995   0.00000  Uiso   1.00
C799   C     0.34230   0.09340   0.50099   0.00000  Uiso   1.00
C800   C     0.15573   0.40850   0.49811   0.00000  Uiso   1.00
C801   C     0.15491   0.09057   0.50216   0.00000  Uiso   1.00
C802   C     0.05842   0.31034   0.50065   0.00000  Uiso   1.00
C803   C     0.34254   0.40696   0.49897   0.00000  Uiso   1.00
C804   C     0.06422   0.16118   0.36334   0.00000  Uiso   1.00
C805   C     0.07177   0.32568   0.63051   0.00000  Uiso   1.00
C806   C     0.46640   0.36178   0.38369   0.00000  Uiso   1.00
C807   C     0.46888   0.13701   0.61460   0.00000  Uiso   1.00
C808   C     0.31590   0.41595   0.37078   0.00000  Uiso   1.00
C809   C     0.31586   0.08830   0.63645   0.00000  Uiso   1.00
C810   C     0.21942   0.11222   0.38686   0.00000  Uiso   1.00
C811   C     0.21596   0.38819   0.61466   0.00000  Uiso   1.00
C812   C     0.41396   0.12766   0.38792   0.00000  Uiso   1.00
C813   C     0.30915   0.44049   0.49941   0.00000  Uiso   1.00
C814   C     0.02521   0.42391   0.51032   0.00000  Uiso   1.00
C815   C     0.16729   0.27100   0.45621   0.00000  Uiso   1.00
C816   C     0.35994   0.20039   0.60180   0.00000  Uiso   1.00
C817   C     0.16314   0.21925   0.56949   0.00000  Uiso   1.00
C818   C     0.35799   0.28833   0.41157   0.00000  Uiso   1.00
C819   C     0.43363   0.38099   0.60229   0.00000  Uiso   1.00
C820   C     0.02407   0.08227   0.48038   0.00000  Uiso   1.00
C821   C     0.17183   0.37043   0.39143   0.00000  Uiso   1.00
C822   C     0.27253   0.16623   0.52232   0.00000  Uiso   1.00
C823   C     0.41459   0.02289   0.44840   0.00000  Uiso   1.00
C824   C     0.18996   0.05865   0.50071   0.00000  Uiso   1.00
C825   C     0.10733   0.45523   0.59712   0.00000  Uiso   1.00
C826   C     0.38021   0.47164   0.58296   0.00000  Uiso   1.00
C827   C     0.10785   0.05063   0.39702   0.00000  Uiso   1.00
C828   C     0.15493   0.10617   0.61183   0.00000  Uiso   1.00
C829   C     0.27299   0.33048   0.50181   0.00000  Uiso   1.00
C830   C     0.19044   0.44079   0.49927   0.00000  Uiso   1.00
C831   C     0.30895   0.05976   0.50061   0.00000  Uiso   1.00
C832   C     0.00382   0.21060   0.35565   0.00000  Uiso   1.00
Cu833  Cu    0.00000   0.25000   0.54689   0.00000  Uiso   1.00
Cu834  Cu    0.00000   0.25000   0.45311   0.00000  Uiso   1.00
Cu835  Cu    0.25000   0.00000   0.54689   0.00000  Uiso   1.00
Cu836  Cu    0.25000   0.00000   0.45311   0.00000  Uiso   1.00
H837   H     0.00036   0.14439   0.37397   0.00000  Uiso   1.00
H838   H     0.45347   0.37101   0.41864   0.00000  Uiso   1.00
H839   H     0.44031   0.34684   0.36186   0.00000  Uiso   1.00
H840   H     0.47762   0.39323   0.36859   0.00000  Uiso   1.00
H841   H     0.03308   0.15565   0.60902   0.00000  Uiso   1.00
H842   H     0.46060   0.12358   0.57914   0.00000  Uiso   1.00
H843   H     0.43999   0.15269   0.63044   0.00000  Uiso   1.00
H844   H     0.47947   0.10839   0.63501   0.00000  Uiso   1.00
H845   H     0.25403   0.39240   0.36665   0.00000  Uiso   1.00
H846   H     0.33313   0.44688   0.38342   0.00000  Uiso   1.00
H847   H     0.32469   0.40845   0.33406   0.00000  Uiso   1.00
H848   H     0.08453   0.16148   0.39463   0.00000  Uiso   1.00
H849   H     0.32696   0.38741   0.39077   0.00000  Uiso   1.00
H850   H     0.25197   0.10506   0.62346   0.00000  Uiso   1.00
H851   H     0.32985   0.06364   0.65993   0.00000  Uiso   1.00
H852   H     0.31757   0.12243   0.65391   0.00000  Uiso   1.00
H853   H     0.33621   0.08751   0.60521   0.00000  Uiso   1.00
H854   H     0.28404   0.09541   0.38859   0.00000  Uiso   1.00
H855   H     0.21948   0.13405   0.41923   0.00000  Uiso   1.00
H856   H     0.18858   0.09424   0.38472   0.00000  Uiso   1.00
H857   H     0.22294   0.13412   0.35717   0.00000  Uiso   1.00
H858   H     0.28075   0.40448   0.60779   0.00000  Uiso   1.00
H859   H     0.07837   0.18613   0.34033   0.00000  Uiso   1.00
H860   H     0.20443   0.37836   0.57925   0.00000  Uiso   1.00
H861   H     0.18908   0.40347   0.63479   0.00000  Uiso   1.00
H862   H     0.22686   0.35705   0.63068   0.00000  Uiso   1.00
H863   H     0.42667   0.10384   0.36058   0.00000  Uiso   1.00
H864   H     0.42057   0.16264   0.37837   0.00000  Uiso   1.00
H865   H     0.37864   0.12284   0.38810   0.00000  Uiso   1.00
H866   H     0.49976   0.44372   0.52853   0.00000  Uiso   1.00
H867   H     0.01023   0.40141   0.48296   0.00000  Uiso   1.00
H868   H     0.04602   0.44900   0.49394   0.00000  Uiso   1.00
H869   H     0.19295   0.27867   0.43136   0.00000  Uiso   1.00
H870   H     0.06583   0.12736   0.34520   0.00000  Uiso   1.00
H871   H     0.16023   0.23447   0.45158   0.00000  Uiso   1.00
H872   H     0.17877   0.27753   0.49243   0.00000  Uiso   1.00
H873   H     0.37036   0.16706   0.61352   0.00000  Uiso   1.00
H874   H     0.32547   0.20537   0.60921   0.00000  Uiso   1.00
H875   H     0.37772   0.22649   0.62282   0.00000  Uiso   1.00
H876   H     0.18215   0.20665   0.59860   0.00000  Uiso   1.00
H877   H     0.15704   0.25559   0.57745   0.00000  Uiso   1.00
H878   H     0.18194   0.21639   0.53683   0.00000  Uiso   1.00
H879   H     0.38477   0.30719   0.39646   0.00000  Uiso   1.00
H880   H     0.32690   0.30227   0.40064   0.00000  Uiso   1.00
H881   H     0.01345   0.35729   0.63598   0.00000  Uiso   1.00
H882   H     0.35991   0.25311   0.39702   0.00000  Uiso   1.00
H883   H     0.45250   0.40309   0.62658   0.00000  Uiso   1.00
H884   H     0.44087   0.34546   0.60882   0.00000  Uiso   1.00
H885   H     0.39937   0.38692   0.61088   0.00000  Uiso   1.00
H886   H     0.01376   0.10415   0.51076   0.00000  Uiso   1.00
H887   H     0.04054   0.05164   0.49212   0.00000  Uiso   1.00
H888   H     0.49517   0.07064   0.46148   0.00000  Uiso   1.00
H889   H     0.13787   0.35976   0.38750   0.00000  Uiso   1.00
H890   H     0.19004   0.34922   0.36581   0.00000  Uiso   1.00
H891   H     0.17438   0.40628   0.38284   0.00000  Uiso   1.00
H892   H     0.08089   0.32981   0.33429   0.00000  Uiso   1.00
H893   H     0.24287   0.17387   0.54177   0.00000  Uiso   1.00
H894   H     0.26383   0.14506   0.49081   0.00000  Uiso   1.00
H895   H     0.28646   0.19883   0.51248   0.00000  Uiso   1.00
H896   H     0.43971   0.03135   0.42326   0.00000  Uiso   1.00
H897   H     0.40671   0.48676   0.44168   0.00000  Uiso   1.00
H898   H     0.42703   0.02685   0.48463   0.00000  Uiso   1.00
H899   H     0.12191   0.42491   0.61168   0.00000  Uiso   1.00
H900   H     0.07238   0.45547   0.60319   0.00000  Uiso   1.00
H901   H     0.12083   0.48505   0.61666   0.00000  Uiso   1.00
H902   H     0.35580   0.44907   0.59747   0.00000  Uiso   1.00
H903   H     0.08626   0.35357   0.61211   0.00000  Uiso   1.00
H904   H     0.36727   0.00639   0.58612   0.00000  Uiso   1.00
H905   H     0.40964   0.47122   0.60431   0.00000  Uiso   1.00
H906   H     0.11713   0.08413   0.38496   0.00000  Uiso   1.00
H907   H     0.07312   0.04512   0.39173   0.00000  Uiso   1.00
H908   H     0.12483   0.02492   0.37472   0.00000  Uiso   1.00
H909   H     0.13695   0.13385   0.63026   0.00000  Uiso   1.00
H910   H     0.17659   0.09111   0.63690   0.00000  Uiso   1.00
H911   H     0.13263   0.07871   0.59978   0.00000  Uiso   1.00
H912   H     0.27215   0.35265   0.53407   0.00000  Uiso   1.00
H913   H     0.28798   0.29757   0.50879   0.00000  Uiso   1.00
H914   H     0.08527   0.29336   0.61602   0.00000  Uiso   1.00
H915   H     0.23961   0.32375   0.49145   0.00000  Uiso   1.00
H916   H     0.03122   0.34610   0.39011   0.00000  Uiso   1.00
N917   N     0.00000   0.25000   0.61736   0.00000  Uiso   1.00
N918   N     0.27193   0.07760   0.62367   0.00000  Uiso   1.00
N919   N     0.25435   0.08060   0.38826   0.00000  Uiso   1.00
N920   N     0.25121   0.41929   0.61176   0.00000  Uiso   1.00
N921   N     0.00000   0.25000   0.38264   0.00000  Uiso   1.00
N922   N     0.25000   0.00000   0.61736   0.00000  Uiso   1.00
N923   N     0.25000   0.00000   0.38264   0.00000  Uiso   1.00
N924   N     0.02030   0.17187   0.37607   0.00000  Uiso   1.00
N925   N     0.02572   0.32650   0.62500   0.00000  Uiso   1.00
N926   N     0.00175   0.33083   0.38788   0.00000  Uiso   1.00
N927   N     0.00296   0.16942   0.61180   0.00000  Uiso   1.00
N928   N     0.27008   0.42154   0.37616   0.00000  Uiso   1.00
O929   O     0.04509   0.20491   0.53958   0.00000  Uiso   1.00
O930   O     0.20492   0.04509   0.46042   0.00000  Uiso   1.00
O931   O     0.20492   0.04509   0.53958   0.00000  Uiso   1.00
O932   O     0.29509   0.45491   0.46042   0.00000  Uiso   1.00
O933   O     0.20492   0.45491   0.46042   0.00000  Uiso   1.00
O934   O     0.29509   0.04509   0.53958   0.00000  Uiso   1.00
O935   O     0.29509   0.04509   0.46042   0.00000  Uiso   1.00
O936   O     0.20492   0.45491   0.53958   0.00000  Uiso   1.00
O937   O     0.43516   0.11956   0.43005   0.00000  Uiso   1.00
O938   O     0.04676   0.39795   0.54278   0.00000  Uiso   1.00
O939   O     0.12997   0.29521   0.44611   0.00000  Uiso   1.00
O940   O     0.45492   0.29509   0.46042   0.00000  Uiso   1.00
O941   O     0.36800   0.20658   0.55438   0.00000  Uiso   1.00
O942   O     0.12355   0.19673   0.56625   0.00000  Uiso   1.00
O943   O     0.36091   0.28786   0.46031   0.00000  Uiso   1.00
O944   O     0.44534   0.39059   0.55654   0.00000  Uiso   1.00
O945   O     0.04957   0.10646   0.45004   0.00000  Uiso   1.00
O946   O     0.18977   0.36479   0.43571   0.00000  Uiso   1.00
O947   O     0.30017   0.14312   0.55139   0.00000  Uiso   1.00
O948   O     0.37758   0.04850   0.44061   0.00000  Uiso   1.00
O949   O     0.11613   0.45918   0.54952   0.00000  Uiso   1.00
O950   O     0.39050   0.46147   0.53594   0.00000  Uiso   1.00
O951   O     0.45492   0.29509   0.53958   0.00000  Uiso   1.00
O952   O     0.11879   0.04428   0.44374   0.00000  Uiso   1.00
O953   O     0.17960   0.12323   0.57568   0.00000  Uiso   1.00
O954   O     0.29389   0.35139   0.46540   0.00000  Uiso   1.00
O955   O     0.04509   0.20491   0.46042   0.00000  Uiso   1.00
O956   O     0.45492   0.20491   0.46042   0.00000  Uiso   1.00
O957   O     0.04509   0.29509   0.53958   0.00000  Uiso   1.00
O958   O     0.04509   0.29509   0.46042   0.00000  Uiso   1.00
O959   O     0.45492   0.20491   0.53958   0.00000  Uiso   1.00
O960   O     0.29509   0.45491   0.53958   0.00000  Uiso   1.00
C961   C     0.55908   0.19030   0.49959   0.00000  Uiso   1.00
C962   C     0.50552   0.28918   0.64447   0.00000  Uiso   1.00
C963   C     0.50013   0.28960   0.36055   0.00000  Uiso   1.00
C964   C     0.99954   0.21037   0.63934   0.00000  Uiso   1.00
C965   C     0.75406   0.46054   0.35563   0.00000  Uiso   1.00
C966   C     0.75488   0.03929   0.64432   0.00000  Uiso   1.00
C967   C     0.75059   0.03968   0.36063   0.00000  Uiso   1.00
C968   C     0.74954   0.46035   0.63937   0.00000  Uiso   1.00
C969   C     0.90594   0.12174   0.46583   0.00000  Uiso   1.00
C970   C     0.58619   0.38597   0.52462   0.00000  Uiso   1.00
C971   C     0.62786   0.33517   0.47324   0.00000  Uiso   1.00
C972   C     0.94030   0.30910   0.50080   0.00000  Uiso   1.00
C973   C     0.87104   0.16564   0.52896   0.00000  Uiso   1.00
C974   C     0.62474   0.16075   0.53342   0.00000  Uiso   1.00
C975   C     0.86758   0.33130   0.47870   0.00000  Uiso   1.00
C976   C     0.91060   0.38295   0.52791   0.00000  Uiso   1.00
C977   C     0.58782   0.11628   0.47213   0.00000  Uiso   1.00
C978   C     0.65794   0.36956   0.46860   0.00000  Uiso   1.00
C979   C     0.83763   0.13403   0.52756   0.00000  Uiso   1.00
C980   C     0.87658   0.08677   0.47032   0.00000  Uiso   1.00
C981   C     0.62010   0.41703   0.52668   0.00000  Uiso   1.00
C982   C     0.88052   0.41711   0.52297   0.00000  Uiso   1.00
C983   C     0.94016   0.19107   0.49925   0.00000  Uiso   1.00
C984   C     0.62145   0.08488   0.46996   0.00000  Uiso   1.00
C985   C     0.65384   0.12535   0.53698   0.00000  Uiso   1.00
C986   C     0.83442   0.36316   0.48056   0.00000  Uiso   1.00
C987   C     0.59193   0.34383   0.50112   0.00000  Uiso   1.00
C988   C     0.90526   0.15891   0.49791   0.00000  Uiso   1.00
C989   C     0.90564   0.34156   0.50265   0.00000  Uiso   1.00
C990   C     0.59214   0.15622   0.49995   0.00000  Uiso   1.00
C991   C     0.84230   0.09340   0.50099   0.00000  Uiso   1.00
C992   C     0.65573   0.40850   0.49811   0.00000  Uiso   1.00
C993   C     0.65491   0.09057   0.50216   0.00000  Uiso   1.00
C994   C     0.55842   0.31034   0.50065   0.00000  Uiso   1.00
C995   C     0.84254   0.40696   0.49897   0.00000  Uiso   1.00
C996   C     0.56422   0.16118   0.36334   0.00000  Uiso   1.00
C997   C     0.57177   0.32568   0.63051   0.00000  Uiso   1.00
C998   C     0.96640   0.36178   0.38369   0.00000  Uiso   1.00
C999   C     0.96888   0.13701   0.61460   0.00000  Uiso   1.00
C1000  C     0.81590   0.41595   0.37078   0.00000  Uiso   1.00
C1001  C     0.81586   0.08830   0.63645   0.00000  Uiso   1.00
C1002  C     0.71942   0.11222   0.38686   0.00000  Uiso   1.00
C1003  C     0.71596   0.38819   0.61466   0.00000  Uiso   1.00
C1004  C     0.91396   0.12766   0.38792   0.00000  Uiso   1.00
C1005  C     0.80915   0.44049   0.49941   0.00000  Uiso   1.00
C1006  C     0.52521   0.42391   0.51032   0.00000  Uiso   1.00
C1007  C     0.66729   0.27100   0.45621   0.00000  Uiso   1.00
C1008  C     0.85994   0.20039   0.60180   0.00000  Uiso   1.00
C1009  C     0.66314   0.21925   0.56949   0.00000  Uiso   1.00
C1010  C     0.85799   0.28833   0.41157   0.00000  Uiso   1.00
C1011  C     0.93363   0.38099   0.60229   0.00000  Uiso   1.00
C1012  C     0.52407   0.08227   0.48038   0.00000  Uiso   1.00
C1013  C     0.67183   0.37043   0.39143   0.00000  Uiso   1.00
C1014  C     0.77253   0.16623   0.52232   0.00000  Uiso   1.00
C1015  C     0.91459   0.02289   0.44840   0.00000  Uiso   1.00
C1016  C     0.68996   0.05865   0.50071   0.00000  Uiso   1.00
C1017  C     0.60733   0.45523   0.59712   0.00000  Uiso   1.00
C1018  C     0.88021   0.47164   0.58296   0.00000  Uiso   1.00
C1019  C     0.60785   0.05063   0.39702   0.00000  Uiso   1.00
C1020  C     0.65493   0.10617   0.61183   0.00000  Uiso   1.00
C1021  C     0.77299   0.33048   0.50181   0.00000  Uiso   1.00
C1022  C     0.69044   0.44079   0.49927   0.00000  Uiso   1.00
C1023  C     0.80895   0.05976   0.50061   0.00000  Uiso   1.00
C1024  C     0.50382   0.21060   0.35565   0.00000  Uiso   1.00
Cu1025 Cu    0.50000   0.25000   0.54689   0.00000  Uiso   1.00
Cu1026 Cu    0.50000   0.25000   0.45311   0.00000  Uiso   1.00
Cu1027 Cu    0.75000   0.00000   0.54689   0.00000  Uiso   1.00
Cu1028 Cu    0.75000   0.00000   0.45311   0.00000  Uiso   1.00
H1029  H     0.50036   0.14439   0.37397   0.00000  Uiso   1.00
H1030  H     0.95347   0.37101   0.41864   0.00000  Uiso   1.00
H1031  H     0.94031   0.34684   0.36186   0.00000  Uiso   1.00
H1032  H     0.97762   0.39323   0.36859   0.00000  Uiso   1.00
H1033  H     0.53308   0.15565   0.60902   0.00000  Uiso   1.00
H1034  H     0.96060   0.12358   0.57914   0.00000  Uiso   1.00
H1035  H     0.93999   0.15269   0.63044   0.00000  Uiso   1.00
H1036  H     0.97947   0.10839   0.63501   0.00000  Uiso   1.00
H1037  H     0.75403   0.39240   0.36665   0.00000  Uiso   1.00
H1038  H     0.83313   0.44688   0.38342   0.00000  Uiso   1.00
H1039  H     0.82469   0.40845   0.33406   0.00000  Uiso   1.00
H1040  H     0.58453   0.16148   0.39463   0.00000  Uiso   1.00
H1041  H     0.82696   0.38741   0.39077   0.00000  Uiso   1.00
H1042  H     0.75197   0.10506   0.62346   0.00000  Uiso   1.00
H1043  H     0.82985   0.06364   0.65993   0.00000  Uiso   1.00
H1044  H     0.81757   0.12243   0.65391   0.00000  Uiso   1.00
H1045  H     0.83621   0.08751   0.60521   0.00000  Uiso   1.00
H1046  H     0.78404   0.09541   0.38859   0.00000  Uiso   1.00
H1047  H     0.71948   0.13405   0.41923   0.00000  Uiso   1.00
H1048  H     0.68858   0.09424   0.38472   0.00000  Uiso   1.00
H1049  H     0.72294   0.13412   0.35717   0.00000  Uiso   1.00
H1050  H     0.78075   0.40448   0.60779   0.00000  Uiso   1.00
H1051  H     0.57837   0.18613   0.34033   0.00000  Uiso   1.00
H1052  H     0.70443   0.37836   0.57925   0.00000  Uiso   1.00
H1053  H     0.68908   0.40347   0.63479   0.00000  Uiso   1.00
H1054  H     0.72686   0.35705   0.63068   0.00000  Uiso   1.00
H1055  H     0.92667   0.10384   0.36058   0.00000  Uiso   1.00
H1056  H     0.92057   0.16264   0.37837   0.00000  Uiso   1.00
H1057  H     0.87864   0.12284   0.38810   0.00000  Uiso   1.00
H1058  H     0.99976   0.44372   0.52853   0.00000  Uiso   1.00
H1059  H     0.51023   0.40141   0.48296   0.00000  Uiso   1.00
H1060  H     0.54602   0.44900   0.49394   0.00000  Uiso   1.00
H1061  H     0.69295   0.27867   0.43136   0.00000  Uiso   1.00
H1062  H     0.56583   0.12736   0.34520   0.00000  Uiso   1.00
H1063  H     0.66023   0.23447   0.45158   0.00000  Uiso   1.00
H1064  H     0.67877   0.27753   0.49243   0.00000  Uiso   1.00
H1065  H     0.87036   0.16706   0.61352   0.00000  Uiso   1.00
H1066  H     0.82547   0.20537   0.60921   0.00000  Uiso   1.00
H1067  H     0.87772   0.22649   0.62282   0.00000  Uiso   1.00
H1068  H     0.68215   0.20665   0.59860   0.00000  Uiso   1.00
H1069  H     0.65704   0.25559   0.57745   0.00000  Uiso   1.00
H1070  H     0.68194   0.21639   0.53683   0.00000  Uiso   1.00
H1071  H     0.88477   0.30719   0.39646   0.00000  Uiso   1.00
H1072  H     0.82690   0.30227   0.40064   0.00000  Uiso   1.00
H1073  H     0.51345   0.35729   0.63598   0.00000  Uiso   1.00
H1074  H     0.85991   0.25311   0.39702   0.00000  Uiso   1.00
H1075  H     0.95250   0.40309   0.62658   0.00000  Uiso   1.00
H1076  H     0.94087   0.34546   0.60882   0.00000  Uiso   1.00
H1077  H     0.89937   0.38692   0.61088   0.00000  Uiso   1.00
H1078  H     0.51376   0.10415   0.51076   0.00000  Uiso   1.00
H1079  H     0.54054   0.05164   0.49212   0.00000  Uiso   1.00
H1080  H     0.99517   0.07064   0.46148   0.00000  Uiso   1.00
H1081  H     0.63787   0.35976   0.38750   0.00000  Uiso   1.00
H1082  H     0.69004   0.34922   0.36581   0.00000  Uiso   1.00
H1083  H     0.67438   0.40628   0.38284   0.00000  Uiso   1.00
H1084  H     0.58089   0.32981   0.33429   0.00000  Uiso   1.00
H1085  H     0.74287   0.17387   0.54177   0.00000  Uiso   1.00
H1086  H     0.76383   0.14506   0.49081   0.00000  Uiso   1.00
H1087  H     0.78646   0.19883   0.51248   0.00000  Uiso   1.00
H1088  H     0.93971   0.03135   0.42326   0.00000  Uiso   1.00
H1089  H     0.90671   0.48676   0.44168   0.00000  Uiso   1.00
H1090  H     0.92703   0.02685   0.48463   0.00000  Uiso   1.00
H1091  H     0.62191   0.42491   0.61168   0.00000  Uiso   1.00
H1092  H     0.57238   0.45547   0.60319   0.00000  Uiso   1.00
H1093  H     0.62083   0.48505   0.61666   0.00000  Uiso   1.00
H1094  H     0.85580   0.44907   0.59747   0.00000  Uiso   1.00
H1095  H     0.58626   0.35357   0.61211   0.00000  Uiso   1.00
H1096  H     0.86727   0.00639   0.58612   0.00000  Uiso   1.00
H1097  H     0.90964   0.47122   0.60431   0.00000  Uiso   1.00
H1098  H     0.61713   0.08413   0.38496   0.00000  Uiso   1.00
H1099  H     0.57312   0.04512   0.39173   0.00000  Uiso   1.00
H1100  H     0.62483   0.02492   0.37472   0.00000  Uiso   1.00
H1101  H     0.63695   0.13385   0.63026   0.00000  Uiso   1.00
H1102  H     0.67659   0.09111   0.63690   0.00000  Uiso   1.00
H1103  H     0.63263   0.07871   0.59978   0.00000  Uiso   1.00
H1104  H     0.77215   0.35265   0.53407   0.00000  Uiso   1.00
H1105  H     0.78798   0.29757   0.50879   0.00000  Uiso   1.00
H1106  H     0.58527   0.29336   0.61602   0.00000  Uiso   1.00
H1107  H     0.73961   0.32375   0.49145   0.00000  Uiso   1.00
H1108  H     0.53122   0.34610   0.39011   0.00000  Uiso   1.00
N1109  N     0.50000   0.25000   0.61736   0.00000  Uiso   1.00
N1110  N     0.77193   0.07760   0.62367   0.00000  Uiso   1.00
N1111  N     0.75435   0.08060   0.38826   0.00000  Uiso   1.00
N1112  N     0.75121   0.41929   0.61176   0.00000  Uiso   1.00
N1113  N     0.50000   0.25000   0.38264   0.00000  Uiso   1.00
N1114  N     0.75000   0.00000   0.61736   0.00000  Uiso   1.00
N1115  N     0.75000   0.00000   0.38264   0.00000  Uiso   1.00
N1116  N     0.52030   0.17187   0.37607   0.00000  Uiso   1.00
N1117  N     0.52572   0.32650   0.62500   0.00000  Uiso   1.00
N1118  N     0.50175   0.33083   0.38788   0.00000  Uiso   1.00
N1119  N     0.50296   0.16942   0.61180   0.00000  Uiso   1.00
N1120  N     0.77008   0.42154   0.37616   0.00000  Uiso   1.00
O1121  O     0.54509   0.20491   0.53958   0.00000  Uiso   1.00
O1122  O     0.70492   0.04509   0.46042   0.00000  Uiso   1.00
O1123  O     0.70492   0.04509   0.53958   0.00000  Uiso   1.00
O1124  O     0.79509   0.45491   0.46042   0.00000  Uiso   1.00
O1125  O     0.70492   0.45491   0.46042   0.00000  Uiso   1.00
O1126  O     0.79509   0.04509   0.53958   0.00000  Uiso   1.00
O1127  O     0.79509   0.04509   0.46042   0.00000  Uiso   1.00
O1128  O     0.70492   0.45491   0.53958   0.00000  Uiso   1.00
O1129  O     0.93516   0.11956   0.43005   0.00000  Uiso   1.00
O1130  O     0.54676   0.39795   0.54278   0.00000  Uiso   1.00
O1131  O     0.62997   0.29521   0.44611   0.00000  Uiso   1.00
O1132  O     0.95492   0.29509   0.46042   0.00000  Uiso   1.00
O1133  O     0.86800   0.20658   0.55438   0.00000  Uiso   1.00
O1134  O     0.62355   0.19673   0.56625   0.00000  Uiso   1.00
O1135  O     0.86091   0.28786   0.46031   0.00000  Uiso   1.00
O1136  O     0.94534   0.39059   0.55654   0.00000  Uiso   1.00
O1137  O     0.54957   0.10646   0.45004   0.00000  Uiso   1.00
O1138  O     0.68977   0.36479   0.43571   0.00000  Uiso   1.00
O1139  O     0.80017   0.14312   0.55139   0.00000  Uiso   1.00
O1140  O     0.87758   0.04850   0.44061   0.00000  Uiso   1.00
O1141  O     0.61613   0.45918   0.54952   0.00000  Uiso   1.00
O1142  O     0.89050   0.46147   0.53594   0.00000  Uiso   1.00
O1143  O     0.95492   0.29509   0.53958   0.00000  Uiso   1.00
O1144  O     0.61879   0.04428   0.44374   0.00000  Uiso   1.00
O1145  O     0.67960   0.12323   0.57568   0.00000  Uiso   1.00
O1146  O     0.79389   0.35139   0.46540   0.00000  Uiso   1.00
O1147  O     0.54509   0.20491   0.46042   0.00000  Uiso   1.00
O1148  O     0.95492   0.20491   0.46042   0.00000  Uiso   1.00
O1149  O     0.54509   0.29509   0.53958   0.00000  Uiso   1.00
O1150  O     0.54509   0.29509   0.46042   0.00000  Uiso   1.00
O1151  O     0.95492   0.20491   0.53958   0.00000  Uiso   1.00
O1152  O     0.79509   0.45491   0.53958   0.00000  Uiso   1.00
C1153  C     0.05908   0.69030   0.49959   0.00000  Uiso   1.00
C1154  C     0.00552   0.78918   0.64447   0.00000  Uiso   1.00
C1155  C     0.00013   0.78960   0.36055   0.00000  Uiso   1.00
C1156  C     0.49954   0.71037   0.63934   0.00000  Uiso   1.00
C1157  C     0.25406   0.96054   0.35563   0.00000  Uiso   1.00
C1158  C     0.25488   0.53929   0.64432   0.00000  Uiso   1.00
C1159  C     0.25059   0.53968   0.36063   0.00000  Uiso   1.00
C1160  C     0.24954   0.96035   0.63937   0.00000  Uiso   1.00
C1161  C     0.40594   0.62174   0.46583   0.00000  Uiso   1.00
C1162  C     0.08619   0.88597   0.52462   0.00000  Uiso   1.00
C1163  C     0.12786   0.83517   0.47324   0.00000  Uiso   1.00
C1164  C     0.44030   0.80910   0.50080   0.00000  Uiso   1.00
C1165  C     0.37104   0.66564   0.52896   0.00000  Uiso   1.00
C1166  C     0.12474   0.66075   0.53342   0.00000  Uiso   1.00
C1167  C     0.36758   0.83130   0.47870   0.00000  Uiso   1.00
C1168  C     0.41060   0.88295   0.52791   0.00000  Uiso   1.00
C1169  C     0.08782   0.61628   0.47213   0.00000  Uiso   1.00
C1170  C     0.15794   0.86956   0.46860   0.00000  Uiso   1.00
C1171  C     0.33763   0.63403   0.52756   0.00000  Uiso   1.00
C1172  C     0.37658   0.58677   0.47032   0.00000  Uiso   1.00
C1173  C     0.12010   0.91703   0.52668   0.00000  Uiso   1.00
C1174  C     0.38052   0.91711   0.52297   0.00000  Uiso   1.00
C1175  C     0.44016   0.69107   0.49925   0.00000  Uiso   1.00
C1176  C     0.12145   0.58488   0.46996   0.00000  Uiso   1.00
C1177  C     0.15384   0.62535   0.53698   0.00000  Uiso   1.00
C1178  C     0.33442   0.86316   0.48056   0.00000  Uiso   1.00
C1179  C     0.09193   0.84383   0.50112   0.00000  Uiso   1.00
C1180  C     0.40526   0.65891   0.49791   0.00000  Uiso   1.00
C1181  C     0.40564   0.84156   0.50265   0.00000  Uiso   1.00
C1182  C     0.09214   0.65622   0.49995   0.00000  Uiso   1.00
C1183  C     0.34230   0.59340   0.50099   0.00000  Uiso   1.00
C1184  C     0.15573   0.90850   0.49811   0.00000  Uiso   1.00
C1185  C     0.15491   0.59057   0.50216   0.00000  Uiso   1.00
C1186  C     0.05842   0.81034   0.50065   0.00000  Uiso   1.00
C1187  C     0.34254   0.90696   0.49897   0.00000  Uiso   1.00
C1188  C     0.06422   0.66118   0.36334   0.00000  Uiso   1.00
C1189  C     0.07177   0.82568   0.63051   0.00000  Uiso   1.00
C1190  C     0.46640   0.86178   0.38369   0.00000  Uiso   1.00
C1191  C     0.46888   0.63701   0.61460   0.00000  Uiso   1.00
C1192  C     0.31590   0.91595   0.37078   0.00000  Uiso   1.00
C1193  C     0.31586   0.58830   0.63645   0.00000  Uiso   1.00
C1194  C     0.21942   0.61222   0.38686   0.00000  Uiso   1.00
C1195  C     0.21596   0.88819   0.61466   0.00000  Uiso   1.00
C1196  C     0.41396   0.62766   0.38792   0.00000  Uiso   1.00
C1197  C     0.30915   0.94049   0.49941   0.00000  Uiso   1.00
C1198  C     0.02521   0.92391   0.51032   0.00000  Uiso   1.00
C1199  C     0.16729   0.77100   0.45621   0.00000  Uiso   1.00
C1200  C     0.35994   0.70039   0.60180   0.00000  Uiso   1.00
C1201  C     0.16314   0.71925   0.56949   0.00000  Uiso   1.00
C1202  C     0.35799   0.78833   0.41157   0.00000  Uiso   1.00
C1203  C     0.43363   0.88099   0.60229   0.00000  Uiso   1.00
C1204  C     0.02407   0.58227   0.48038   0.00000  Uiso   1.00
C1205  C     0.17183   0.87043   0.39143   0.00000  Uiso   1.00
C1206  C     0.27253   0.66623   0.52232   0.00000  Uiso   1.00
C1207  C     0.41459   0.52289   0.44840   0.00000  Uiso   1.00
C1208  C     0.18996   0.55865   0.50071   0.00000  Uiso   1.00
C1209  C     0.10733   0.95523   0.59712   0.00000  Uiso   1.00
C1210  C     0.38021   0.97164   0.58296   0.00000  Uiso   1.00
C1211  C     0.10785   0.55063   0.39702   0.00000  Uiso   1.00
C1212  C     0.15493   0.60617   0.61183   0.00000  Uiso   1.00
C1213  C     0.27299   0.83048   0.50181   0.00000  Uiso   1.00
C1214  C     0.19044   0.94079   0.49927   0.00000  Uiso   1.00
C1215  C     0.30895   0.55976   0.50061   0.00000  Uiso   1.00
C1216  C     0.00382   0.71060   0.35565   0.00000  Uiso   1.00
Cu1217 Cu    0.00000   0.75000   0.54689   0.00000  Uiso   1.00
Cu1218 Cu    0.00000   0.75000   0.45311   0.00000  Uiso   1.00
Cu1219 Cu    0.25000   0.50000   0.54689   0.00000  Uiso   1.00
Cu1220 Cu    0.25000   0.50000   0.45311   0.00000  Uiso   1.00
H1221  H     0.00036   0.64439   0.37397   0.00000  Uiso   1.00
H1222  H     0.45347   0.87101   0.41864   0.00000  Uiso   1.00
H1223  H     0.44031   0.84684   0.36186   0.00000  Uiso   1.00
H1224  H     0.47762   0.89323   0.36859   0.00000  Uiso   1.00
H1225  H     0.03308   0.65565   0.60902   0.00000  Uiso   1.00
H1226  H     0.46060   0.62358   0.57914   0.00000  Uiso   1.00
H1227  H     0.43999   0.65269   0.63044   0.00000  Uiso   1.00
H1228  H     0.47947   0.60839   0.63501   0.00000  Uiso   1.00
H1229  H     0.25403   0.89240   0.36665   0.00000  Uiso   1.00
H1230  H     0.33313   0.94688   0.38342   0.00000  Uiso   1.00
H1231  H     0.32469   0.90845   0.33406   0.00000  Uiso   1.00
H1232  H     0.08453   0.66148   0.39463   0.00000  Uiso   1.00
H1233  H     0.32696   0.88741   0.39077   0.00000  Uiso   1.00
H1234  H     0.25197   0.60506   0.62346   0.00000  Uiso   1.00
H1235  H     0.32985   0.56364   0.65993   0.00000  Uiso   1.00
H1236  H     0.31757   0.62243   0.65391   0.00000  Uiso   1.00
H1237  H     0.33621   0.58751   0.60521   0.00000  Uiso   1.00
H1238  H     0.28404   0.59541   0.38859   0.00000  Uiso   1.00
H1239  H     0.21948   0.63405   0.41923   0.00000  Uiso   1.00
H1240  H     0.18858   0.59424   0.38472   0.00000  Uiso   1.00
H1241  H     0.22294   0.63412   0.35717   0.00000  Uiso   1.00
H1242  H     0.28075   0.90448   0.60779   0.00000  Uiso   1.00
H1243  H     0.07837   0.68613   0.34033   0.00000  Uiso   1.00
H1244  H     0.20443   0.87836   0.57925   0.00000  Uiso   1.00
H1245  H     0.18908   0.90347   0.63479   0.00000  Uiso   1.00
H1246  H     0.22686   0.85705   0.63068   0.00000  Uiso   1.00
H1247  H     0.42667   0.60384   0.36058   0.00000  Uiso   1.00
H1248  H     0.42057   0.66264   0.37837   0.00000  Uiso   1.00
H1249  H     0.37864   0.62284   0.38810   0.00000  Uiso   1.00
H1250  H     0.49976   0.94372   0.52853   0.00000  Uiso   1.00
H1251  H     0.01023   0.90141   0.48296   0.00000  Uiso   1.00
H1252  H     0.04602   0.94900   0.49394   0.00000  Uiso   1.00
H1253  H     0.19295   0.77867   0.43136   0.00000  Uiso   1.00
H1254  H     0.06583   0.62736   0.34520   0.00000  Uiso   1.00
H1255  H     0.16023   0.73447   0.45158   0.00000  Uiso   1.00
H1256  H     0.17877   0.77753   0.49243   0.00000  Uiso   1.00
H1257  H     0.37036   0.66706   0.61352   0.00000  Uiso   1.00
H1258  H     0.32547   0.70537   0.60921   0.00000  Uiso   1.00
H1259  H     0.37772   0.72649   0.62282   0.00000  Uiso   1.00
H1260  H     0.18215   0.70665   0.59860   0.00000  Uiso   1.00
H1261  H     0.15704   0.75559   0.57745   0.00000  Uiso   1.00
H1262  H     0.18194   0.71639   0.53683   0.00000  Uiso   1.00
H1263  H     0.38477   0.80719   0.39646   0.00000  Uiso   1.00
H1264  H     0.32690   0.80227   0.40064   0.00000  Uiso   1.00
H1265  H     0.01345   0.85729   0.63598   0.00000  Uiso   1.00
H1266  H     0.35991   0.75311   0.39702   0.00000  Uiso   1.00
H1267  H     0.45250   0.90309   0.62658   0.00000  Uiso   1.00
H1268  H     0.44087   0.84546   0.60882   0.00000  Uiso   1.00
H1269  H     0.39937   0.88692   0.61088   0.00000  Uiso   1.00
H1270  H     0.01376   0.60415   0.51076   0.00000  Uiso   1.00
H1271  H     0.04054   0.55164   0.49212   0.00000  Uiso   1.00
H1272  H     0.49517   0.57064   0.46148   0.00000  Uiso   1.00
H1273  H     0.13787   0.85976   0.38750   0.00000  Uiso   1.00
H1274  H     0.19004   0.84922   0.36581   0.00000  Uiso   1.00
H1275  H     0.17438   0.90628   0.38284   0.00000  Uiso   1.00
H1276  H     0.08089   0.82981   0.33429   0.00000  Uiso   1.00
H1277  H     0.24287   0.67387   0.54177   0.00000  Uiso   1.00
H1278  H     0.26383   0.64506   0.49081   0.00000  Uiso   1.00
H1279  H     0.28646   0.69883   0.51248   0.00000  Uiso   1.00
H1280  H     0.43971   0.53135   0.42326   0.00000  Uiso   1.00
H1281  H     0.40671   0.98676   0.44168   0.00000  Uiso   1.00
H1282  H     0.42703   0.52685   0.48463   0.00000  Uiso   1.00
H1283  H     0.12191   0.92491   0.61168   0.00000  Uiso   1.00
H1284  H     0.07238   0.95547   0.60319   0.00000  Uiso   1.00
H1285  H     0.12083   0.98505   0.61666   0.00000  Uiso   1.00
H1286  H     0.35580   0.94907   0.59747   0.00000  Uiso   1.00
H1287  H     0.08626   0.85357   0.61211   0.00000  Uiso   1.00
H1288  H     0.36727   0.50639   0.58612   0.00000  Uiso   1.00
H1289  H     0.40964   0.97122   0.60431   0.00000  Uiso   1.00
H1290  H     0.11713   0.58413   0.38496   0.00000  Uiso   1.00
H1291  H     0.07312   0.54512   0.39173   0.00000  Uiso   1.00
H1292  H     0.12483   0.52492   0.37472   0.00000  Uiso   1.00
H1293  H     0.13695   0.63385   0.63026   0.00000  Uiso   1.00
H1294  H     0.17659   0.59111   0.63690   0.00000  Uiso   1.00
H1295  H     0.13263   0.57871   0.59978   0.00000  Uiso   1.00
H1296  H     0.27215   0.85265   0.53407   0.00000  Uiso   1.00
H1297  H     0.28798   0.79757   0.50879   0.00000  Uiso   1.00
H1298  H     0.08527   0.79336   0.61602   0.00000  Uiso   1.00
H1299  H     0.23961   0.82375   0.49145   0.00000  Uiso   1.00
H1300  H     0.03122   0.84610   0.39011   0.00000  Uiso   1.00
N1301  N     0.00000   0.75000   0.61736   0.00000  Uiso   1.00
N1302  N     0.27193   0.57760   0.62367   0.00000  Uiso   1.00
N1303  N     0.25435   0.58060   0.38826   0.00000  Uiso   1.00
N1304  N     0.25121   0.91929   0.61176   0.00000  Uiso   1.00
N1305  N     0.00000   0.75000   0.38264   0.00000  Uiso   1.00
N1306  N     0.25000   0.50000   0.61736   0.00000  Uiso   1.00
N1307  N     0.25000   0.50000   0.38264   0.00000  Uiso   1.00
N1308  N     0.02030   0.67187   0.37607   0.00000  Uiso   1.00
N1309  N     0.02572   0.82650   0.62500   0.00000  Uiso   1.00
N1310  N     0.00175   0.83083   0.38788   0.00000  Uiso   1.00
N1311  N     0.00296   0.66942   0.61180   0.00000  Uiso   1.00
N1312  N     0.27008   0.92154   0.37616   0.00000  Uiso   1.00
O1313  O     0.04509   0.70491   0.53958   0.00000  Uiso   1.00
O1314  O     0.20492   0.54509   0.46042   0.00000  Uiso   1.00
O1315  O     0.20492   0.54509   0.53958   0.00000  Uiso   1.00
O1316  O     0.29509   0.95491   0.46042   0.00000  Uiso   1.00
O1317  O     0.20492   0.95491   0.46042   0.00000  Uiso   1.00
O1318  O     0.29509   0.54509   0.53958   0.00000  Uiso   1.00
O1319  O     0.29509   0.54509   0.46042   0.00000  Uiso   1.00
O1320  O     0.20492   0.95491   0.53958   0.00000  Uiso   1.00
O1321  O     0.43516   0.61956   0.43005   0.00000  Uiso   1.00
O1322  O     0.04676   0.89795   0.54278   0.00000  Uiso   1.00
O1323  O     0.12997   0.79521   0.44611   0.00000  Uiso   1.00
O1324  O     0.45492   0.79509   0.46042   0.00000  Uiso   1.00
O1325  O     0.36800   0.70658   0.55438   0.00000  Uiso   1.00
O1326  O     0.12355   0.69673   0.56625   0.00000  Uiso   1.00
O1327  O     0.36091   0.78786   0.46031   0.00000  Uiso   1.00
O1328  O     0.44534   0.89059   0.55654   0.00000  Uiso   1.00
O1329  O     0.04957   0.60646   0.45004   0.00000  Uiso   1.00
O1330  O     0.18977   0.86479   0.43571   0.00000  Uiso   1.00
O1331  O     0.30017   0.64312   0.55139   0.00000  Uiso   1.00
O1332  O     0.37758   0.54850   0.44061   0.00000  Uiso   1.00
O1333  O     0.11613   0.95918   0.54952   0.00000  Uiso   1.00
O1334  O     0.39050   0.96147   0.53594   0.00000  Uiso   1.00
O1335  O     0.45492   0.79509   0.53958   0.00000  Uiso   1.00
O1336  O     0.11879   0.54428   0.44374   0.00000  Uiso   1.00
O1337  O     0.17960   0.62323   0.57568   0.00000  Uiso   1.00
O1338  O     0.29389   0.85139   0.46540   0.00000  Uiso   1.00
O1339  O     0.04509   0.70491   0.46042   0.00000  Uiso   1.00
O1340  O     0.45492   0.70491   0.46042   0.00000  Uiso   1.00
O1341  O     0.04509   0.79509   0.53958   0.00000  Uiso   1.00
O1342  O     0.04509   0.79509   0.46042   0.00000  Uiso   1.00
O1343  O     0.45492   0.70491   0.53958   0.00000  Uiso   1.00
O1344  O     0.29509   0.95491   0.53958   0.00000  Uiso   1.00
C1345  C     0.55908   0.69030   0.49959   0.00000  Uiso   1.00
C1346  C     0.50552   0.78918   0.64447   0.00000  Uiso   1.00
C1347  C     0.50013   0.78960   0.36055   0.00000  Uiso   1.00
C1348  C     0.99954   0.71037   0.63934   0.00000  Uiso   1.00
C1349  C     0.75406   0.96054   0.35563   0.00000  Uiso   1.00
C1350  C     0.75488   0.53929   0.64432   0.00000  Uiso   1.00
C1351  C     0.75059   0.53968   0.36063   0.00000  Uiso   1.00
C1352  C     0.74954   0.96035   0.63937   0.00000  Uiso   1.00
C1353  C     0.90594   0.62174   0.46583   0.00000  Uiso   1.00
C1354  C     0.58619   0.88597   0.52462   0.00000  Uiso   1.00
C1355  C     0.62786   0.83517   0.47324   0.00000  Uiso   1.00
C1356  C     0.94030   0.80910   0.50080   0.00000  Uiso   1.00
C1357  C     0.87104   0.66564   0.52896   0.00000  Uiso   1.00
C1358  C     0.62474   0.66075   0.53342   0.00000  Uiso   1.00
C1359  C     0.86758   0.83130   0.47870   0.00000  Uiso   1.00
C1360  C     0.91060   0.88295   0.52791   0.00000  Uiso   1.00
C1361  C     0.58782   0.61628   0.47213   0.00000  Uiso   1.00
C1362  C     0.65794   0.86956   0.46860   0.00000  Uiso   1.00
C1363  C     0.83763   0.63403   0.52756   0.00000  Uiso   1.00
C1364  C     0.87658   0.58677   0.47032   0.00000  Uiso   1.00
C1365  C     0.62010   0.91703   0.52668   0.00000  Uiso   1.00
C1366  C     0.88052   0.91711   0.52297   0.00000  Uiso   1.00
C1367  C     0.94016   0.69107   0.49925   0.00000  Uiso   1.00
C1368  C     0.62145   0.58488   0.46996   0.00000  Uiso   1.00
C1369  C     0.65384   0.62535   0.53698   0.00000  Uiso   1.00
C1370  C     0.83442   0.86316   0.48056   0.00000  Uiso   1.00
C1371  C     0.59193   0.84383   0.50112   0.00000  Uiso   1.00
C1372  C     0.90526   0.65891   0.49791   0.00000  Uiso   1.00
C1373  C     0.90564   0.84156   0.50265   0.00000  Uiso   1.00
C1374  C     0.59214   0.65622   0.49995   0.00000  Uiso   1.00
C1375  C     0.84230   0.59340   0.50099   0.00000  Uiso   1.00
C1376  C     0.65573   0.90850   0.49811   0.00000  Uiso   1.00
C1377  C     0.65491   0.59057   0.50216   0.00000  Uiso   1.00
C1378  C     0.55842   0.81034   0.50065   0.00000  Uiso   1.00
C1379  C     0.84254   0.90696   0.49897   0.00000  Uiso   1.00
C1380  C     0.56422   0.66118   0.36334   0.00000  Uiso   1.00
C1381  C     0.57177   0.82568   0.63051   0.00000  Uiso   1.00
C1382  C     0.96640   0.86178   0.38369   0.00000  Uiso   1.00
C1383  C     0.96888   0.63701   0.61460   0.00000  Uiso   1.00
C1384  C     0.81590   0.91595   0.37078   0.00000  Uiso   1.00
C1385  C     0.81586   0.58830   0.63645   0.00000  Uiso   1.00
C1386  C     0.71942   0.61222   0.38686   0.00000  Uiso   1.00
C1387  C     0.71596   0.88819   0.61466   0.00000  Uiso   1.00
C1388  C     0.91396   0.62766   0.38792   0.00000  Uiso   1.00
C1389  C     0.80915   0.94049   0.49941   0.00000  Uiso   1.00
C1390  C     0.52521   0.92391   0.51032   0.00000  Uiso   1.00
C1391  C     0.66729   0.77100   0.45621   0.00000  Uiso   1.00
C1392  C     0.85994   0.70039   0.60180   0.00000  Uiso   1.00
C1393  C     0.66314   0.71925   0.56949   0.00000  Uiso   1.00
C1394  C     0.85799   0.78833   0.41157   0.00000  Uiso   1.00
C1395  C     0.93363   0.88099   0.60229   0.00000  Uiso   1.00
C1396  C     0.52407   0.58227   0.48038   0.00000  Uiso   1.00
C1397  C     0.67183   0.87043   0.39143   0.00000  Uiso   1.00
C1398  C     0.77253   0.66623   0.52232   0.00000  Uiso   1.00
C1399  C     0.91459   0.52289   0.44840   0.00000  Uiso   1.00
C1400  C     0.68996   0.55865   0.50071   0.00000  Uiso   1.00
C1401  C     0.60733   0.95523   0.59712   0.00000  Uiso   1.00
C1402  C     0.88021   0.97164   0.58296   0.00000  Uiso   1.00
C1403  C     0.60785   0.55063   0.39702   0.00000  Uiso   1.00
C1404  C     0.65493   0.60617   0.61183   0.00000  Uiso   1.00
C1405  C     0.77299   0.83048   0.50181   0.00000  Uiso   1.00
C1406  C     0.69044   0.94079   0.49927   0.00000  Uiso   1.00
C1407  C     0.80895   0.55976   0.50061   0.00000  Uiso   1.00
C1408  C     0.50382   0.71060   0.35565   0.00000  Uiso   1.00
Cu1409 Cu    0.50000   0.75000   0.54689   0.00000  Uiso   1.00
Cu1410 Cu    0.50000   0.75000   0.45311   0.00000  Uiso   1.00
Cu1411 Cu    0.75000   0.50000   0.54689   0.00000  Uiso   1.00
Cu1412 Cu    0.75000   0.50000   0.45311   0.00000  Uiso   1.00
H1413  H     0.50036   0.64439   0.37397   0.00000  Uiso   1.00
H1414  H     0.95347   0.87101   0.41864   0.00000  Uiso   1.00
H1415  H     0.94031   0.84684   0.36186   0.00000  Uiso   1.00
H1416  H     0.97762   0.89323   0.36859   0.00000  Uiso   1.00
H1417  H     0.53308   0.65565   0.60902   0.00000  Uiso   1.00
H1418  H     0.96060   0.62358   0.57914   0.00000  Uiso   1.00
H1419  H     0.93999   0.65269   0.63044   0.00000  Uiso   1.00
H1420  H     0.97947   0.60839   0.63501   0.00000  Uiso   1.00
H1421  H     0.75403   0.89240   0.36665   0.00000  Uiso   1.00
H1422  H     0.83313   0.94688   0.38342   0.00000  Uiso   1.00
H1423  H     0.82469   0.90845   0.33406   0.00000  Uiso   1.00
H1424  H     0.58453   0.66148   0.39463   0.00000  Uiso   1.00
H1425  H     0.82696   0.88741   0.39077   0.00000  Uiso   1.00
H1426  H     0.75197   0.60506   0.62346   0.00000  Uiso   1.00
H1427  H     0.82985   0.56364   0.65993   0.00000  Uiso   1.00
H1428  H     0.81757   0.62243   0.65391   0.00000  Uiso   1.00
H1429  H     0.83621   0.58751   0.60521   0.00000  Uiso   1.00
H1430  H     0.78404   0.59541   0.38859   0.00000  Uiso   1.00
H1431  H     0.71948   0.63405   0.41923   0.00000  Uiso   1.00
H1432  H     0.68858   0.59424   0.38472   0.00000  Uiso   1.00
H1433  H     0.72294   0.63412   0.35717   0.00000  Uiso   1.00
H1434  H     0.78075   0.90448   0.60779   0.00000  Uiso   1.00
H1435  H     0.57837   0.68613   0.34033   0.00000  Uiso   1.00
H1436  H     0.70443   0.87836   0.57925   0.00000  Uiso   1.00
H1437  H     0.68908   0.90347   0.63479   0.00000  Uiso   1.00
H1438  H     0.72686   0.85705   0.63068   0.00000  Uiso   1.00
H1439  H     0.92667   0.60384   0.36058   0.00000  Uiso   1.00
H1440  H     0.92057   0.66264   0.37837   0.00000  Uiso   1.00
H1441  H     0.87864   0.62284   0.38810   0.00000  Uiso   1.00
H1442  H     0.99976   0.94372   0.52853   0.00000  Uiso   1.00
H1443  H     0.51023   0.90141   0.48296   0.00000  Uiso   1.00
H1444  H     0.54602   0.94900   0.49394   0.00000  Uiso   1.00
H1445  H     0.69295   0.77867   0.43136   0.00000  Uiso   1.00
H1446  H     0.56583   0.62736   0.34520   0.00000  Uiso   1.00
H1447  H     0.66023   0.73447   0.45158   0.00000  Uiso   1.00
H1448  H     0.67877   0.77753   0.49243   0.00000  Uiso   1.00
H1449  H     0.87036   0.66706   0.61352   0.00000  Uiso   1.00
H1450  H     0.82547   0.70537   0.60921   0.00000  Uiso   1.00
H1451  H     0.87772   0.72649   0.62282   0.00000  Uiso   1.00
H1452  H     0.68215   0.70665   0.59860   0.00000  Uiso   1.00
H1453  H     0.65704   0.75559   0.57745   0.00000  Uiso   1.00
H1454  H     0.68194   0.71639   0.53683   0.00000  Uiso   1.00
H1455  H     0.88477   0.80719   0.39646   0.00000  Uiso   1.00
H1456  H     0.82690   0.80227   0.40064   0.00000  Uiso   1.00
H1457  H     0.51345   0.85729   0.63598   0.00000  Uiso   1.00
H1458  H     0.85991   0.75311   0.39702   0.00000  Uiso   1.00
H1459  H     0.95250   0.90309   0.62658   0.00000  Uiso   1.00
H1460  H     0.94087   0.84546   0.60882   0.00000  Uiso   1.00
H1461  H     0.89937   0.88692   0.61088   0.00000  Uiso   1.00
H1462  H     0.51376   0.60415   0.51076   0.00000  Uiso   1.00
H1463  H     0.54054   0.55164   0.49212   0.00000  Uiso   1.00
H1464  H     0.99517   0.57064   0.46148   0.00000  Uiso   1.00
H1465  H     0.63787   0.85976   0.38750   0.00000  Uiso   1.00
H1466  H     0.69004   0.84922   0.36581   0.00000  Uiso   1.00
H1467  H     0.67438   0.90628   0.38284   0.00000  Uiso   1.00
H1468  H     0.58089   0.82981   0.33429   0.00000  Uiso   1.00
H1469  H     0.74287   0.67387   0.54177   0.00000  Uiso   1.00
H1470  H     0.76383   0.64506   0.49081   0.00000  Uiso   1.00
H1471  H     0.78646   0.69883   0.51248   0.00000  Uiso   1.00
H1472  H     0.93971   0.53135   0.42326   0.00000  Uiso   1.00
H1473  H     0.90671   0.98676   0.44168   0.00000  Uiso   1.00
H1474  H     0.92703   0.52685   0.48463   0.00000  Uiso   1.00
H1475  H     0.62191   0.92491   0.61168   0.00000  Uiso   1.00
H1476  H     0.57238   0.95547   0.60319   0.00000  Uiso   1.00
H1477  H     0.62083   0.98505   0.61666   0.00000  Uiso   1.00
H1478  H     0.85580   0.94907   0.59747   0.00000  Uiso   1.00
H1479  H     0.58626   0.85357   0.61211   0.00000  Uiso   1.00
H1480  H     0.86727   0.50639   0.58612   0.00000  Uiso   1.00
H1481  H     0.90964   0.97122   0.60431   0.00000  Uiso   1.00
H1482  H     0.61713   0.58413   0.38496   0.00000  Uiso   1.00
H1483  H     0.57312   0.54512   0.39173   0.00000  Uiso   1.00
H1484  H     0.62483   0.52492   0.37472   0.00000  Uiso   1.00
H1485  H     0.63695   0.63385   0.63026   0.00000  Uiso   1.00
H1486  H     0.67659   0.59111   0.63690   0.00000  Uiso   1.00
H1487  H     0.63263   0.57871   0.59978   0.00000  Uiso   1.00
H1488  H     0.77215   0.85265   0.53407   0.00000  Uiso   1.00
H1489  H     0.78798   0.79757   0.50879   0.00000  Uiso   1.00
H1490  H     0.58527   0.79336   0.61602   0.00000  Uiso   1.00
H1491  H     0.73961   0.82375   0.49145   0.00000  Uiso   1.00
H1492  H     0.53122   0.84610   0.39011   0.00000  Uiso   1.00
N1493  N     0.50000   0.75000   0.61736   0.00000  Uiso   1.00
N1494  N     0.77193   0.57760   0.62367   0.00000  Uiso   1.00
N1495  N     0.75435   0.58060   0.38826   0.00000  Uiso   1.00
N1496  N     0.75121   0.91929   0.61176   0.00000  Uiso   1.00
N1497  N     0.50000   0.75000   0.38264   0.00000  Uiso   1.00
N1498  N     0.75000   0.50000   0.61736   0.00000  Uiso   1.00
N1499  N     0.75000   0.50000   0.38264   0.00000  Uiso   1.00
N1500  N     0.52030   0.67187   0.37607   0.00000  Uiso   1.00
N1501  N     0.52572   0.82650   0.62500   0.00000  Uiso   1.00
N1502  N     0.50175   0.83083   0.38788   0.00000  Uiso   1.00
N1503  N     0.50296   0.66942   0.61180   0.00000  Uiso   1.00
N1504  N     0.77008   0.92154   0.37616   0.00000  Uiso   1.00
O1505  O     0.54509   0.70491   0.53958   0.00000  Uiso   1.00
O1506  O     0.70492   0.54509   0.46042   0.00000  Uiso   1.00
O1507  O     0.70492   0.54509   0.53958   0.00000  Uiso   1.00
O1508  O     0.79509   0.95491   0.46042   0.00000  Uiso   1.00
O1509  O     0.70492   0.95491   0.46042   0.00000  Uiso   1.00
O1510  O     0.79509   0.54509   0.53958   0.00000  Uiso   1.00
O1511  O     0.79509   0.54509   0.46042   0.00000  Uiso   1.00
O1512  O     0.70492   0.95491   0.53958   0.00000  Uiso   1.00
O1513  O     0.93516   0.61956   0.43005   0.00000  Uiso   1.00
O1514  O     0.54676   0.89795   0.54278   0.00000  Uiso   1.00
O1515  O     0.62997   0.79521   0.44611   0.00000  Uiso   1.00
O1516  O     0.95492   0.79509   0.46042   0.00000  Uiso   1.00
O1517  O     0.86800   0.70658   0.55438   0.00000  Uiso   1.00
O1518  O     0.62355   0.69673   0.56625   0.00000  Uiso   1.00
O1519  O     0.86091   0.78786   0.46031   0.00000  Uiso   1.00
O1520  O     0.94534   0.89059   0.55654   0.00000  Uiso   1.00
O1521  O     0.54957   0.60646   0.45004   0.00000  Uiso   1.00
O1522  O     0.68977   0.86479   0.43571   0.00000  Uiso   1.00
O1523  O     0.80017   0.64312   0.55139   0.00000  Uiso   1.00
O1524  O     0.87758   0.54850   0.44061   0.00000  Uiso   1.00
O1525  O     0.61613   0.95918   0.54952   0.00000  Uiso   1.00
O1526  O     0.89050   0.96147   0.53594   0.00000  Uiso   1.00
O1527  O     0.95492   0.79509   0.53958   0.00000  Uiso   1.00
O1528  O     0.61879   0.54428   0.44374   0.00000  Uiso   1.00
O1529  O     0.67960   0.62323   0.57568   0.00000  Uiso   1.00
O1530  O     0.79389   0.85139   0.46540   0.00000  Uiso   1.00
O1531  O     0.54509   0.70491   0.46042   0.00000  Uiso   1.00
O1532  O     0.95492   0.70491   0.46042   0.00000  Uiso   1.00
O1533  O     0.54509   0.79509   0.53958   0.00000  Uiso   1.00
O1534  O     0.54509   0.79509   0.46042   0.00000  Uiso   1.00
O1535  O     0.95492   0.70491   0.53958   0.00000  Uiso   1.00
O1536  O     0.79509   0.95491   0.53958   0.00000  Uiso   1.00
C1537  C     0.05908   0.19030   0.83292   0.00000  Uiso   1.00
C1538  C     0.00552   0.28918   0.97781   0.00000  Uiso   1.00
C1539  C     0.00013   0.28960   0.69388   0.00000  Uiso   1.00
C1540  C     0.49954   0.21037   0.97267   0.00000  Uiso   1.00
C1541  C     0.25406   0.46054   0.68897   0.00000  Uiso   1.00
C1542  C     0.25488   0.03929   0.97766   0.00000  Uiso   1.00
C1543  C     0.25059   0.03968   0.69396   0.00000  Uiso   1.00
C1544  C     0.24954   0.46035   0.97270   0.00000  Uiso   1.00
C1545  C     0.40594   0.12174   0.79916   0.00000  Uiso   1.00
C1546  C     0.08619   0.38597   0.85795   0.00000  Uiso   1.00
C1547  C     0.12786   0.33517   0.80657   0.00000  Uiso   1.00
C1548  C     0.44030   0.30910   0.83414   0.00000  Uiso   1.00
C1549  C     0.37104   0.16564   0.86229   0.00000  Uiso   1.00
C1550  C     0.12474   0.16075   0.86676   0.00000  Uiso   1.00
C1551  C     0.36758   0.33130   0.81204   0.00000  Uiso   1.00
C1552  C     0.41060   0.38295   0.86124   0.00000  Uiso   1.00
C1553  C     0.08782   0.11628   0.80546   0.00000  Uiso   1.00
C1554  C     0.15794   0.36956   0.80193   0.00000  Uiso   1.00
C1555  C     0.33763   0.13403   0.86089   0.00000  Uiso   1.00
C1556  C     0.37658   0.08677   0.80365   0.00000  Uiso   1.00
C1557  C     0.12010   0.41703   0.86002   0.00000  Uiso   1.00
C1558  C     0.38052   0.41711   0.85630   0.00000  Uiso   1.00
C1559  C     0.44016   0.19107   0.83258   0.00000  Uiso   1.00
C1560  C     0.12145   0.08488   0.80329   0.00000  Uiso   1.00
C1561  C     0.15384   0.12535   0.87031   0.00000  Uiso   1.00
C1562  C     0.33442   0.36316   0.81389   0.00000  Uiso   1.00
C1563  C     0.09193   0.34383   0.83446   0.00000  Uiso   1.00
C1564  C     0.40526   0.15891   0.83124   0.00000  Uiso   1.00
C1565  C     0.40564   0.34156   0.83599   0.00000  Uiso   1.00
C1566  C     0.09214   0.15622   0.83329   0.00000  Uiso   1.00
C1567  C     0.34230   0.09340   0.83433   0.00000  Uiso   1.00
C1568  C     0.15573   0.40850   0.83144   0.00000  Uiso   1.00
C1569  C     0.15491   0.09057   0.83549   0.00000  Uiso   1.00
C1570  C     0.05842   0.31034   0.83398   0.00000  Uiso   1.00
C1571  C     0.34254   0.40696   0.83230   0.00000  Uiso   1.00
C1572  C     0.06422   0.16118   0.69667   0.00000  Uiso   1.00
C1573  C     0.07177   0.32568   0.96384   0.00000  Uiso   1.00
C1574  C     0.46640   0.36178   0.71702   0.00000  Uiso   1.00
C1575  C     0.46888   0.13701   0.94793   0.00000  Uiso   1.00
C1576  C     0.31590   0.41595   0.70411   0.00000  Uiso   1.00
C1577  C     0.31586   0.08830   0.96978   0.00000  Uiso   1.00
C1578  C     0.21942   0.11222   0.72019   0.00000  Uiso   1.00
C1579  C     0.21596   0.38819   0.94799   0.00000  Uiso   1.00
C1580  C     0.41396   0.12766   0.72126   0.00000  Uiso   1.00
C1581  C     0.30915   0.44049   0.83275   0.00000  Uiso   1.00
C1582  C     0.02521   0.42391   0.84365   0.00000  Uiso   1.00
C1583  C     0.16729   0.27100   0.78954   0.00000  Uiso   1.00
C1584  C     0.35994   0.20039   0.93513   0.00000  Uiso   1.00
C1585  C     0.16314   0.21925   0.90282   0.00000  Uiso   1.00
C1586  C     0.35799   0.28833   0.74490   0.00000  Uiso   1.00
C1587  C     0.43363   0.38099   0.93563   0.00000  Uiso   1.00
C1588  C     0.02407   0.08227   0.81371   0.00000  Uiso   1.00
C1589  C     0.17183   0.37043   0.72476   0.00000  Uiso   1.00
C1590  C     0.27253   0.16623   0.85565   0.00000  Uiso   1.00
C1591  C     0.41459   0.02289   0.78173   0.00000  Uiso   1.00
C1592  C     0.18996   0.05865   0.83404   0.00000  Uiso   1.00
C1593  C     0.10733   0.45523   0.93046   0.00000  Uiso   1.00
C1594  C     0.38021   0.47164   0.91629   0.00000  Uiso   1.00
C1595  C     0.10785   0.05063   0.73035   0.00000  Uiso   1.00
C1596  C     0.15493   0.10617   0.94516   0.00000  Uiso   1.00
C1597  C     0.27299   0.33048   0.83514   0.00000  Uiso   1.00
C1598  C     0.19044   0.44079   0.83260   0.00000  Uiso   1.00
C1599  C     0.30895   0.05976   0.83394   0.00000  Uiso   1.00
C1600  C     0.00382   0.21060   0.68898   0.00000  Uiso   1.00
Cu1601 Cu    0.00000   0.25000   0.88022   0.00000  Uiso   1.00
Cu1602 Cu    0.00000   0.25000   0.78645   0.00000  Uiso   1.00
Cu1603 Cu    0.25000   0.00000   0.88022   0.00000  Uiso   1.00
Cu1604 Cu    0.25000   0.00000   0.78645   0.00000  Uiso   1.00
H1605  H     0.00036   0.14439   0.70730   0.00000  Uiso   1.00
H1606  H     0.45347   0.37101   0.75197   0.00000  Uiso   1.00
H1607  H     0.44031   0.34684   0.69519   0.00000  Uiso   1.00
H1608  H     0.47762   0.39323   0.70192   0.00000  Uiso   1.00
H1609  H     0.03308   0.15565   0.94236   0.00000  Uiso   1.00
H1610  H     0.46060   0.12358   0.91248   0.00000  Uiso   1.00
H1611  H     0.43999   0.15269   0.96377   0.00000  Uiso   1.00
H1612  H     0.47947   0.10839   0.96834   0.00000  Uiso   1.00
H1613  H     0.25403   0.39240   0.69998   0.00000  Uiso   1.00
H1614  H     0.33313   0.44688   0.71675   0.00000  Uiso   1.00
H1615  H     0.32469   0.40845   0.66739   0.00000  Uiso   1.00
H1616  H     0.08453   0.16148   0.72796   0.00000  Uiso   1.00
H1617  H     0.32696   0.38741   0.72411   0.00000  Uiso   1.00
H1618  H     0.25197   0.10506   0.95679   0.00000  Uiso   1.00
H1619  H     0.32985   0.06364   0.99326   0.00000  Uiso   1.00
H1620  H     0.31757   0.12243   0.98724   0.00000  Uiso   1.00
H1621  H     0.33621   0.08751   0.93854   0.00000  Uiso   1.00
H1622  H     0.28404   0.09541   0.72192   0.00000  Uiso   1.00
H1623  H     0.21948   0.13405   0.75256   0.00000  Uiso   1.00
H1624  H     0.18858   0.09424   0.71805   0.00000  Uiso   1.00
H1625  H     0.22294   0.13412   0.69050   0.00000  Uiso   1.00
H1626  H     0.28075   0.40448   0.94112   0.00000  Uiso   1.00
H1627  H     0.07837   0.18613   0.67366   0.00000  Uiso   1.00
H1628  H     0.20443   0.37836   0.91259   0.00000  Uiso   1.00
H1629  H     0.18908   0.40347   0.96812   0.00000  Uiso   1.00
H1630  H     0.22686   0.35705   0.96401   0.00000  Uiso   1.00
H1631  H     0.42667   0.10384   0.69392   0.00000  Uiso   1.00
H1632  H     0.42057   0.16264   0.71170   0.00000  Uiso   1.00
H1633  H     0.37864   0.12284   0.72143   0.00000  Uiso   1.00
H1634  H     0.49976   0.44372   0.86187   0.00000  Uiso   1.00
H1635  H     0.01023   0.40141   0.81629   0.00000  Uiso   1.00
H1636  H     0.04602   0.44900   0.82727   0.00000  Uiso   1.00
H1637  H     0.19295   0.27867   0.76469   0.00000  Uiso   1.00
H1638  H     0.06583   0.12736   0.67853   0.00000  Uiso   1.00
H1639  H     0.16023   0.23447   0.78491   0.00000  Uiso   1.00
H1640  H     0.17877   0.27753   0.82577   0.00000  Uiso   1.00
H1641  H     0.37036   0.16706   0.94685   0.00000  Uiso   1.00
H1642  H     0.32547   0.20537   0.94255   0.00000  Uiso   1.00
H1643  H     0.37772   0.22649   0.95615   0.00000  Uiso   1.00
H1644  H     0.18215   0.20665   0.93193   0.00000  Uiso   1.00
H1645  H     0.15704   0.25559   0.91078   0.00000  Uiso   1.00
H1646  H     0.18194   0.21639   0.87016   0.00000  Uiso   1.00
H1647  H     0.38477   0.30719   0.72980   0.00000  Uiso   1.00
H1648  H     0.32690   0.30227   0.73398   0.00000  Uiso   1.00
H1649  H     0.01345   0.35729   0.96931   0.00000  Uiso   1.00
H1650  H     0.35991   0.25311   0.73036   0.00000  Uiso   1.00
H1651  H     0.45250   0.40309   0.95991   0.00000  Uiso   1.00
H1652  H     0.44087   0.34546   0.94216   0.00000  Uiso   1.00
H1653  H     0.39937   0.38692   0.94421   0.00000  Uiso   1.00
H1654  H     0.01376   0.10415   0.84410   0.00000  Uiso   1.00
H1655  H     0.04054   0.05164   0.82546   0.00000  Uiso   1.00
H1656  H     0.49517   0.07064   0.79481   0.00000  Uiso   1.00
H1657  H     0.13787   0.35976   0.72083   0.00000  Uiso   1.00
H1658  H     0.19004   0.34922   0.69914   0.00000  Uiso   1.00
H1659  H     0.17438   0.40628   0.71617   0.00000  Uiso   1.00
H1660  H     0.08089   0.32981   0.66762   0.00000  Uiso   1.00
H1661  H     0.24287   0.17387   0.87510   0.00000  Uiso   1.00
H1662  H     0.26383   0.14506   0.82414   0.00000  Uiso   1.00
H1663  H     0.28646   0.19883   0.84582   0.00000  Uiso   1.00
H1664  H     0.43971   0.03135   0.75660   0.00000  Uiso   1.00
H1665  H     0.40671   0.48676   0.77502   0.00000  Uiso   1.00
H1666  H     0.42703   0.02685   0.81797   0.00000  Uiso   1.00
H1667  H     0.12191   0.42491   0.94502   0.00000  Uiso   1.00
H1668  H     0.07238   0.45547   0.93652   0.00000  Uiso   1.00
H1669  H     0.12083   0.48505   0.95000   0.00000  Uiso   1.00
H1670  H     0.35580   0.44907   0.93081   0.00000  Uiso   1.00
H1671  H     0.08626   0.35357   0.94544   0.00000  Uiso   1.00
H1672  H     0.36727   0.00639   0.91946   0.00000  Uiso   1.00
H1673  H     0.40964   0.47122   0.93764   0.00000  Uiso   1.00
H1674  H     0.11713   0.08413   0.71829   0.00000  Uiso   1.00
H1675  H     0.07312   0.04512   0.72506   0.00000  Uiso   1.00
H1676  H     0.12483   0.02492   0.70805   0.00000  Uiso   1.00
H1677  H     0.13695   0.13385   0.96360   0.00000  Uiso   1.00
H1678  H     0.17659   0.09111   0.97024   0.00000  Uiso   1.00
H1679  H     0.13263   0.07871   0.93312   0.00000  Uiso   1.00
H1680  H     0.27215   0.35265   0.86740   0.00000  Uiso   1.00
H1681  H     0.28798   0.29757   0.84213   0.00000  Uiso   1.00
H1682  H     0.08527   0.29336   0.94936   0.00000  Uiso   1.00
H1683  H     0.23961   0.32375   0.82479   0.00000  Uiso   1.00
H1684  H     0.03122   0.34610   0.72344   0.00000  Uiso   1.00
N1685  N     0.00000   0.25000   0.95069   0.00000  Uiso   1.00
N1686  N     0.27193   0.07760   0.95700   0.00000  Uiso   1.00
N1687  N     0.25435   0.08060   0.72159   0.00000  Uiso   1.00
N1688  N     0.25121   0.41929   0.94509   0.00000  Uiso   1.00
N1689  N     0.00000   0.25000   0.71598   0.00000  Uiso   1.00
N1690  N     0.25000   0.00000   0.95069   0.00000  Uiso   1.00
N1691  N     0.25000   0.00000   0.71598   0.00000  Uiso   1.00
N1692  N     0.02030   0.17187   0.70940   0.00000  Uiso   1.00
N1693  N     0.02572   0.32650   0.95833   0.00000  Uiso   1.00
N1694  N     0.00175   0.33083   0.72121   0.00000  Uiso   1.00
N1695  N     0.00296   0.16942   0.94513   0.00000  Uiso   1.00
N1696  N     0.27008   0.42154   0.70950   0.00000  Uiso   1.00
O1697  O     0.04509   0.20491   0.87291   0.00000  Uiso   1.00
O1698  O     0.20492   0.04509   0.79375   0.00000  Uiso   1.00
O1699  O     0.20492   0.04509   0.87291   0.00000  Uiso   1.00
O1700  O     0.29509   0.45491   0.79375   0.00000  Uiso   1.00
O1701  O     0.20492   0.45491   0.79375   0.00000  Uiso   1.00
O1702  O     0.29509   0.04509   0.87291   0.00000  Uiso   1.00
O1703  O     0.29509   0.04509   0.79375   0.00000  Uiso   1.00
O1704  O     0.20492   0.45491   0.87291   0.00000  Uiso   1.00
O1705  O     0.43516   0.11956   0.76338   0.00000  Uiso   1.00
O1706  O     0.04676   0.39795   0.87611   0.00000  Uiso   1.00
O1707  O     0.12997   0.29521   0.77944   0.00000  Uiso   1.00
O1708  O     0.45492   0.29509   0.79375   0.00000  Uiso   1.00
O1709  O     0.36800   0.20658   0.88772   0.00000  Uiso   1.00
O1710  O     0.12355   0.19673   0.89958   0.00000  Uiso   1.00
O1711  O     0.36091   0.28786   0.79364   0.00000  Uiso   1.00
O1712  O     0.44534   0.39059   0.88988   0.00000  Uiso   1.00
O1713  O     0.04957   0.10646   0.78338   0.00000  Uiso   1.00
O1714  O     0.18977   0.36479   0.76904   0.00000  Uiso   1.00
O1715  O     0.30017   0.14312   0.88472   0.00000  Uiso   1.00
O1716  O     0.37758   0.04850   0.77394   0.00000  Uiso   1.00
O1717  O     0.11613   0.45918   0.88285   0.00000  Uiso   1.00
O1718  O     0.39050   0.46147   0.86927   0.00000  Uiso   1.00
O1719  O     0.45492   0.29509   0.87291   0.00000  Uiso   1.00
O1720  O     0.11879   0.04428   0.77707   0.00000  Uiso   1.00
O1721  O     0.17960   0.12323   0.90901   0.00000  Uiso   1.00
O1722  O     0.29389   0.35139   0.79873   0.00000  Uiso   1.00
O1723  O     0.04509   0.20491   0.79375   0.00000  Uiso   1.00
O1724  O     0.45492   0.20491   0.79375   0.00000  Uiso   1.00
O1725  O     0.04509   0.29509   0.87291   0.00000  Uiso   1.00
O1726  O     0.04509   0.29509   0.79375   0.00000  Uiso   1.00
O1727  O     0.45492   0.20491   0.87291   0.00000  Uiso   1.00
O1728  O     0.29509   0.45491   0.87291   0.00000  Uiso   1.00
C1729  C     0.55908   0.19030   0.83292   0.00000  Uiso   1.00
C1730  C     0.50552   0.28918   0.97781   0.00000  Uiso   1.00
C1731  C     0.50013   0.28960   0.69388   0.00000  Uiso   1.00
C1732  C     0.99954   0.21037   0.97267   0.00000  Uiso   1.00
C1733  C     0.75406   0.46054   0.68897   0.00000  Uiso   1.00
C1734  C     0.75488   0.03929   0.97766   0.00000  Uiso   1.00
C1735  C     0.75059   0.03968   0.69396   0.00000  Uiso   1.00
C1736  C     0.74954   0.46035   0.97270   0.00000  Uiso   1.00
C1737  C     0.90594   0.12174   0.79916   0.00000  Uiso   1.00
C1738  C     0.58619   0.38597   0.85795   0.00000  Uiso   1.00
C1739  C     0.62786   0.33517   0.80657   0.00000  Uiso   1.00
C1740  C     0.94030   0.30910   0.83414   0.00000  Uiso   1.00
C1741  C     0.87104   0.16564   0.86229   0.00000  Uiso   1.00
C1742  C     0.62474   0.16075   0.86676   0.00000  Uiso   1.00
C1743  C     0.86758   0.33130   0.81204   0.00000  Uiso   1.00
C1744  C     0.91060   0.38295   0.86124   0.00000  Uiso   1.00
C1745  C     0.58782   0.11628   0.80546   0.00000  Uiso   1.00
C1746  C     0.65794   0.36956   0.80193   0.00000  Uiso   1.00
C1747  C     0.83763   0.13403   0.86089   0.00000  Uiso   1.00
C1748  C     0.87658   0.08677   0.80365   0.00000  Uiso   1.00
C1749  C     0.62010   0.41703   0.86002   0.00000  Uiso   1.00
C1750  C     0.88052   0.41711   0.85630   0.00000  Uiso   1.00
C1751  C     0.94016   0.19107   0.83258   0.00000  Uiso   1.00
C1752  C     0.62145   0.08488   0.80329   0.00000  Uiso   1.00
C1753  C     0.65384   0.12535   0.87031   0.00000  Uiso   1.00
C1754  C     0.83442   0.36316   0.81389   0.00000  Uiso   1.00
C1755  C     0.59193   0.34383   0.83446   0.00000  Uiso   1.00
C1756  C     0.90526   0.15891   0.83124   0.00000  Uiso   1.00
C1757  C     0.90564   0.34156   0.83599   0.00000  Uiso   1.00
C1758  C     0.59214   0.15622   0.83329   0.00000  Uiso   1.00
C1759  C     0.84230   0.09340   0.83433   0.00000  Uiso   1.00
C1760  C     0.65573   0.40850   0.83144   0.00000  Uiso   1.00
C1761  C     0.65491   0.09057   0.83549   0.00000  Uiso   1.00
C1762  C     0.55842   0.31034   0.83398   0.00000  Uiso   1.00
C1763  C     0.84254   0.40696   0.83230   0.00000  Uiso   1.00
C1764  C     0.56422   0.16118   0.69667   0.00000  Uiso   1.00
C1765  C     0.57177   0.32568   0.96384   0.00000  Uiso   1.00
C1766  C     0.96640   0.36178   0.71702   0.00000  Uiso   1.00
C1767  C     0.96888   0.13701   0.94793   0.00000  Uiso   1.00
C1768  C     0.81590   0.41595   0.70411   0.00000  Uiso   1.00
C1769  C     0.81586   0.08830   0.96978   0.00000  Uiso   1.00
C1770  C     0.71942   0.11222   0.72019   0.00000  Uiso   1.00
C1771  C     0.71596   0.38819   0.94799   0.00000  Uiso   1.00
C1772  C     0.91396   0.12766   0.72126   0.00000  Uiso   1.00
C1773  C     0.80915   0.44049   0.83275   0.00000  Uiso   1.00
C1774  C     0.52521   0.42391   0.84365   0.00000  Uiso   1.00
C1775  C     0.66729   0.27100   0.78954   0.00000  Uiso   1.00
C1776  C     0.85994   0.20039   0.93513   0.00000  Uiso   1.00
C1777  C     0.66314   0.21925   0.90282   0.00000  Uiso   1.00
C1778  C     0.85799   0.28833   0.74490   0.00000  Uiso   1.00
C1779  C     0.93363   0.38099   0.93563   0.00000  Uiso   1.00
C1780  C     0.52407   0.08227   0.81371   0.00000  Uiso   1.00
C1781  C     0.67183   0.37043   0.72476   0.00000  Uiso   1.00
C1782  C     0.77253   0.16623   0.85565   0.00000  Uiso   1.00
C1783  C     0.91459   0.02289   0.78173   0.00000  Uiso   1.00
C1784  C     0.68996   0.05865   0.83404   0.00000  Uiso   1.00
C1785  C     0.60733   0.45523   0.93046   0.00000  Uiso   1.00
C1786  C     0.88021   0.47164   0.91629   0.00000  Uiso   1.00
C1787  C     0.60785   0.05063   0.73035   0.00000  Uiso   1.00
C1788  C     0.65493   0.10617   0.94516   0.00000  Uiso   1.00
C1789  C     0.77299   0.33048   0.83514   0.00000  Uiso   1.00
C1790  C     0.69044   0.44079   0.83260   0.00000  Uiso   1.00
C1791  C     0.80895   0.05976   0.83394   0.00000  Uiso   1.00
C1792  C     0.50382   0.21060   0.68898   0.00000  Uiso   1.00
Cu1793 Cu    0.50000   0.25000   0.88022   0.00000  Uiso   1.00
Cu1794 Cu    0.50000   0.25000   0.78645   0.00000  Uiso   1.00
Cu1795 Cu    0.75000   0.00000   0.88022   0.00000  Uiso   1.00
Cu1796 Cu    0.75000   0.00000   0.78645   0.00000  Uiso   1.00
H1797  H     0.50036   0.14439   0.70730   0.00000  Uiso   1.00
H1798  H     0.95347   0.37101   0.75197   0.00000  Uiso   1.00
H1799  H     0.94031   0.34684   0.69519   0.00000  Uiso   1.00
H1800  H     0.97762   0.39323   0.70192   0.00000  Uiso   1.00
H1801  H     0.53308   0.15565   0.94236   0.00000  Uiso   1.00
H1802  H     0.96060   0.12358   0.91248   0.00000  Uiso   1.00
H1803  H     0.93999   0.15269   0.96377   0.00000  Uiso   1.00
H1804  H     0.97947   0.10839   0.96834   0.00000  Uiso   1.00
H1805  H     0.75403   0.39240   0.69998   0.00000  Uiso   1.00
H1806  H     0.83313   0.44688   0.71675   0.00000  Uiso   1.00
H1807  H     0.82469   0.40845   0.66739   0.00000  Uiso   1.00
H1808  H     0.58453   0.16148   0.72796   0.00000  Uiso   1.00
H1809  H     0.82696   0.38741   0.72411   0.00000  Uiso   1.00
H1810  H     0.75197   0.10506   0.95679   0.00000  Uiso   1.00
H1811  H     0.82985   0.06364   0.99326   0.00000  Uiso   1.00
H1812  H     0.81757   0.12243   0.98724   0.00000  Uiso   1.00
H1813  H     0.83621   0.08751   0.93854   0.00000  Uiso   1.00
H1814  H     0.78404   0.09541   0.72192   0.00000  Uiso   1.00
H1815  H     0.71948   0.13405   0.75256   0.00000  Uiso   1.00
H1816  H     0.68858   0.09424   0.71805   0.00000  Uiso   1.00
H1817  H     0.72294   0.13412   0.69050   0.00000  Uiso   1.00
H1818  H     0.78075   0.40448   0.94112   0.00000  Uiso   1.00
H1819  H     0.57837   0.18613   0.67366   0.00000  Uiso   1.00
H1820  H     0.70443   0.37836   0.91259   0.00000  Uiso   1.00
H1821  H     0.68908   0.40347   0.96812   0.00000  Uiso   1.00
H1822  H     0.72686   0.35705   0.96401   0.00000  Uiso   1.00
H1823  H     0.92667   0.10384   0.69392   0.00000  Uiso   1.00
H1824  H     0.92057   0.16264   0.71170   0.00000  Uiso   1.00
H1825  H     0.87864   0.12284   0.72143   0.00000  Uiso   1.00
H1826  H     0.99976   0.44372   0.86187   0.00000  Uiso   1.00
H1827  H     0.51023   0.40141   0.81629   0.00000  Uiso   1.00
H1828  H     0.54602   0.44900   0.82727   0.00000  Uiso   1.00
H1829  H     0.69295   0.27867   0.76469   0.00000  Uiso   1.00
H1830  H     0.56583   0.12736   0.67853   0.00000  Uiso   1.00
H1831  H     0.66023   0.23447   0.78491   0.00000  Uiso   1.00
H1832  H     0.67877   0.27753   0.82577   0.00000  Uiso   1.00
H1833  H     0.87036   0.16706   0.94685   0.00000  Uiso   1.00
H1834  H     0.82547   0.20537   0.94255   0.00000  Uiso   1.00
H1835  H     0.87772   0.22649   0.95615   0.00000  Uiso   1.00
H1836  H     0.68215   0.20665   0.93193   0.00000  Uiso   1.00
H1837  H     0.65704   0.25559   0.91078   0.00000  Uiso   1.00
H1838  H     0.68194   0.21639   0.87016   0.00000  Uiso   1.00
H1839  H     0.88477   0.30719   0.72980   0.00000  Uiso   1.00
H1840  H     0.82690   0.30227   0.73398   0.00000  Uiso   1.00
H1841  H     0.51345   0.35729   0.96931   0.00000  Uiso   1.00
H1842  H     0.85991   0.25311   0.73036   0.00000  Uiso   1.00
H1843  H     0.95250   0.40309   0.95991   0.00000  Uiso   1.00
H1844  H     0.94087   0.34546   0.94216   0.00000  Uiso   1.00
H1845  H     0.89937   0.38692   0.94421   0.00000  Uiso   1.00
H1846  H     0.51376   0.10415   0.84410   0.00000  Uiso   1.00
H1847  H     0.54054   0.05164   0.82546   0.00000  Uiso   1.00
H1848  H     0.99517   0.07064   0.79481   0.00000  Uiso   1.00
H1849  H     0.63787   0.35976   0.72083   0.00000  Uiso   1.00
H1850  H     0.69004   0.34922   0.69914   0.00000  Uiso   1.00
H1851  H     0.67438   0.40628   0.71617   0.00000  Uiso   1.00
H1852  H     0.58089   0.32981   0.66762   0.00000  Uiso   1.00
H1853  H     0.74287   0.17387   0.87510   0.00000  Uiso   1.00
H1854  H     0.76383   0.14506   0.82414   0.00000  Uiso   1.00
H1855  H     0.78646   0.19883   0.84582   0.00000  Uiso   1.00
H1856  H     0.93971   0.03135   0.75660   0.00000  Uiso   1.00
H1857  H     0.90671   0.48676   0.77502   0.00000  Uiso   1.00
H1858  H     0.92703   0.02685   0.81797   0.00000  Uiso   1.00
H1859  H     0.62191   0.42491   0.94502   0.00000  Uiso   1.00
H1860  H     0.57238   0.45547   0.93652   0.00000  Uiso   1.00
H1861  H     0.62083   0.48505   0.95000   0.00000  Uiso   1.00
H1862  H     0.85580   0.44907   0.93081   0.00000  Uiso   1.00
H1863  H     0.58626   0.35357   0.94544   0.00000  Uiso   1.00
H1864  H     0.86727   0.00639   0.91946   0.00000  Uiso   1.00
H1865  H     0.90964   0.47122   0.93764   0.00000  Uiso   1.00
H1866  H     0.61713   0.08413   0.71829   0.00000  Uiso   1.00
H1867  H     0.57312   0.04512   0.72506   0.00000  Uiso   1.00
H1868  H     0.62483   0.02492   0.70805   0.00000  Uiso   1.00
H1869  H     0.63695   0.13385   0.96360   0.00000  Uiso   1.00
H1870  H     0.67659   0.09111   0.97024   0.00000  Uiso   1.00
H1871  H     0.63263   0.07871   0.93312   0.00000  Uiso   1.00
H1872  H     0.77215   0.35265   0.86740   0.00000  Uiso   1.00
H1873  H     0.78798   0.29757   0.84213   0.00000  Uiso   1.00
H1874  H     0.58527   0.29336   0.94936   0.00000  Uiso   1.00
H1875  H     0.73961   0.32375   0.82479   0.00000  Uiso   1.00
H1876  H     0.53122   0.34610   0.72344   0.00000  Uiso   1.00
N1877  N     0.50000   0.25000   0.95069   0.00000  Uiso   1.00
N1878  N     0.77193   0.07760   0.95700   0.00000  Uiso   1.00
N1879  N     0.75435   0.08060   0.72159   0.00000  Uiso   1.00
N1880  N     0.75121   0.41929   0.94509   0.00000  Uiso   1.00
N1881  N     0.50000   0.25000   0.71598   0.00000  Uiso   1.00
N1882  N     0.75000   0.00000   0.95069   0.00000  Uiso   1.00
N1883  N     0.75000   0.00000   0.71598   0.00000  Uiso   1.00
N1884  N     0.52030   0.17187   0.70940   0.00000  Uiso   1.00
N1885  N     0.52572   0.32650   0.95833   0.00000  Uiso   1.00
N1886  N     0.50175   0.33083   0.72121   0.00000  Uiso   1.00
N1887  N     0.50296   0.16942   0.94513   0.00000  Uiso   1.00
N1888  N     0.77008   0.42154   0.70950   0.00000  Uiso   1.00
O1889  O     0.54509   0.20491   0.87291   0.00000  Uiso   1.00
O1890  O     0.70492   0.04509   0.79375   0.00000  Uiso   1.00
O1891  O     0.70492   0.04509   0.87291   0.00000  Uiso   1.00
O1892  O     0.79509   0.45491   0.79375   0.00000  Uiso   1.00
O1893  O     0.70492   0.45491   0.79375   0.00000  Uiso   1.00
O1894  O     0.79509   0.04509   0.87291   0.00000  Uiso   1.00
O1895  O     0.79509   0.04509   0.79375   0.00000  Uiso   1.00
O1896  O     0.70492   0.45491   0.87291   0.00000  Uiso   1.00
O1897  O     0.93516   0.11956   0.76338   0.00000  Uiso   1.00
O1898  O     0.54676   0.39795   0.87611   0.00000  Uiso   1.00
O1899  O     0.62997   0.29521   0.77944   0.00000  Uiso   1.00
O1900  O     0.95492   0.29509   0.79375   0.00000  Uiso   1.00
O1901  O     0.86800   0.20658   0.88772   0.00000  Uiso   1.00
O1902  O     0.62355   0.19673   0.89958   0.00000  Uiso   1.00
O1903  O     0.86091   0.28786   0.79364   0.00000  Uiso   1.00
O1904  O     0.94534   0.39059   0.88988   0.00000  Uiso   1.00
O1905  O     0.54957   0.10646   0.78338   0.00000  Uiso   1.00
O1906  O     0.68977   0.36479   0.76904   0.00000  Uiso   1.00
O1907  O     0.80017   0.14312   0.88472   0.00000  Uiso   1.00
O1908  O     0.87758   0.04850   0.77394   0.00000  Uiso   1.00
O1909  O     0.61613   0.45918   0.88285   0.00000  Uiso   1.00
O1910  O     0.89050   0.46147   0.86927   0.00000  Uiso   1.00
O1911  O     0.95492   0.29509   0.87291   0.00000  Uiso   1.00
O1912  O     0.61879   0.04428   0.77707   0.00000  Uiso   1.00
O1913  O     0.67960   0.12323   0.90901   0.00000  Uiso   1.00
O1914  O     0.79389   0.35139   0.79873   0.00000  Uiso   1.00
O1915  O     0.54509   0.20491   0.79375   0.00000  Uiso   1.00
O1916  O     0.95492   0.20491   0.79375   0.00000  Uiso   1.00
O1917  O     0.54509   0.29509   0.87291   0.00000  Uiso   1.00
O1918  O     0.54509   0.29509   0.79375   0.00000  Uiso   1.00
O1919  O     0.95492   0.20491   0.87291   0.00000  Uiso   1.00
O1920  O     0.79509   0.45491   0.87291   0.00000  Uiso   1.00
C1921  C     0.05908   0.69030   0.83292   0.00000  Uiso   1.00
C1922  C     0.00552   0.78918   0.97781   0.00000  Uiso   1.00
C1923  C     0.00013   0.78960   0.69388   0.00000  Uiso   1.00
C1924  C     0.49954   0.71037   0.97267   0.00000  Uiso   1.00
C1925  C     0.25406   0.96054   0.68897   0.00000  Uiso   1.00
C1926  C     0.25488   0.53929   0.97766   0.00000  Uiso   1.00
C1927  C     0.25059   0.53968   0.69396   0.00000  Uiso   1.00
C1928  C     0.24954   0.96035   0.97270   0.00000  Uiso   1.00
C1929  C     0.40594   0.62174   0.79916   0.00000  Uiso   1.00
C1930  C     0.08619   0.88597   0.85795   0.00000  Uiso   1.00
C1931  C     0.12786   0.83517   0.80657   0.00000  Uiso   1.00
C1932  C     0.44030   0.80910   0.83414   0.00000  Uiso   1.00
C1933  C     0.37104   0.66564   0.86229   0.00000  Uiso   1.00
C1934  C     0.12474   0.66075   0.86676   0.00000  Uiso   1.00
C1935  C     0.36758   0.83130   0.81204   0.00000  Uiso   1.00
C1936  C     0.41060   0.88295   0.86124   0.00000  Uiso   1.00
C1937  C     0.08782   0.61628   0.80546   0.00000  Uiso   1.00
C1938  C     0.15794   0.86956   0.80193   0.00000  Uiso   1.00
C1939  C     0.33763   0.63403   0.86089   0.00000  Uiso   1.00
C1940  C     0.37658   0.58677   0.80365   0.00000  Uiso   1.00
C1941  C     0.12010   0.91703   0.86002   0.00000  Uiso   1.00
C1942  C     0.38052   0.91711   0.85630   0.00000  Uiso   1.00
C1943  C     0.44016   0.69107   0.83258   0.00000  Uiso   1.00
C1944  C     0.12145   0.58488   0.80329   0.00000  Uiso   1.00
C1945  C     0.15384   0.62535   0.87031   0.00000  Uiso   1.00
C1946  C     0.33442   0.86316   0.81389   0.00000  Uiso   1.00
C1947  C     0.09193   0.84383   0.83446   0.00000  Uiso   1.00
C1948  C     0.40526   0.65891   0.83124   0.00000  Uiso   1.00
C1949  C     0.40564   0.84156   0.83599   0.00000  Uiso   1.00
C1950  C     0.09214   0.65622   0.83329   0.00000  Uiso   1.00
C1951  C     0.34230   0.59340   0.83433   0.00000  Uiso   1.00
C1952  C     0.15573   0.90850   0.83144   0.00000  Uiso   1.00
C1953  C     0.15491   0.59057   0.83549   0.00000  Uiso   1.00
C1954  C     0.05842   0.81034   0.83398   0.00000  Uiso   1.00
C1955  C     0.34254   0.90696   0.83230   0.00000  Uiso   1.00
C1956  C     0.06422   0.66118   0.69667   0.00000  Uiso   1.00
C1957  C     0.07177   0.82568   0.96384   0.00000  Uiso   1.00
C1958  C     0.46640   0.86178   0.71702   0.00000  Uiso   1.00
C1959  C     0.46888   0.63701   0.94793   0.00000  Uiso   1.00
C1960  C     0.31590   0.91595   0.70411   0.00000  Uiso   1.00
C1961  C     0.31586   0.58830   0.96978   0.00000  Uiso   1.00
C1962  C     0.21942   0.61222   0.72019   0.00000  Uiso   1.00
C1963  C     0.21596   0.88819   0.94799   0.00000  Uiso   1.00
C1964  C     0.41396   0.62766   0.72126   0.00000  Uiso   1.00
C1965  C     0.30915   0.94049   0.83275   0.00000  Uiso   1.00
C1966  C     0.02521   0.92391   0.84365   0.00000  Uiso   1.00
C1967  C     0.16729   0.77100   0.78954   0.00000  Uiso   1.00
C1968  C     0.35994   0.70039   0.93513   0.00000  Uiso   1.00
C1969  C     0.16314   0.71925   0.90282   0.00000  Uiso   1.00
C1970  C     0.35799   0.78833   0.74490   0.00000  Uiso   1.00
C1971  C     0.43363   0.88099   0.93563   0.00000  Uiso   1.00
C1972  C     0.02407   0.58227   0.81371   0.00000  Uiso   1.00
C1973  C     0.17183   0.87043   0.72476   0.00000  Uiso   1.00
C1974  C     0.27253   0.66623   0.85565   0.00000  Uiso   1.00
C1975  C     0.41459   0.52289   0.78173   0.00000  Uiso   1.00
C1976  C     0.18996   0.55865   0.83404   0.00000  Uiso   1.00
C1977  C     0.10733   0.95523   0.93046   0.00000  Uiso   1.00
C1978  C     0.38021   0.97164   0.91629   0.00000  Uiso   1.00
C1979  C     0.10785   0.55063   0.73035   0.00000  Uiso   1.00
C1980  C     0.15493   0.60617   0.94516   0.00000  Uiso   1.00
C1981  C     0.27299   0.83048   0.83514   0.00000  Uiso   1.00
C1982  C     0.19044   0.94079   0.83260   0.00000  Uiso   1.00
C1983  C     0.30895   0.55976   0.83394   0.00000  Uiso   1.00
C1984  C     0.00382   0.71060   0.68898   0.00000  Uiso   1.00
Cu1985 Cu    0.00000   0.75000   0.88022   0.00000  Uiso   1.00
Cu1986 Cu    0.00000   0.75000   0.78645   0.00000  Uiso   1.00
Cu1987 Cu    0.25000   0.50000   0.88022   0.00000  Uiso   1.00
Cu1988 Cu    0.25000   0.50000   0.78645   0.00000  Uiso   1.00
H1989  H     0.00036   0.64439   0.70730   0.00000  Uiso   1.00
H1990  H     0.45347   0.87101   0.75197   0.00000  Uiso   1.00
H1991  H     0.44031   0.84684   0.69519   0.00000  Uiso   1.00
H1992  H     0.47762   0.89323   0.70192   0.00000  Uiso   1.00
H1993  H     0.03308   0.65565   0.94236   0.00000  Uiso   1.00
H1994  H     0.46060   0.62358   0.91248   0.00000  Uiso   1.00
H1995  H     0.43999   0.65269   0.96377   0.00000  Uiso   1.00
H1996  H     0.47947   0.60839   0.96834   0.00000  Uiso   1.00
H1997  H     0.25403   0.89240   0.69998   0.00000  Uiso   1.00
H1998  H     0.33313   0.94688   0.71675   0.00000  Uiso   1.00
H1999  H     0.32469   0.90845   0.66739   0.00000  Uiso   1.00
H2000  H     0.08453   0.66148   0.72796   0.00000  Uiso   1.00
H2001  H     0.32696   0.88741   0.72411   0.00000  Uiso   1.00
H2002  H     0.25197   0.60506   0.95679   0.00000  Uiso   1.00
H2003  H     0.32985   0.56364   0.99326   0.00000  Uiso   1.00
H2004  H     0.31757   0.62243   0.98724   0.00000  Uiso   1.00
H2005  H     0.33621   0.58751   0.93854   0.00000  Uiso   1.00
H2006  H     0.28404   0.59541   0.72192   0.00000  Uiso   1.00
H2007  H     0.21948   0.63405   0.75256   0.00000  Uiso   1.00
H2008  H     0.18858   0.59424   0.71805   0.00000  Uiso   1.00
H2009  H     0.22294   0.63412   0.69050   0.00000  Uiso   1.00
H2010  H     0.28075   0.90448   0.94112   0.00000  Uiso   1.00
H2011  H     0.07837   0.68613   0.67366   0.00000  Uiso   1.00
H2012  H     0.20443   0.87836   0.91259   0.00000  Uiso   1.00
H2013  H     0.18908   0.90347   0.96812   0.00000  Uiso   1.00
H2014  H     0.22686   0.85705   0.96401   0.00000  Uiso   1.00
H2015  H     0.42667   0.60384   0.69392   0.00000  Uiso   1.00
H2016  H     0.42057   0.66264   0.71170   0.00000  Uiso   1.00
H2017  H     0.37864   0.62284   0.72143   0.00000  Uiso   1.00
H2018  H     0.49976   0.94372   0.86187   0.00000  Uiso   1.00
H2019  H     0.01023   0.90141   0.81629   0.00000  Uiso   1.00
H2020  H     0.04602   0.94900   0.82727   0.00000  Uiso   1.00
H2021  H     0.19295   0.77867   0.76469   0.00000  Uiso   1.00
H2022  H     0.06583   0.62736   0.67853   0.00000  Uiso   1.00
H2023  H     0.16023   0.73447   0.78491   0.00000  Uiso   1.00
H2024  H     0.17877   0.77753   0.82577   0.00000  Uiso   1.00
H2025  H     0.37036   0.66706   0.94685   0.00000  Uiso   1.00
H2026  H     0.32547   0.70537   0.94255   0.00000  Uiso   1.00
H2027  H     0.37772   0.72649   0.95615   0.00000  Uiso   1.00
H2028  H     0.18215   0.70665   0.93193   0.00000  Uiso   1.00
H2029  H     0.15704   0.75559   0.91078   0.00000  Uiso   1.00
H2030  H     0.18194   0.71639   0.87016   0.00000  Uiso   1.00
H2031  H     0.38477   0.80719   0.72980   0.00000  Uiso   1.00
H2032  H     0.32690   0.80227   0.73398   0.00000  Uiso   1.00
H2033  H     0.01345   0.85729   0.96931   0.00000  Uiso   1.00
H2034  H     0.35991   0.75311   0.73036   0.00000  Uiso   1.00
H2035  H     0.45250   0.90309   0.95991   0.00000  Uiso   1.00
H2036  H     0.44087   0.84546   0.94216   0.00000  Uiso   1.00
H2037  H     0.39937   0.88692   0.94421   0.00000  Uiso   1.00
H2038  H     0.01376   0.60415   0.84410   0.00000  Uiso   1.00
H2039  H     0.04054   0.55164   0.82546   0.00000  Uiso   1.00
H2040  H     0.49517   0.57064   0.79481   0.00000  Uiso   1.00
H2041  H     0.13787   0.85976   0.72083   0.00000  Uiso   1.00
H2042  H     0.19004   0.84922   0.69914   0.00000  Uiso   1.00
H2043  H     0.17438   0.90628   0.71617   0.00000  Uiso   1.00
H2044  H     0.08089   0.82981   0.66762   0.00000  Uiso   1.00
H2045  H     0.24287   0.67387   0.87510   0.00000  Uiso   1.00
H2046  H     0.26383   0.64506   0.82414   0.00000  Uiso   1.00
H2047  H     0.28646   0.69883   0.84582   0.00000  Uiso   1.00
H2048  H     0.43971   0.53135   0.75660   0.00000  Uiso   1.00
H2049  H     0.40671   0.98676   0.77502   0.00000  Uiso   1.00
H2050  H     0.42703   0.52685   0.81797   0.00000  Uiso   1.00
H2051  H     0.12191   0.92491   0.94502   0.00000  Uiso   1.00
H2052  H     0.07238   0.95547   0.93652   0.00000  Uiso   1.00
H2053  H     0.12083   0.98505   0.95000   0.00000  Uiso   1.00
H2054  H     0.35580   0.94907   0.93081   0.00000  Uiso   1.00
H2055  H     0.08626   0.85357   0.94544   0.00000  Uiso   1.00
H2056  H     0.36727   0.50639   0.91946   0.00000  Uiso   1.00
H2057  H     0.40964   0.97122   0.93764   0.00000  Uiso   1.00
H2058  H     0.11713   0.58413   0.71829   0.00000  Uiso   1.00
H2059  H     0.07312   0.54512   0.72506   0.00000  Uiso   1.00
H2060  H     0.12483   0.52492   0.70805   0.00000  Uiso   1.00
H2061  H     0.13695   0.63385   0.96360   0.00000  Uiso   1.00
H2062  H     0.17659   0.59111   0.97024   0.00000  Uiso   1.00
H2063  H     0.13263   0.57871   0.93312   0.00000  Uiso   1.00
H2064  H     0.27215   0.85265   0.86740   0.00000  Uiso   1.00
H2065  H     0.28798   0.79757   0.84213   0.00000  Uiso   1.00
H2066  H     0.08527   0.79336   0.94936   0.00000  Uiso   1.00
H2067  H     0.23961   0.82375   0.82479   0.00000  Uiso   1.00
H2068  H     0.03122   0.84610   0.72344   0.00000  Uiso   1.00
N2069  N     0.00000   0.75000   0.95069   0.00000  Uiso   1.00
N2070  N     0.27193   0.57760   0.95700   0.00000  Uiso   1.00
N2071  N     0.25435   0.58060   0.72159   0.00000  Uiso   1.00
N2072  N     0.25121   0.91929   0.94509   0.00000  Uiso   1.00
N2073  N     0.00000   0.75000   0.71598   0.00000  Uiso   1.00
N2074  N     0.25000   0.50000   0.95069   0.00000  Uiso   1.00
N2075  N     0.25000   0.50000   0.71598   0.00000  Uiso   1.00
N2076  N     0.02030   0.67187   0.70940   0.00000  Uiso   1.00
N2077  N     0.02572   0.82650   0.95833   0.00000  Uiso   1.00
N2078  N     0.00175   0.83083   0.72121   0.00000  Uiso   1.00
N2079  N     0.00296   0.66942   0.94513   0.00000  Uiso   1.00
N2080  N     0.27008   0.92154   0.70950   0.00000  Uiso   1.00
O2081  O     0.04509   0.70491   0.87291   0.00000  Uiso   1.00
O2082  O     0.20492   0.54509   0.79375   0.00000  Uiso   1.00
O2083  O     0.20492   0.54509   0.87291   0.00000  Uiso   1.00
O2084  O     0.29509   0.95491   0.79375   0.00000  Uiso   1.00
O2085  O     0.20492   0.95491   0.79375   0.00000  Uiso   1.00
O2086  O     0.29509   0.54509   0.87291   0.00000  Uiso   1.00
O2087  O     0.29509   0.54509   0.79375   0.00000  Uiso   1.00
O2088  O     0.20492   0.95491   0.87291   0.00000  Uiso   1.00
O2089  O     0.43516   0.61956   0.76338   0.00000  Uiso   1.00
O2090  O     0.04676   0.89795   0.87611   0.00000  Uiso   1.00
O2091  O     0.12997   0.79521   0.77944   0.00000  Uiso   1.00
O2092  O     0.45492   0.79509   0.79375   0.00000  Uiso   1.00
O2093  O     0.36800   0.70658   0.88772   0.00000  Uiso   1.00
O2094  O     0.12355   0.69673   0.89958   0.00000  Uiso   1.00
O2095  O     0.36091   0.78786   0.79364   0.00000  Uiso   1.00
O2096  O     0.44534   0.89059   0.88988   0.00000  Uiso   1.00
O2097  O     0.04957   0.60646   0.78338   0.00000  Uiso   1.00
O2098  O     0.18977   0.86479   0.76904   0.00000  Uiso   1.00
O2099  O     0.30017   0.64312   0.88472   0.00000  Uiso   1.00
O2100  O     0.37758   0.54850   0.77394   0.00000  Uiso   1.00
O2101  O     0.11613   0.95918   0.88285   0.00000  Uiso   1.00
O2102  O     0.39050   0.96147   0.86927   0.00000  Uiso   1.00
O2103  O     0.45492   0.79509   0.87291   0.00000  Uiso   1.00
O2104  O     0.11879   0.54428   0.77707   0.00000  Uiso   1.00
O2105  O     0.17960   0.62323   0.90901   0.00000  Uiso   1.00
O2106  O     0.29389   0.85139   0.79873   0.00000  Uiso   1.00
O2107  O     0.04509   0.70491   0.79375   0.00000  Uiso   1.00
O2108  O     0.45492   0.70491   0.79375   0.00000  Uiso   1.00
O2109  O     0.04509   0.79509   0.87291   0.00000  Uiso   1.00
O2110  O     0.04509   0.79509   0.79375   0.00000  Uiso   1.00
O2111  O     0.45492   0.70491   0.87291   0.00000  Uiso   1.00
O2112  O     0.29509   0.95491   0.87291   0.00000  Uiso   1.00
C2113  C     0.55908   0.69030   0.83292   0.00000  Uiso   1.00
C2114  C     0.50552   0.78918   0.97781   0.00000  Uiso   1.00
C2115  C     0.50013   0.78960   0.69388   0.00000  Uiso   1.00
C2116  C     0.99954   0.71037   0.97267   0.00000  Uiso   1.00
C2117  C     0.75406   0.96054   0.68897   0.00000  Uiso   1.00
C2118  C     0.75488   0.53929   0.97766   0.00000  Uiso   1.00
C2119  C     0.75059   0.53968   0.69396   0.00000  Uiso   1.00
C2120  C     0.74954   0.96035   0.97270   0.00000  Uiso   1.00
C2121  C     0.90594   0.62174   0.79916   0.00000  Uiso   1.00
C2122  C     0.58619   0.88597   0.85795   0.00000  Uiso   1.00
C2123  C     0.62786   0.83517   0.80657   0.00000  Uiso   1.00
C2124  C     0.94030   0.80910   0.83414   0.00000  Uiso   1.00
C2125  C     0.87104   0.66564   0.86229   0.00000  Uiso   1.00
C2126  C     0.62474   0.66075   0.86676   0.00000  Uiso   1.00
C2127  C     0.86758   0.83130   0.81204   0.00000  Uiso   1.00
C2128  C     0.91060   0.88295   0.86124   0.00000  Uiso   1.00
C2129  C     0.58782   0.61628   0.80546   0.00000  Uiso   1.00
C2130  C     0.65794   0.86956   0.80193   0.00000  Uiso   1.00
C2131  C     0.83763   0.63403   0.86089   0.00000  Uiso   1.00
C2132  C     0.87658   0.58677   0.80365   0.00000  Uiso   1.00
C2133  C     0.62010   0.91703   0.86002   0.00000  Uiso   1.00
C2134  C     0.88052   0.91711   0.85630   0.00000  Uiso   1.00
C2135  C     0.94016   0.69107   0.83258   0.00000  Uiso   1.00
C2136  C     0.62145   0.58488   0.80329   0.00000  Uiso   1.00
C2137  C     0.65384   0.62535   0.87031   0.00000  Uiso   1.00
C2138  C     0.83442   0.86316   0.81389   0.00000  Uiso   1.00
C2139  C     0.59193   0.84383   0.83446   0.00000  Uiso   1.00
C2140  C     0.90526   0.65891   0.83124   0.00000  Uiso   1.00
C2141  C     0.90564   0.84156   0.83599   0.00000  Uiso   1.00
C2142  C     0.59214   0.65622   0.83329   0.00000  Uiso   1.00
C2143  C     0.84230   0.59340   0.83433   0.00000  Uiso   1.00
C2144  C     0.65573   0.90850   0.83144   0.00000  Uiso   1.00
C2145  C     0.65491   0.59057   0.83549   0.00000  Uiso   1.00
C2146  C     0.55842   0.81034   0.83398   0.00000  Uiso   1.00
C2147  C     0.84254   0.90696   0.83230   0.00000  Uiso   1.00
C2148  C     0.56422   0.66118   0.69667   0.00000  Uiso   1.00
C2149  C     0.57177   0.82568   0.96384   0.00000  Uiso   1.00
C2150  C     0.96640   0.86178   0.71702   0.00000  Uiso   1.00
C2151  C     0.96888   0.63701   0.94793   0.00000  Uiso   1.00
C2152  C     0.81590   0.91595   0.70411   0.00000  Uiso   1.00
C2153  C     0.81586   0.58830   0.96978   0.00000  Uiso   1.00
C2154  C     0.71942   0.61222   0.72019   0.00000  Uiso   1.00
C2155  C     0.71596   0.88819   0.94799   0.00000  Uiso   1.00
C2156  C     0.91396   0.62766   0.72126   0.00000  Uiso   1.00
C2157  C     0.80915   0.94049   0.83275   0.00000  Uiso   1.00
C2158  C     0.52521   0.92391   0.84365   0.00000  Uiso   1.00
C2159  C     0.66729   0.77100   0.78954   0.00000  Uiso   1.00
C2160  C     0.85994   0.70039   0.93513   0.00000  Uiso   1.00
C2161  C     0.66314   0.71925   0.90282   0.00000  Uiso   1.00
C2162  C     0.85799   0.78833   0.74490   0.00000  Uiso   1.00
C2163  C     0.93363   0.88099   0.93563   0.00000  Uiso   1.00
C2164  C     0.52407   0.58227   0.81371   0.00000  Uiso   1.00
C2165  C     0.67183   0.87043   0.72476   0.00000  Uiso   1.00
C2166  C     0.77253   0.66623   0.85565   0.00000  Uiso   1.00
C2167  C     0.91459   0.52289   0.78173   0.00000  Uiso   1.00
C2168  C     0.68996   0.55865   0.83404   0.00000  Uiso   1.00
C2169  C     0.60733   0.95523   0.93046   0.00000  Uiso   1.00
C2170  C     0.88021   0.97164   0.91629   0.00000  Uiso   1.00
C2171  C     0.60785   0.55063   0.73035   0.00000  Uiso   1.00
C2172  C     0.65493   0.60617   0.94516   0.00000  Uiso   1.00
C2173  C     0.77299   0.83048   0.83514   0.00000  Uiso   1.00
C2174  C     0.69044   0.94079   0.83260   0.00000  Uiso   1.00
C2175  C     0.80895   0.55976   0.83394   0.00000  Uiso   1.00
C2176  C     0.50382   0.71060   0.68898   0.00000  Uiso   1.00
Cu2177 Cu    0.50000   0.75000   0.88022   0.00000  Uiso   1.00
Cu2178 Cu    0.50000   0.75000   0.78645   0.00000  Uiso   1.00
Cu2179 Cu    0.75000   0.50000   0.88022   0.00000  Uiso   1.00
Cu2180 Cu    0.75000   0.50000   0.78645   0.00000  Uiso   1.00
H2181  H     0.50036   0.64439   0.70730   0.00000  Uiso   1.00
H2182  H     0.95347   0.87101   0.75197   0.00000  Uiso   1.00
H2183  H     0.94031   0.84684   0.69519   0.00000  Uiso   1.00
H2184  H     0.97762   0.89323   0.70192   0.00000  Uiso   1.00
H2185  H     0.53308   0.65565   0.94236   0.00000  Uiso   1.00
H2186  H     0.96060   0.62358   0.91248   0.00000  Uiso   1.00
H2187  H     0.93999   0.65269   0.96377   0.00000  Uiso   1.00
H2188  H     0.97947   0.60839   0.96834   0.00000  Uiso   1.00
H2189  H     0.75403   0.89240   0.69998   0.00000  Uiso   1.00
H2190  H     0.83313   0.94688   0.71675   0.00000  Uiso   1.00
H2191  H     0.82469   0.90845   0.66739   0.00000  Uiso   1.00
H2192  H     0.58453   0.66148   0.72796   0.00000  Uiso   1.00
H2193  H     0.82696   0.88741   0.72411   0.00000  Uiso   1.00
H2194  H     0.75197   0.60506   0.95679   0.00000  Uiso   1.00
H2195  H     0.82985   0.56364   0.99326   0.00000  Uiso   1.00
H2196  H     0.81757   0.62243   0.98724   0.00000  Uiso   1.00
H2197  H     0.83621   0.58751   0.93854   0.00000  Uiso   1.00
H2198  H     0.78404   0.59541   0.72192   0.00000  Uiso   1.00
H2199  H     0.71948   0.63405   0.75256   0.00000  Uiso   1.00
H2200  H     0.68858   0.59424   0.71805   0.00000  Uiso   1.00
H2201  H     0.72294   0.63412   0.69050   0.00000  Uiso   1.00
H2202  H     0.78075   0.90448   0.94112   0.00000  Uiso   1.00
H2203  H     0.57837   0.68613   0.67366   0.00000  Uiso   1.00
H2204  H     0.70443   0.87836   0.91259   0.00000  Uiso   1.00
H2205  H     0.68908   0.90347   0.96812   0.00000  Uiso   1.00
H2206  H     0.72686   0.85705   0.96401   0.00000  Uiso   1.00
H2207  H     0.92667   0.60384   0.69392   0.00000  Uiso   1.00
H2208  H     0.92057   0.66264   0.71170   0.00000  Uiso   1.00
H2209  H     0.87864   0.62284   0.72143   0.00000  Uiso   1.00
H2210  H     0.99976   0.94372   0.86187   0.00000  Uiso   1.00
H2211  H     0.51023   0.90141   0.81629   0.00000  Uiso   1.00
H2212  H     0.54602   0.94900   0.82727   0.00000  Uiso   1.00
H2213  H     0.69295   0.77867   0.76469   0.00000  Uiso   1.00
H2214  H     0.56583   0.62736   0.67853   0.00000  Uiso   1.00
H2215  H     0.66023   0.73447   0.78491   0.00000  Uiso   1.00
H2216  H     0.67877   0.77753   0.82577   0.00000  Uiso   1.00
H2217  H     0.87036   0.66706   0.94685   0.00000  Uiso   1.00
H2218  H     0.82547   0.70537   0.94255   0.00000  Uiso   1.00
H2219  H     0.87772   0.72649   0.95615   0.00000  Uiso   1.00
H2220  H     0.68215   0.70665   0.93193   0.00000  Uiso   1.00
H2221  H     0.65704   0.75559   0.91078   0.00000  Uiso   1.00
H2222  H     0.68194   0.71639   0.87016   0.00000  Uiso   1.00
H2223  H     0.88477   0.80719   0.72980   0.00000  Uiso   1.00
H2224  H     0.82690   0.80227   0.73398   0.00000  Uiso   1.00
H2225  H     0.51345   0.85729   0.96931   0.00000  Uiso   1.00
H2226  H     0.85991   0.75311   0.73036   0.00000  Uiso   1.00
H2227  H     0.95250   0.90309   0.95991   0.00000  Uiso   1.00
H2228  H     0.94087   0.84546   0.94216   0.00000  Uiso   1.00
H2229  H     0.89937   0.88692   0.94421   0.00000  Uiso   1.00
H2230  H     0.51376   0.60415   0.84410   0.00000  Uiso   1.00
H2231  H     0.54054   0.55164   0.82546   0.00000  Uiso   1.00
H2232  H     0.99517   0.57064   0.79481   0.00000  Uiso   1.00
H2233  H     0.63787   0.85976   0.72083   0.00000  Uiso   1.00
H2234  H     0.69004   0.84922   0.69914   0.00000  Uiso   1.00
H2235  H     0.67438   0.90628   0.71617   0.00000  Uiso   1.00
H2236  H     0.58089   0.82981   0.66762   0.00000  Uiso   1.00
H2237  H     0.74287   0.67387   0.87510   0.00000  Uiso   1.00
H2238  H     0.76383   0.64506   0.82414   0.00000  Uiso   1.00
H2239  H     0.78646   0.69883   0.84582   0.00000  Uiso   1.00
H2240  H     0.93971   0.53135   0.75660   0.00000  Uiso   1.00
H2241  H     0.90671   0.98676   0.77502   0.00000  Uiso   1.00
H2242  H     0.92703   0.52685   0.81797   0.00000  Uiso   1.00
H2243  H     0.62191   0.92491   0.94502   0.00000  Uiso   1.00
H2244  H     0.57238   0.95547   0.93652   0.00000  Uiso   1.00
H2245  H     0.62083   0.98505   0.95000   0.00000  Uiso   1.00
H2246  H     0.85580   0.94907   0.93081   0.00000  Uiso   1.00
H2247  H     0.58626   0.85357   0.94544   0.00000  Uiso   1.00
H2248  H     0.86727   0.50639   0.91946   0.00000  Uiso   1.00
H2249  H     0.90964   0.97122   0.93764   0.00000  Uiso   1.00
H2250  H     0.61713   0.58413   0.71829   0.00000  Uiso   1.00
H2251  H     0.57312   0.54512   0.72506   0.00000  Uiso   1.00
H2252  H     0.62483   0.52492   0.70805   0.00000  Uiso   1.00
H2253  H     0.63695   0.63385   0.96360   0.00000  Uiso   1.00
H2254  H     0.67659   0.59111   0.97024   0.00000  Uiso   1.00
H2255  H     0.63263   0.57871   0.93312   0.00000  Uiso   1.00
H2256  H     0.77215   0.85265   0.86740   0.00000  Uiso   1.00
H2257  H     0.78798   0.79757   0.84213   0.00000  Uiso   1.00
H2258  H     0.58527   0.79336   0.94936   0.00000  Uiso   1.00
H2259  H     0.73961   0.82375   0.82479   0.00000  Uiso   1.00
H2260  H     0.53122   0.84610   0.72344   0.00000  Uiso   1.00
N2261  N     0.50000   0.75000   0.95069   0.00000  Uiso   1.00
N2262  N     0.77193   0.57760   0.95700   0.00000  Uiso   1.00
N2263  N     0.75435   0.58060   0.72159   0.00000  Uiso   1.00
N2264  N     0.75121   0.91929   0.94509   0.00000  Uiso   1.00
N2265  N     0.50000   0.75000   0.71598   0.00000  Uiso   1.00
N2266  N     0.75000   0.50000   0.95069   0.00000  Uiso   1.00
N2267  N     0.75000   0.50000   0.71598   0.00000  Uiso   1.00
N2268  N     0.52030   0.67187   0.70940   0.00000  Uiso   1.00
N2269  N     0.52572   0.82650   0.95833   0.00000  Uiso   1.00
N2270  N     0.50175   0.83083   0.72121   0.00000  Uiso   1.00
N2271  N     0.50296   0.66942   0.94513   0.00000  Uiso   1.00
N2272  N     0.77008   0.92154   0.70950   0.00000  Uiso   1.00
O2273  O     0.54509   0.70491   0.87291   0.00000  Uiso   1.00
O2274  O     0.70492   0.54509   0.79375   0.00000  Uiso   1.00
O2275  O     0.70492   0.54509   0.87291   0.00000  Uiso   1.00
O2276  O     0.79509   0.95491   0.79375   0.00000  Uiso   1.00
O2277  O     0.70492   0.95491   0.79375   0.00000  Uiso   1.00
O2278  O     0.79509   0.54509   0.87291   0.00000  Uiso   1.00
O2279  O     0.79509   0.54509   0.79375   0.00000  Uiso   1.00
O2280  O     0.70492   0.95491   0.87291   0.00000  Uiso   1.00
O2281  O     0.93516   0.61956   0.76338   0.00000  Uiso   1.00
O2282  O     0.54676   0.89795   0.87611   0.00000  Uiso   1.00
O2283  O     0.62997   0.79521   0.77944   0.00000  Uiso   1.00
O2284  O     0.95492   0.79509   0.79375   0.00000  Uiso   1.00
O2285  O     0.86800   0.70658   0.88772   0.00000  Uiso   1.00
O2286  O     0.62355   0.69673   0.89958   0.00000  Uiso   1.00
O2287  O     0.86091   0.78786   0.79364   0.00000  Uiso   1.00
O2288  O     0.94534   0.89059   0.88988   0.00000  Uiso   1.00
O2289  O     0.54957   0.60646   0.78338   0.00000  Uiso   1.00
O2290  O     0.68977   0.86479   0.76904   0.00000  Uiso   1.00
O2291  O     0.80017   0.64312   0.88472   0.00000  Uiso   1.00
O2292  O     0.87758   0.54850   0.77394   0.00000  Uiso   1.00
O2293  O     0.61613   0.95918   0.88285   0.00000  Uiso   1.00
O2294  O     0.89050   0.96147   0.86927   0.00000  Uiso   1.00
O2295  O     0.95492   0.79509   0.87291   0.00000  Uiso   1.00
O2296  O     0.61879   0.54428   0.77707   0.00000  Uiso   1.00
O2297  O     0.67960   0.62323   0.90901   0.00000  Uiso   1.00
O2298  O     0.79389   0.85139   0.79873   0.00000  Uiso   1.00
O2299  O     0.54509   0.70491   0.79375   0.00000  Uiso   1.00
O2300  O     0.95492   0.70491   0.79375   0.00000  Uiso   1.00
O2301  O     0.54509   0.79509   0.87291   0.00000  Uiso   1.00
O2302  O     0.54509   0.79509   0.79375   0.00000  Uiso   1.00
O2303  O     0.95492   0.70491   0.87291   0.00000  Uiso   1.00
O2304  O     0.79509   0.95491   0.87291   0.00000  Uiso   1.00
loop_
_geom_bond_atom_site_label_1
_geom_bond_atom_site_label_2
_geom_bond_distance
_geom_bond_site_symmetry_2
_ccdc_geom_bond_type
C1     O161    1.289   .     A
C1     O187    1.307   .     A
C1     C30     1.449   .     S
C2     N149    1.380   .     A
C2     N157    1.419   .     S
C2     C771    1.435   .     S
C3     N153    1.368   .     A
C3     N158    1.424   .     S
C3     C1538   1.435   1_554 S
C4     C1024   1.438   .     S
C4     N341    1.367   .     S
C4     N351    1.423   .     S
C5     N160    1.420   .     S
C5     C1544   1.438   1_554 S
C5     N539    1.380   .     S
C6     N150    1.418   .     S
C6     N154    1.378   .     A
C6     C775    1.438   .     S
C7     N155    1.369   .     A
C7     N151    1.425   .     S
C7     C1542   1.438   1_554 S
C8     N152    1.424   .     S
C8     C773    1.438   .     S
C8     N538    1.368   .     S
C9     O169    1.380   .     S
C9     C20     1.400   .     A
C9     C28     1.404   .     A
C10    C27     1.405   .     A
C10    C21     1.408   .     A
C10    O170    1.382   .     S
C11    C18     1.403   .     A
C11    O171    1.390   .     S
C11    C27     1.401   .     A
C12    C29     1.452   .     S
C12    O172    1.301   .     A
C12    O183    1.297   .     A
C13    C28     1.406   .     A
C13    C19     1.406   .     A
C13    O173    1.392   .     S
C14    C30     1.406   .     A
C14    C25     1.400   .     A
C14    O174    1.392   .     S
C15    C29     1.403   .     A
C15    C26     1.405   .     A
C15    O175    1.387   .     S
C16    O176    1.377   .     S
C16    C29     1.406   .     A
C16    C22     1.398   .     A
C17    C30     1.405   .     A
C17    C24     1.407   .     A
C17    O177    1.381   .     S
C18    C32     1.403   .     A
C18    O178    1.380   .     S
C19    C31     1.404   .     A
C19    O179    1.381   .     S
C20    O180    1.389   .     S
C20    C31     1.400   .     A
C21    O181    1.391   .     S
C21    C32     1.404   .     A
C22    C35     1.401   .     A
C22    O182    1.388   .     S
C23    O188    1.299   .     A
C23    O191    1.299   .     A
C23    C28     1.452   .     S
C24    O184    1.393   .     S
C24    C33     1.405   .     A
C25    O185    1.381   .     S
C25    C33     1.404   .     A
C26    O186    1.382   .     S
C26    C35     1.404   .     A
C27    C34     1.447   .     S
C31    C63     1.447   .     S
C32    C62     1.451   .     S
C33    C56     1.450   .     S
C34    O190    1.293   .     A
C34    O189    1.302   .     A
C35    C45     1.444   .     S
C36    N156    1.456   .     S
C36    H102    1.111   .     S
C36    H80     1.104   .     S
C36    H91     1.113   .     S
C37    N157    1.452   .     S
C37    H135    1.106   .     S
C37    H146    1.112   .     S
C37    H892    1.109   .     S
C38    H70     1.108   .     S
C38    H72     1.110   .     S
C38    H71     1.110   .     S
C38    N350    1.449   .     S
C39    H74     1.109   .     S
C39    H76     1.110   .     S
C39    H75     1.106   .     S
C39    N351    1.444   .     S
C40    H79     1.107   .     S
C40    H78     1.111   .     S
C40    H81     1.106   .     S
C40    N160    1.453   .     S
C41    H83     1.113   .     S
C41    N150    1.456   .     S
C41    H84     1.111   .     S
C41    H85     1.104   .     S
C42    N151    1.444   .     S
C42    H88     1.105   .     S
C42    H89     1.108   .     S
C42    H87     1.109   .     S
C43    H94     1.109   .     S
C43    H93     1.108   .     S
C43    H92     1.108   .     S
C43    N152    1.446   .     S
C44    O169    1.416   .     S
C44    H96     1.110   .     S
C44    H97     1.116   .     S
C44    H95     1.107   .     S
C45    O164    1.301   .     A
C45    O192    1.293   .     A
C46    H99     1.112   .     S
C46    O170    1.415   .     S
C46    H100    1.115   .     S
C46    H290    1.108   1_455 S
C47    H101    1.110   .     S
C47    H103    1.110   .     S
C47    H104    1.113   .     S
C47    O171    1.411   .     S
C48    H107    1.110   .     S
C48    H106    1.110   .     S
C48    H105    1.112   .     S
C48    O173    1.413   .     S
C49    O174    1.411   .     S
C49    H108    1.110   .     S
C49    H109    1.109   .     S
C49    H110    1.111   .     S
C50    H111    1.112   .     S
C50    O175    1.410   .     S
C50    H114    1.110   .     S
C50    H112    1.110   .     S
C51    O176    1.414   .     S
C51    H115    1.107   .     S
C51    H116    1.106   .     S
C51    H117    1.114   .     S
C52    O177    1.411   .     S
C52    H119    1.114   .     S
C52    H118    1.113   .     S
C52    H312    1.103   1_455 S
C53    O178    1.413   .     S
C53    H122    1.105   .     S
C53    H123    1.110   .     S
C53    H121    1.114   .     S
C54    H126    1.112   .     S
C54    O179    1.408   .     S
C54    H125    1.104   .     S
C54    H127    1.113   .     S
C55    O180    1.411   .     S
C55    H130    1.116   .     S
C55    H128    1.109   .     S
C55    H513    1.110   1_545 S
C56    O163    1.298   .     A
C56    O162    1.299   .     A
C57    H132    1.109   .     S
C57    O181    1.412   .     S
C57    H133    1.110   .     S
C57    H131    1.112   .     S
C58    H134    1.114   .     S
C58    O182    1.412   .     S
C58    H137    1.109   .     S
C58    H520    1.109   .     S
C59    H138    1.111   .     S
C59    H139    1.110   .     S
C59    H140    1.110   .     S
C59    O184    1.413   .     S
C60    O185    1.414   .     S
C60    H143    1.117   .     S
C60    H142    1.103   .     S
C60    H141    1.110   .     S
C61    H145    1.112   .     S
C61    H144    1.113   .     S
C61    H147    1.103   .     S
C61    O186    1.411   .     S
C62    O168    1.297   .     A
C62    O165    1.300   .     A
C63    O166    1.302   .     A
C63    O167    1.292   .     A
C64    N153    1.378   .     A
C64    N156    1.417   .     S
C64    C1732   1.438   1_454 S
Cu65   O189    1.967   .     S
Cu65   N149    2.033   .     S
Cu65   Cu66    2.706   .     S
Cu65   O161    1.951   .     S
Cu65   O375    1.966   1_455 S
Cu65   O383    1.952   1_455 S
Cu66   O187    1.966   .     S
Cu66   N153    2.033   .     S
Cu66   O190    1.952   .     S
Cu66   O364    1.951   1_455 S
Cu66   O380    1.967   1_455 S
Cu67   N154    2.033   .     S
Cu67   Cu68    2.706   .     S
Cu67   O166    1.967   .     S
Cu67   O163    1.966   .     S
Cu67   O552    1.952   1_545 S
Cu67   O576    1.951   1_545 S
Cu68   N155    2.033   .     S
Cu68   O167    1.952   .     S
Cu68   O162    1.951   .     S
Cu68   O548    1.966   1_545 S
Cu68   O549    1.967   1_545 S
H69    N156    1.028   .     S
H73    N159    1.030   .     S
H77    N160    1.027   .     S
H82    N150    1.028   .     S
H86    N151    1.029   .     S
H90    N152    1.029   .     S
H98    C238    1.108   .     S
H113   N157    1.028   .     S
H120   C244    1.103   .     S
H124   C1573   1.109   1_554 S
H129   C439    1.110   .     S
H136   C442    1.109   1_545 S
H148   N158    1.030   .     S
N149   C196    1.367   1_455 S
N154   C392    1.368   1_545 S
N155   C389    1.380   1_545 S
N158   C230    1.449   1_455 S
N159   C231    1.444   1_455 S
N159   C196    1.423   1_455 S
O164   Cu452   1.966   .     S
O165   Cu452   1.967   .     S
O168   Cu451   1.952   .     S
O172   Cu258   1.951   .     S
O183   Cu257   1.966   .     S
O188   Cu258   1.967   .     S
O191   Cu257   1.952   .     S
O192   Cu451   1.951   .     S
C193   O353    1.289   .     A
C193   O379    1.307   .     A
C193   C222    1.449   .     S
C194   N341    1.380   .     A
C194   N349    1.419   .     S
C194   C963    1.435   .     S
C195   N345    1.368   .     A
C195   N350    1.424   .     S
C195   C1730   1.435   1_554 S
C196   C832    1.438   1_655 S
C196   N149    1.367   1_655 S
C196   N159    1.423   1_655 S
C197   N352    1.420   .     S
C197   C1736   1.438   1_554 S
C197   N731    1.380   .     S
C198   N342    1.418   .     S
C198   N346    1.378   .     A
C198   C967    1.438   .     S
C199   N347    1.369   .     A
C199   N343    1.425   .     S
C199   C1734   1.438   1_554 S
C200   N344    1.424   .     S
C200   C965    1.438   .     S
C200   N730    1.368   .     S
C201   O361    1.380   .     S
C201   C212    1.400   .     A
C201   C220    1.404   .     A
C202   C219    1.405   .     A
C202   C213    1.408   .     A
C202   O362    1.382   .     S
C203   C210    1.403   .     A
C203   O363    1.390   .     S
C203   C219    1.401   .     A
C204   C221    1.452   .     S
C204   O364    1.301   .     A
C204   O375    1.297   .     A
C205   C220    1.406   .     A
C205   C211    1.406   .     A
C205   O365    1.392   .     S
C206   C222    1.406   .     A
C206   C217    1.400   .     A
C206   O366    1.392   .     S
C207   C221    1.403   .     A
C207   C218    1.405   .     A
C207   O367    1.387   .     S
C208   O368    1.377   .     S
C208   C221    1.406   .     A
C208   C214    1.398   .     A
C209   C222    1.405   .     A
C209   C216    1.407   .     A
C209   O369    1.381   .     S
C210   C224    1.403   .     A
C210   O370    1.380   .     S
C211   C223    1.404   .     A
C211   O371    1.381   .     S
C212   O372    1.389   .     S
C212   C223    1.400   .     A
C213   O373    1.391   .     S
C213   C224    1.404   .     A
C214   C227    1.401   .     A
C214   O374    1.388   .     S
C215   O380    1.299   .     A
C215   O383    1.299   .     A
C215   C220    1.452   .     S
C216   O376    1.393   .     S
C216   C225    1.405   .     A
C217   O377    1.381   .     S
C217   C225    1.404   .     A
C218   O378    1.382   .     S
C218   C227    1.404   .     A
C219   C226    1.447   .     S
C223   C255    1.447   .     S
C224   C254    1.451   .     S
C225   C248    1.450   .     S
C226   O382    1.293   .     A
C226   O381    1.302   .     A
C227   C237    1.444   .     S
C228   N348    1.456   .     S
C228   H294    1.111   .     S
C228   H272    1.104   .     S
C228   H283    1.113   .     S
C229   N349    1.452   .     S
C229   H327    1.106   .     S
C229   H338    1.112   .     S
C229   H1084   1.109   .     S
C230   H262    1.108   .     S
C230   H264    1.110   .     S
C230   H263    1.110   .     S
C230   N158    1.449   1_655 S
C231   H266    1.109   .     S
C231   H268    1.110   .     S
C231   H267    1.106   .     S
C231   N159    1.444   1_655 S
C232   H271    1.107   .     S
C232   H270    1.111   .     S
C232   H273    1.106   .     S
C232   N352    1.453   .     S
C233   H275    1.113   .     S
C233   N342    1.456   .     S
C233   H276    1.111   .     S
C233   H277    1.104   .     S
C234   N343    1.444   .     S
C234   H280    1.105   .     S
C234   H281    1.108   .     S
C234   H279    1.109   .     S
C235   H286    1.109   .     S
C235   H285    1.108   .     S
C235   H284    1.108   .     S
C235   N344    1.446   .     S
C236   O361    1.416   .     S
C236   H288    1.110   .     S
C236   H289    1.116   .     S
C236   H287    1.107   .     S
C237   O356    1.301   .     A
C237   O384    1.293   .     A
C238   H291    1.112   .     S
C238   O362    1.415   .     S
C238   H292    1.115   .     S
C239   H293    1.110   .     S
C239   H295    1.110   .     S
C239   H296    1.113   .     S
C239   O363    1.411   .     S
C240   H299    1.110   .     S
C240   H298    1.110   .     S
C240   H297    1.112   .     S
C240   O365    1.413   .     S
C241   O366    1.411   .     S
C241   H300    1.110   .     S
C241   H301    1.109   .     S
C241   H302    1.111   .     S
C242   H303    1.112   .     S
C242   O367    1.410   .     S
C242   H306    1.110   .     S
C242   H304    1.110   .     S
C243   O368    1.414   .     S
C243   H307    1.107   .     S
C243   H308    1.106   .     S
C243   H309    1.114   .     S
C244   O369    1.411   .     S
C244   H311    1.114   .     S
C244   H310    1.113   .     S
C245   O370    1.413   .     S
C245   H314    1.105   .     S
C245   H315    1.110   .     S
C245   H313    1.114   .     S
C246   H318    1.112   .     S
C246   O371    1.408   .     S
C246   H317    1.104   .     S
C246   H319    1.113   .     S
C247   O372    1.411   .     S
C247   H322    1.116   .     S
C247   H320    1.109   .     S
C247   H705    1.110   1_545 S
C248   O355    1.298   .     A
C248   O354    1.299   .     A
C249   H324    1.109   .     S
C249   O373    1.412   .     S
C249   H325    1.110   .     S
C249   H323    1.112   .     S
C250   H326    1.114   .     S
C250   O374    1.412   .     S
C250   H329    1.109   .     S
C250   H712    1.109   .     S
C251   H330    1.111   .     S
C251   H331    1.110   .     S
C251   H332    1.110   .     S
C251   O376    1.413   .     S
C252   O377    1.414   .     S
C252   H335    1.117   .     S
C252   H334    1.103   .     S
C252   H333    1.110   .     S
C253   H337    1.112   .     S
C253   H336    1.113   .     S
C253   H339    1.103   .     S
C253   O378    1.411   .     S
C254   O360    1.297   .     A
C254   O357    1.300   .     A
C255   O358    1.302   .     A
C255   O359    1.292   .     A
C256   N345    1.378   .     A
C256   N348    1.417   .     S
C256   C1540   1.438   1_554 S
Cu257  O381    1.967   .     S
Cu257  N341    2.033   .     S
Cu257  Cu258   2.706   .     S
Cu257  O353    1.951   .     S
Cu258  O379    1.966   .     S
Cu258  N345    2.033   .     S
Cu258  O382    1.952   .     S
Cu259  N346    2.033   .     S
Cu259  Cu260   2.706   .     S
Cu259  O358    1.967   .     S
Cu259  O355    1.966   .     S
Cu259  O744    1.952   1_545 S
Cu259  O768    1.951   1_545 S
Cu260  N347    2.033   .     S
Cu260  O359    1.952   .     S
Cu260  O354    1.951   .     S
Cu260  O740    1.966   1_545 S
Cu260  O741    1.967   1_545 S
H261   N348    1.028   .     S
H265   N351    1.030   .     S
H269   N352    1.027   .     S
H274   N342    1.028   .     S
H278   N343    1.029   .     S
H282   N344    1.029   .     S
H290   C46     1.108   1_655 S
H305   N349    1.028   .     S
H312   C52     1.103   1_655 S
H316   C1765   1.109   1_554 S
H321   C631    1.110   .     S
H328   C634    1.109   1_545 S
H340   N350    1.030   .     S
N346   C584    1.368   1_545 S
N347   C581    1.380   1_545 S
O356   Cu644   1.966   .     S
O357   Cu644   1.967   .     S
O360   Cu643   1.952   .     S
O364   Cu66    1.951   1_655 S
O375   Cu65    1.966   1_655 S
O380   Cu66    1.967   1_655 S
O383   Cu65    1.952   1_655 S
O384   Cu643   1.951   .     S
C385   O545    1.289   .     A
C385   O571    1.307   .     A
C385   C414    1.449   .     S
C386   N533    1.380   .     A
C386   N541    1.419   .     S
C386   C1155   1.435   .     S
C387   N537    1.368   .     A
C387   N542    1.424   .     S
C387   C1922   1.435   1_554 S
C388   C1408   1.438   .     S
C388   N725    1.367   .     S
C388   N735    1.423   .     S
C389   N544    1.420   .     S
C389   C1928   1.438   1_554 S
C389   N155    1.380   1_565 S
C390   N534    1.418   .     S
C390   N538    1.378   .     A
C390   C1159   1.438   .     S
C391   N539    1.369   .     A
C391   N535    1.425   .     S
C391   C1926   1.438   1_554 S
C392   N536    1.424   .     S
C392   C1157   1.438   .     S
C392   N154    1.368   1_565 S
C393   O553    1.380   .     S
C393   C404    1.400   .     A
C393   C412    1.404   .     A
C394   C411    1.405   .     A
C394   C405    1.408   .     A
C394   O554    1.382   .     S
C395   C402    1.403   .     A
C395   O555    1.390   .     S
C395   C411    1.401   .     A
C396   C413    1.452   .     S
C396   O556    1.301   .     A
C396   O567    1.297   .     A
C397   C412    1.406   .     A
C397   C403    1.406   .     A
C397   O557    1.392   .     S
C398   C414    1.406   .     A
C398   C409    1.400   .     A
C398   O558    1.392   .     S
C399   C413    1.403   .     A
C399   C410    1.405   .     A
C399   O559    1.387   .     S
C400   O560    1.377   .     S
C400   C413    1.406   .     A
C400   C406    1.398   .     A
C401   C414    1.405   .     A
C401   C408    1.407   .     A
C401   O561    1.381   .     S
C402   C416    1.403   .     A
C402   O562    1.380   .     S
C403   C415    1.404   .     A
C403   O563    1.381   .     S
C404   O564    1.389   .     S
C404   C415    1.400   .     A
C405   O565    1.391   .     S
C405   C416    1.404   .     A
C406   C419    1.401   .     A
C406   O566    1.388   .     S
C407   O572    1.299   .     A
C407   O575    1.299   .     A
C407   C412    1.452   .     S
C408   O568    1.393   .     S
C408   C417    1.405   .     A
C409   O569    1.381   .     S
C409   C417    1.404   .     A
C410   O570    1.382   .     S
C410   C419    1.404   .     A
C411   C418    1.447   .     S
C415   C447    1.447   .     S
C416   C446    1.451   .     S
C417   C440    1.450   .     S
C418   O574    1.293   .     A
C418   O573    1.302   .     A
C419   C429    1.444   .     S
C420   N540    1.456   .     S
C420   H486    1.111   .     S
C420   H464    1.104   .     S
C420   H475    1.113   .     S
C421   N541    1.452   .     S
C421   H519    1.106   .     S
C421   H530    1.112   .     S
C421   H1276   1.109   .     S
C422   H454    1.108   .     S
C422   H456    1.110   .     S
C422   H455    1.110   .     S
C422   N734    1.449   .     S
C423   H458    1.109   .     S
C423   H460    1.110   .     S
C423   H459    1.106   .     S
C423   N735    1.444   .     S
C424   H463    1.107   .     S
C424   H462    1.111   .     S
C424   H465    1.106   .     S
C424   N544    1.453   .     S
C425   H467    1.113   .     S
C425   N534    1.456   .     S
C425   H468    1.111   .     S
C425   H469    1.104   .     S
C426   N535    1.444   .     S
C426   H472    1.105   .     S
C426   H473    1.108   .     S
C426   H471    1.109   .     S
C427   H478    1.109   .     S
C427   H477    1.108   .     S
C427   H476    1.108   .     S
C427   N536    1.446   .     S
C428   O553    1.416   .     S
C428   H480    1.110   .     S
C428   H481    1.116   .     S
C428   H479    1.107   .     S
C429   O548    1.301   .     A
C429   O576    1.293   .     A
C430   H483    1.112   .     S
C430   O554    1.415   .     S
C430   H484    1.115   .     S
C430   H674    1.108   1_455 S
C431   H485    1.110   .     S
C431   H487    1.110   .     S
C431   H488    1.113   .     S
C431   O555    1.411   .     S
C432   H491    1.110   .     S
C432   H490    1.110   .     S
C432   H489    1.112   .     S
C432   O557    1.413   .     S
C433   O558    1.411   .     S
C433   H492    1.110   .     S
C433   H493    1.109   .     S
C433   H494    1.111   .     S
C434   H495    1.112   .     S
C434   O559    1.410   .     S
C434   H498    1.110   .     S
C434   H496    1.110   .     S
C435   O560    1.414   .     S
C435   H499    1.107   .     S
C435   H500    1.106   .     S
C435   H501    1.114   .     S
C436   O561    1.411   .     S
C436   H503    1.114   .     S
C436   H502    1.113   .     S
C436   H696    1.103   1_455 S
C437   O562    1.413   .     S
C437   H506    1.105   .     S
C437   H507    1.110   .     S
C437   H505    1.114   .     S
C438   H510    1.112   .     S
C438   O563    1.408   .     S
C438   H509    1.104   .     S
C438   H511    1.113   .     S
C439   O564    1.411   .     S
C439   H514    1.116   .     S
C439   H512    1.109   .     S
C440   O547    1.298   .     A
C440   O546    1.299   .     A
C441   H516    1.109   .     S
C441   O565    1.412   .     S
C441   H517    1.110   .     S
C441   H515    1.112   .     S
C442   H518    1.114   .     S
C442   O566    1.412   .     S
C442   H521    1.109   .     S
C442   H136    1.109   1_565 S
C443   H522    1.111   .     S
C443   H523    1.110   .     S
C443   H524    1.110   .     S
C443   O568    1.413   .     S
C444   O569    1.414   .     S
C444   H527    1.117   .     S
C444   H526    1.103   .     S
C444   H525    1.110   .     S
C445   H529    1.112   .     S
C445   H528    1.113   .     S
C445   H531    1.103   .     S
C445   O570    1.411   .     S
C446   O552    1.297   .     A
C446   O549    1.300   .     A
C447   O550    1.302   .     A
C447   O551    1.292   .     A
C448   N537    1.378   .     A
C448   N540    1.417   .     S
C448   C2116   1.438   1_454 S
Cu449  O573    1.967   .     S
Cu449  N533    2.033   .     S
Cu449  Cu450   2.706   .     S
Cu449  O545    1.951   .     S
Cu449  O759    1.966   1_455 S
Cu449  O767    1.952   1_455 S
Cu450  O571    1.966   .     S
Cu450  N537    2.033   .     S
Cu450  O574    1.952   .     S
Cu450  O748    1.951   1_455 S
Cu450  O764    1.967   1_455 S
Cu451  N538    2.033   .     S
Cu451  Cu452   2.706   .     S
Cu451  O550    1.967   .     S
Cu451  O547    1.966   .     S
Cu452  N539    2.033   .     S
Cu452  O551    1.952   .     S
Cu452  O546    1.951   .     S
H453   N540    1.028   .     S
H457   N543    1.030   .     S
H461   N544    1.027   .     S
H466   N534    1.028   .     S
H470   N535    1.029   .     S
H474   N536    1.029   .     S
H482   C622    1.108   .     S
H497   N541    1.028   .     S
H504   C628    1.103   .     S
H508   C1957   1.109   1_554 S
H513   C55     1.110   1_565 S
H532   N542    1.030   .     S
N533   C580    1.367   1_455 S
N542   C614    1.449   1_455 S
N543   C615    1.444   1_455 S
N543   C580    1.423   1_455 S
O548   Cu68    1.966   1_565 S
O549   Cu68    1.967   1_565 S
O552   Cu67    1.952   1_565 S
O556   Cu642   1.951   .     S
O567   Cu641   1.966   .     S
O572   Cu642   1.967   .     S
O575   Cu641   1.952   .     S
O576   Cu67    1.951   1_565 S
C577   O737    1.289   .     A
C577   O763    1.307   .     A
C577   C606    1.449   .     S
C578   N725    1.380   .     A
C578   N733    1.419   .     S
C578   C1347   1.435   .     S
C579   N729    1.368   .     A
C579   N734    1.424   .     S
C579   C2114   1.435   1_554 S
C580   C1216   1.438   1_655 S
C580   N533    1.367   1_655 S
C580   N543    1.423   1_655 S
C581   N736    1.420   .     S
C581   C2120   1.438   1_554 S
C581   N347    1.380   1_565 S
C582   N726    1.418   .     S
C582   N730    1.378   .     A
C582   C1351   1.438   .     S
C583   N731    1.369   .     A
C583   N727    1.425   .     S
C583   C2118   1.438   1_554 S
C584   N728    1.424   .     S
C584   C1349   1.438   .     S
C584   N346    1.368   1_565 S
C585   O745    1.380   .     S
C585   C596    1.400   .     A
C585   C604    1.404   .     A
C586   C603    1.405   .     A
C586   C597    1.408   .     A
C586   O746    1.382   .     S
C587   C594    1.403   .     A
C587   O747    1.390   .     S
C587   C603    1.401   .     A
C588   C605    1.452   .     S
C588   O748    1.301   .     A
C588   O759    1.297   .     A
C589   C604    1.406   .     A
C589   C595    1.406   .     A
C589   O749    1.392   .     S
C590   C606    1.406   .     A
C590   C601    1.400   .     A
C590   O750    1.392   .     S
C591   C605    1.403   .     A
C591   C602    1.405   .     A
C591   O751    1.387   .     S
C592   O752    1.377   .     S
C592   C605    1.406   .     A
C592   C598    1.398   .     A
C593   C606    1.405   .     A
C593   C600    1.407   .     A
C593   O753    1.381   .     S
C594   C608    1.403   .     A
C594   O754    1.380   .     S
C595   C607    1.404   .     A
C595   O755    1.381   .     S
C596   O756    1.389   .     S
C596   C607    1.400   .     A
C597   O757    1.391   .     S
C597   C608    1.404   .     A
C598   C611    1.401   .     A
C598   O758    1.388   .     S
C599   O764    1.299   .     A
C599   O767    1.299   .     A
C599   C604    1.452   .     S
C600   O760    1.393   .     S
C600   C609    1.405   .     A
C601   O761    1.381   .     S
C601   C609    1.404   .     A
C602   O762    1.382   .     S
C602   C611    1.404   .     A
C603   C610    1.447   .     S
C607   C639    1.447   .     S
C608   C638    1.451   .     S
C609   C632    1.450   .     S
C610   O766    1.293   .     A
C610   O765    1.302   .     A
C611   C621    1.444   .     S
C612   N732    1.456   .     S
C612   H678    1.111   .     S
C612   H656    1.104   .     S
C612   H667    1.113   .     S
C613   N733    1.452   .     S
C613   H711    1.106   .     S
C613   H722    1.112   .     S
C613   H1468   1.109   .     S
C614   H646    1.108   .     S
C614   H648    1.110   .     S
C614   H647    1.110   .     S
C614   N542    1.449   1_655 S
C615   H650    1.109   .     S
C615   H652    1.110   .     S
C615   H651    1.106   .     S
C615   N543    1.444   1_655 S
C616   H655    1.107   .     S
C616   H654    1.111   .     S
C616   H657    1.106   .     S
C616   N736    1.453   .     S
C617   H659    1.113   .     S
C617   N726    1.456   .     S
C617   H660    1.111   .     S
C617   H661    1.104   .     S
C618   N727    1.444   .     S
C618   H664    1.105   .     S
C618   H665    1.108   .     S
C618   H663    1.109   .     S
C619   H670    1.109   .     S
C619   H669    1.108   .     S
C619   H668    1.108   .     S
C619   N728    1.446   .     S
C620   O745    1.416   .     S
C620   H672    1.110   .     S
C620   H673    1.116   .     S
C620   H671    1.107   .     S
C621   O740    1.301   .     A
C621   O768    1.293   .     A
C622   H675    1.112   .     S
C622   O746    1.415   .     S
C622   H676    1.115   .     S
C623   H677    1.110   .     S
C623   H679    1.110   .     S
C623   H680    1.113   .     S
C623   O747    1.411   .     S
C624   H683    1.110   .     S
C624   H682    1.110   .     S
C624   H681    1.112   .     S
C624   O749    1.413   .     S
C625   O750    1.411   .     S
C625   H684    1.110   .     S
C625   H685    1.109   .     S
C625   H686    1.111   .     S
C626   H687    1.112   .     S
C626   O751    1.410   .     S
C626   H690    1.110   .     S
C626   H688    1.110   .     S
C627   O752    1.414   .     S
C627   H691    1.107   .     S
C627   H692    1.106   .     S
C627   H693    1.114   .     S
C628   O753    1.411   .     S
C628   H695    1.114   .     S
C628   H694    1.113   .     S
C629   O754    1.413   .     S
C629   H698    1.105   .     S
C629   H699    1.110   .     S
C629   H697    1.114   .     S
C630   H702    1.112   .     S
C630   O755    1.408   .     S
C630   H701    1.104   .     S
C630   H703    1.113   .     S
C631   O756    1.411   .     S
C631   H706    1.116   .     S
C631   H704    1.109   .     S
C632   O739    1.298   .     A
C632   O738    1.299   .     A
C633   H708    1.109   .     S
C633   O757    1.412   .     S
C633   H709    1.110   .     S
C633   H707    1.112   .     S
C634   H710    1.114   .     S
C634   O758    1.412   .     S
C634   H713    1.109   .     S
C634   H328    1.109   1_565 S
C635   H714    1.111   .     S
C635   H715    1.110   .     S
C635   H716    1.110   .     S
C635   O760    1.413   .     S
C636   O761    1.414   .     S
C636   H719    1.117   .     S
C636   H718    1.103   .     S
C636   H717    1.110   .     S
C637   H721    1.112   .     S
C637   H720    1.113   .     S
C637   H723    1.103   .     S
C637   O762    1.411   .     S
C638   O744    1.297   .     A
C638   O741    1.300   .     A
C639   O742    1.302   .     A
C639   O743    1.292   .     A
C640   N729    1.378   .     A
C640   N732    1.417   .     S
C640   C1924   1.438   1_554 S
Cu641  O765    1.967   .     S
Cu641  N725    2.033   .     S
Cu641  Cu642   2.706   .     S
Cu641  O737    1.951   .     S
Cu642  O763    1.966   .     S
Cu642  N729    2.033   .     S
Cu642  O766    1.952   .     S
Cu643  N730    2.033   .     S
Cu643  Cu644   2.706   .     S
Cu643  O742    1.967   .     S
Cu643  O739    1.966   .     S
Cu644  N731    2.033   .     S
Cu644  O743    1.952   .     S
Cu644  O738    1.951   .     S
H645   N732    1.028   .     S
H649   N735    1.030   .     S
H653   N736    1.027   .     S
H658   N726    1.028   .     S
H662   N727    1.029   .     S
H666   N728    1.029   .     S
H674   C430    1.108   1_655 S
H689   N733    1.028   .     S
H696   C436    1.103   1_655 S
H700   C2149   1.109   1_554 S
H705   C247    1.110   1_565 S
H724   N734    1.030   .     S
O740   Cu260   1.966   1_565 S
O741   Cu260   1.967   1_565 S
O744   Cu259   1.952   1_565 S
O748   Cu450   1.951   1_655 S
O759   Cu449   1.966   1_655 S
O764   Cu450   1.967   1_655 S
O767   Cu449   1.952   1_655 S
O768   Cu259   1.951   1_565 S
C769   O929    1.289   .     A
C769   O955    1.307   .     A
C769   C798    1.449   .     S
C770   N917    1.380   .     A
C770   N925    1.419   .     S
C770   C1539   1.435   .     S
C771   N921    1.368   .     A
C771   N926    1.424   .     S
C772   C1792   1.438   .     S
C772   N1109   1.367   .     S
C772   N1119   1.423   .     S
C773   N928    1.420   .     S
C773   N1307   1.380   .     S
C774   N918    1.418   .     S
C774   N922    1.378   .     A
C774   C1543   1.438   .     S
C775   N923    1.369   .     A
C775   N919    1.425   .     S
C776   N920    1.424   .     S
C776   C1541   1.438   .     S
C776   N1306   1.368   .     S
C777   O937    1.380   .     S
C777   C788    1.400   .     A
C777   C796    1.404   .     A
C778   C795    1.405   .     A
C778   C789    1.408   .     A
C778   O938    1.382   .     S
C779   C786    1.403   .     A
C779   O939    1.390   .     S
C779   C795    1.401   .     A
C780   C797    1.452   .     S
C780   O940    1.301   .     A
C780   O951    1.297   .     A
C781   C796    1.406   .     A
C781   C787    1.406   .     A
C781   O941    1.392   .     S
C782   C798    1.406   .     A
C782   C793    1.400   .     A
C782   O942    1.392   .     S
C783   C797    1.403   .     A
C783   C794    1.405   .     A
C783   O943    1.387   .     S
C784   O944    1.377   .     S
C784   C797    1.406   .     A
C784   C790    1.398   .     A
C785   C798    1.405   .     A
C785   C792    1.407   .     A
C785   O945    1.381   .     S
C786   C800    1.403   .     A
C786   O946    1.380   .     S
C787   C799    1.404   .     A
C787   O947    1.381   .     S
C788   O948    1.389   .     S
C788   C799    1.400   .     A
C789   O949    1.391   .     S
C789   C800    1.404   .     A
C790   C803    1.401   .     A
C790   O950    1.388   .     S
C791   O956    1.299   .     A
C791   O959    1.299   .     A
C791   C796    1.452   .     S
C792   O952    1.393   .     S
C792   C801    1.405   .     A
C793   O953    1.381   .     S
C793   C801    1.404   .     A
C794   O954    1.382   .     S
C794   C803    1.404   .     A
C795   C802    1.447   .     S
C799   C831    1.447   .     S
C800   C830    1.451   .     S
C801   C824    1.450   .     S
C802   O958    1.293   .     A
C802   O957    1.302   .     A
C803   C813    1.444   .     S
C804   N924    1.456   .     S
C804   H870    1.111   .     S
C804   H848    1.104   .     S
C804   H859    1.113   .     S
C805   N925    1.452   .     S
C805   H903    1.106   .     S
C805   H914    1.112   .     S
C805   H1660   1.109   .     S
C806   H838    1.108   .     S
C806   H840    1.110   .     S
C806   H839    1.110   .     S
C806   N1118   1.449   .     S
C807   H842    1.109   .     S
C807   H844    1.110   .     S
C807   H843    1.106   .     S
C807   N1119   1.444   .     S
C808   H847    1.107   .     S
C808   H846    1.111   .     S
C808   H849    1.106   .     S
C808   N928    1.453   .     S
C809   H851    1.113   .     S
C809   N918    1.456   .     S
C809   H852    1.111   .     S
C809   H853    1.104   .     S
C810   N919    1.444   .     S
C810   H856    1.105   .     S
C810   H857    1.108   .     S
C810   H855    1.109   .     S
C811   H862    1.109   .     S
C811   H861    1.108   .     S
C811   H860    1.108   .     S
C811   N920    1.446   .     S
C812   O937    1.416   .     S
C812   H864    1.110   .     S
C812   H865    1.116   .     S
C812   H863    1.107   .     S
C813   O932    1.301   .     A
C813   O960    1.293   .     A
C814   H867    1.112   .     S
C814   O938    1.415   .     S
C814   H868    1.115   .     S
C814   H1058   1.108   1_455 S
C815   H869    1.110   .     S
C815   H871    1.110   .     S
C815   H872    1.113   .     S
C815   O939    1.411   .     S
C816   H875    1.110   .     S
C816   H874    1.110   .     S
C816   H873    1.112   .     S
C816   O941    1.413   .     S
C817   O942    1.411   .     S
C817   H876    1.110   .     S
C817   H877    1.109   .     S
C817   H878    1.111   .     S
C818   H879    1.112   .     S
C818   O943    1.410   .     S
C818   H882    1.110   .     S
C818   H880    1.110   .     S
C819   O944    1.414   .     S
C819   H883    1.107   .     S
C819   H884    1.106   .     S
C819   H885    1.114   .     S
C820   O945    1.411   .     S
C820   H887    1.114   .     S
C820   H886    1.113   .     S
C820   H1080   1.103   1_455 S
C821   O946    1.413   .     S
C821   H890    1.105   .     S
C821   H891    1.110   .     S
C821   H889    1.114   .     S
C822   H894    1.112   .     S
C822   O947    1.408   .     S
C822   H893    1.104   .     S
C822   H895    1.113   .     S
C823   O948    1.411   .     S
C823   H898    1.116   .     S
C823   H896    1.109   .     S
C823   H1281   1.110   1_545 S
C824   O931    1.298   .     A
C824   O930    1.299   .     A
C825   H900    1.109   .     S
C825   O949    1.412   .     S
C825   H901    1.110   .     S
C825   H899    1.112   .     S
C826   H902    1.114   .     S
C826   O950    1.412   .     S
C826   H905    1.109   .     S
C826   H1288   1.109   .     S
C827   H906    1.111   .     S
C827   H907    1.110   .     S
C827   H908    1.110   .     S
C827   O952    1.413   .     S
C828   O953    1.414   .     S
C828   H911    1.117   .     S
C828   H910    1.103   .     S
C828   H909    1.110   .     S
C829   H913    1.112   .     S
C829   H912    1.113   .     S
C829   H915    1.103   .     S
C829   O954    1.411   .     S
C830   O936    1.297   .     A
C830   O933    1.300   .     A
C831   O934    1.302   .     A
C831   O935    1.292   .     A
C832   N921    1.378   .     A
C832   N924    1.417   .     S
C832   C196    1.438   1_455 S
Cu833  O957    1.967   .     S
Cu833  N917    2.033   .     S
Cu833  Cu834   2.706   .     S
Cu833  O929    1.951   .     S
Cu833  O1143   1.966   1_455 S
Cu833  O1151   1.952   1_455 S
Cu834  O955    1.966   .     S
Cu834  N921    2.033   .     S
Cu834  O958    1.952   .     S
Cu834  O1132   1.951   1_455 S
Cu834  O1148   1.967   1_455 S
Cu835  N922    2.033   .     S
Cu835  Cu836   2.706   .     S
Cu835  O934    1.967   .     S
Cu835  O931    1.966   .     S
Cu835  O1320   1.952   1_545 S
Cu835  O1344   1.951   1_545 S
Cu836  N923    2.033   .     S
Cu836  O935    1.952   .     S
Cu836  O930    1.951   .     S
Cu836  O1316   1.966   1_545 S
Cu836  O1317   1.967   1_545 S
H837   N924    1.028   .     S
H841   N927    1.030   .     S
H845   N928    1.027   .     S
H850   N918    1.028   .     S
H854   N919    1.029   .     S
H858   N920    1.029   .     S
H866   C1006   1.108   .     S
H881   N925    1.028   .     S
H888   C1012   1.103   .     S
H897   C1207   1.110   .     S
H904   C1210   1.109   1_545 S
H916   N926    1.030   .     S
N917   C964    1.367   1_455 S
N922   C1160   1.368   1_545 S
N923   C1157   1.380   1_545 S
N926   C998    1.449   1_455 S
N927   C999    1.444   1_455 S
N927   C964    1.423   1_455 S
O932   Cu1220  1.966   .     S
O933   Cu1220  1.967   .     S
O936   Cu1219  1.952   .     S
O940   Cu1026  1.951   .     S
O951   Cu1025  1.966   .     S
O956   Cu1026  1.967   .     S
O959   Cu1025  1.952   .     S
O960   Cu1219  1.951   .     S
C961   O1121   1.289   .     A
C961   O1147   1.307   .     A
C961   C990    1.449   .     S
C962   N1109   1.380   .     A
C962   N1117   1.419   .     S
C962   C1731   1.435   .     S
C963   N1113   1.368   .     A
C963   N1118   1.424   .     S
C964   C1600   1.438   1_655 S
C964   N917    1.367   1_655 S
C964   N927    1.423   1_655 S
C965   N1120   1.420   .     S
C965   N1499   1.380   .     S
C966   N1110   1.418   .     S
C966   N1114   1.378   .     A
C966   C1735   1.438   .     S
C967   N1115   1.369   .     A
C967   N1111   1.425   .     S
C968   N1112   1.424   .     S
C968   C1733   1.438   .     S
C968   N1498   1.368   .     S
C969   O1129   1.380   .     S
C969   C980    1.400   .     A
C969   C988    1.404   .     A
C970   C987    1.405   .     A
C970   C981    1.408   .     A
C970   O1130   1.382   .     S
C971   C978    1.403   .     A
C971   O1131   1.390   .     S
C971   C987    1.401   .     A
C972   C989    1.452   .     S
C972   O1132   1.301   .     A
C972   O1143   1.297   .     A
C973   C988    1.406   .     A
C973   C979    1.406   .     A
C973   O1133   1.392   .     S
C974   C990    1.406   .     A
C974   C985    1.400   .     A
C974   O1134   1.392   .     S
C975   C989    1.403   .     A
C975   C986    1.405   .     A
C975   O1135   1.387   .     S
C976   O1136   1.377   .     S
C976   C989    1.406   .     A
C976   C982    1.398   .     A
C977   C990    1.405   .     A
C977   C984    1.407   .     A
C977   O1137   1.381   .     S
C978   C992    1.403   .     A
C978   O1138   1.380   .     S
C979   C991    1.404   .     A
C979   O1139   1.381   .     S
C980   O1140   1.389   .     S
C980   C991    1.400   .     A
C981   O1141   1.391   .     S
C981   C992    1.404   .     A
C982   C995    1.401   .     A
C982   O1142   1.388   .     S
C983   O1148   1.299   .     A
C983   O1151   1.299   .     A
C983   C988    1.452   .     S
C984   O1144   1.393   .     S
C984   C993    1.405   .     A
C985   O1145   1.381   .     S
C985   C993    1.404   .     A
C986   O1146   1.382   .     S
C986   C995    1.404   .     A
C987   C994    1.447   .     S
C991   C1023   1.447   .     S
C992   C1022   1.451   .     S
C993   C1016   1.450   .     S
C994   O1150   1.293   .     A
C994   O1149   1.302   .     A
C995   C1005   1.444   .     S
C996   N1116   1.456   .     S
C996   H1062   1.111   .     S
C996   H1040   1.104   .     S
C996   H1051   1.113   .     S
C997   N1117   1.452   .     S
C997   H1095   1.106   .     S
C997   H1106   1.112   .     S
C997   H1852   1.109   .     S
C998   H1030   1.108   .     S
C998   H1032   1.110   .     S
C998   H1031   1.110   .     S
C998   N926    1.449   1_655 S
C999   H1034   1.109   .     S
C999   H1036   1.110   .     S
C999   H1035   1.106   .     S
C999   N927    1.444   1_655 S
C1000  H1039   1.107   .     S
C1000  H1038   1.111   .     S
C1000  H1041   1.106   .     S
C1000  N1120   1.453   .     S
C1001  H1043   1.113   .     S
C1001  N1110   1.456   .     S
C1001  H1044   1.111   .     S
C1001  H1045   1.104   .     S
C1002  N1111   1.444   .     S
C1002  H1048   1.105   .     S
C1002  H1049   1.108   .     S
C1002  H1047   1.109   .     S
C1003  H1054   1.109   .     S
C1003  H1053   1.108   .     S
C1003  H1052   1.108   .     S
C1003  N1112   1.446   .     S
C1004  O1129   1.416   .     S
C1004  H1056   1.110   .     S
C1004  H1057   1.116   .     S
C1004  H1055   1.107   .     S
C1005  O1124   1.301   .     A
C1005  O1152   1.293   .     A
C1006  H1059   1.112   .     S
C1006  O1130   1.415   .     S
C1006  H1060   1.115   .     S
C1007  H1061   1.110   .     S
C1007  H1063   1.110   .     S
C1007  H1064   1.113   .     S
C1007  O1131   1.411   .     S
C1008  H1067   1.110   .     S
C1008  H1066   1.110   .     S
C1008  H1065   1.112   .     S
C1008  O1133   1.413   .     S
C1009  O1134   1.411   .     S
C1009  H1068   1.110   .     S
C1009  H1069   1.109   .     S
C1009  H1070   1.111   .     S
C1010  H1071   1.112   .     S
C1010  O1135   1.410   .     S
C1010  H1074   1.110   .     S
C1010  H1072   1.110   .     S
C1011  O1136   1.414   .     S
C1011  H1075   1.107   .     S
C1011  H1076   1.106   .     S
C1011  H1077   1.114   .     S
C1012  O1137   1.411   .     S
C1012  H1079   1.114   .     S
C1012  H1078   1.113   .     S
C1013  O1138   1.413   .     S
C1013  H1082   1.105   .     S
C1013  H1083   1.110   .     S
C1013  H1081   1.114   .     S
C1014  H1086   1.112   .     S
C1014  O1139   1.408   .     S
C1014  H1085   1.104   .     S
C1014  H1087   1.113   .     S
C1015  O1140   1.411   .     S
C1015  H1090   1.116   .     S
C1015  H1088   1.109   .     S
C1015  H1473   1.110   1_545 S
C1016  O1123   1.298   .     A
C1016  O1122   1.299   .     A
C1017  H1092   1.109   .     S
C1017  O1141   1.412   .     S
C1017  H1093   1.110   .     S
C1017  H1091   1.112   .     S
C1018  H1094   1.114   .     S
C1018  O1142   1.412   .     S
C1018  H1097   1.109   .     S
C1018  H1480   1.109   .     S
C1019  H1098   1.111   .     S
C1019  H1099   1.110   .     S
C1019  H1100   1.110   .     S
C1019  O1144   1.413   .     S
C1020  O1145   1.414   .     S
C1020  H1103   1.117   .     S
C1020  H1102   1.103   .     S
C1020  H1101   1.110   .     S
C1021  H1105   1.112   .     S
C1021  H1104   1.113   .     S
C1021  H1107   1.103   .     S
C1021  O1146   1.411   .     S
C1022  O1128   1.297   .     A
C1022  O1125   1.300   .     A
C1023  O1126   1.302   .     A
C1023  O1127   1.292   .     A
C1024  N1113   1.378   .     A
C1024  N1116   1.417   .     S
Cu1025 O1149   1.967   .     S
Cu1025 N1109   2.033   .     S
Cu1025 Cu1026  2.706   .     S
Cu1025 O1121   1.951   .     S
Cu1026 O1147   1.966   .     S
Cu1026 N1113   2.033   .     S
Cu1026 O1150   1.952   .     S
Cu1027 N1114   2.033   .     S
Cu1027 Cu1028  2.706   .     S
Cu1027 O1126   1.967   .     S
Cu1027 O1123   1.966   .     S
Cu1027 O1512   1.952   1_545 S
Cu1027 O1536   1.951   1_545 S
Cu1028 N1115   2.033   .     S
Cu1028 O1127   1.952   .     S
Cu1028 O1122   1.951   .     S
Cu1028 O1508   1.966   1_545 S
Cu1028 O1509   1.967   1_545 S
H1029  N1116   1.028   .     S
H1033  N1119   1.030   .     S
H1037  N1120   1.027   .     S
H1042  N1110   1.028   .     S
H1046  N1111   1.029   .     S
H1050  N1112   1.029   .     S
H1058  C814    1.108   1_655 S
H1073  N1117   1.028   .     S
H1080  C820    1.103   1_655 S
H1089  C1399   1.110   .     S
H1096  C1402   1.109   1_545 S
H1108  N1118   1.030   .     S
N1114  C1352   1.368   1_545 S
N1115  C1349   1.380   1_545 S
O1124  Cu1412  1.966   .     S
O1125  Cu1412  1.967   .     S
O1128  Cu1411  1.952   .     S
O1132  Cu834   1.951   1_655 S
O1143  Cu833   1.966   1_655 S
O1148  Cu834   1.967   1_655 S
O1151  Cu833   1.952   1_655 S
O1152  Cu1411  1.951   .     S
C1153  O1313   1.289   .     A
C1153  O1339   1.307   .     A
C1153  C1182   1.449   .     S
C1154  N1301   1.380   .     A
C1154  N1309   1.419   .     S
C1154  C1923   1.435   .     S
C1155  N1305   1.368   .     A
C1155  N1310   1.424   .     S
C1156  C2176   1.438   .     S
C1156  N1493   1.367   .     S
C1156  N1503   1.423   .     S
C1157  N1312   1.420   .     S
C1157  N923    1.380   1_565 S
C1158  N1302   1.418   .     S
C1158  N1306   1.378   .     A
C1158  C1927   1.438   .     S
C1159  N1307   1.369   .     A
C1159  N1303   1.425   .     S
C1160  N1304   1.424   .     S
C1160  C1925   1.438   .     S
C1160  N922    1.368   1_565 S
C1161  O1321   1.380   .     S
C1161  C1172   1.400   .     A
C1161  C1180   1.404   .     A
C1162  C1179   1.405   .     A
C1162  C1173   1.408   .     A
C1162  O1322   1.382   .     S
C1163  C1170   1.403   .     A
C1163  O1323   1.390   .     S
C1163  C1179   1.401   .     A
C1164  C1181   1.452   .     S
C1164  O1324   1.301   .     A
C1164  O1335   1.297   .     A
C1165  C1180   1.406   .     A
C1165  C1171   1.406   .     A
C1165  O1325   1.392   .     S
C1166  C1182   1.406   .     A
C1166  C1177   1.400   .     A
C1166  O1326   1.392   .     S
C1167  C1181   1.403   .     A
C1167  C1178   1.405   .     A
C1167  O1327   1.387   .     S
C1168  O1328   1.377   .     S
C1168  C1181   1.406   .     A
C1168  C1174   1.398   .     A
C1169  C1182   1.405   .     A
C1169  C1176   1.407   .     A
C1169  O1329   1.381   .     S
C1170  C1184   1.403   .     A
C1170  O1330   1.380   .     S
C1171  C1183   1.404   .     A
C1171  O1331   1.381   .     S
C1172  O1332   1.389   .     S
C1172  C1183   1.400   .     A
C1173  O1333   1.391   .     S
C1173  C1184   1.404   .     A
C1174  C1187   1.401   .     A
C1174  O1334   1.388   .     S
C1175  O1340   1.299   .     A
C1175  O1343   1.299   .     A
C1175  C1180   1.452   .     S
C1176  O1336   1.393   .     S
C1176  C1185   1.405   .     A
C1177  O1337   1.381   .     S
C1177  C1185   1.404   .     A
C1178  O1338   1.382   .     S
C1178  C1187   1.404   .     A
C1179  C1186   1.447   .     S
C1183  C1215   1.447   .     S
C1184  C1214   1.451   .     S
C1185  C1208   1.450   .     S
C1186  O1342   1.293   .     A
C1186  O1341   1.302   .     A
C1187  C1197   1.444   .     S
C1188  N1308   1.456   .     S
C1188  H1254   1.111   .     S
C1188  H1232   1.104   .     S
C1188  H1243   1.113   .     S
C1189  N1309   1.452   .     S
C1189  H1287   1.106   .     S
C1189  H1298   1.112   .     S
C1189  H2044   1.109   .     S
C1190  H1222   1.108   .     S
C1190  H1224   1.110   .     S
C1190  H1223   1.110   .     S
C1190  N1502   1.449   .     S
C1191  H1226   1.109   .     S
C1191  H1228   1.110   .     S
C1191  H1227   1.106   .     S
C1191  N1503   1.444   .     S
C1192  H1231   1.107   .     S
C1192  H1230   1.111   .     S
C1192  H1233   1.106   .     S
C1192  N1312   1.453   .     S
C1193  H1235   1.113   .     S
C1193  N1302   1.456   .     S
C1193  H1236   1.111   .     S
C1193  H1237   1.104   .     S
C1194  N1303   1.444   .     S
C1194  H1240   1.105   .     S
C1194  H1241   1.108   .     S
C1194  H1239   1.109   .     S
C1195  H1246   1.109   .     S
C1195  H1245   1.108   .     S
C1195  H1244   1.108   .     S
C1195  N1304   1.446   .     S
C1196  O1321   1.416   .     S
C1196  H1248   1.110   .     S
C1196  H1249   1.116   .     S
C1196  H1247   1.107   .     S
C1197  O1316   1.301   .     A
C1197  O1344   1.293   .     A
C1198  H1251   1.112   .     S
C1198  O1322   1.415   .     S
C1198  H1252   1.115   .     S
C1198  H1442   1.108   1_455 S
C1199  H1253   1.110   .     S
C1199  H1255   1.110   .     S
C1199  H1256   1.113   .     S
C1199  O1323   1.411   .     S
C1200  H1259   1.110   .     S
C1200  H1258   1.110   .     S
C1200  H1257   1.112   .     S
C1200  O1325   1.413   .     S
C1201  O1326   1.411   .     S
C1201  H1260   1.110   .     S
C1201  H1261   1.109   .     S
C1201  H1262   1.111   .     S
C1202  H1263   1.112   .     S
C1202  O1327   1.410   .     S
C1202  H1266   1.110   .     S
C1202  H1264   1.110   .     S
C1203  O1328   1.414   .     S
C1203  H1267   1.107   .     S
C1203  H1268   1.106   .     S
C1203  H1269   1.114   .     S
C1204  O1329   1.411   .     S
C1204  H1271   1.114   .     S
C1204  H1270   1.113   .     S
C1204  H1464   1.103   1_455 S
C1205  O1330   1.413   .     S
C1205  H1274   1.105   .     S
C1205  H1275   1.110   .     S
C1205  H1273   1.114   .     S
C1206  H1278   1.112   .     S
C1206  O1331   1.408   .     S
C1206  H1277   1.104   .     S
C1206  H1279   1.113   .     S
C1207  O1332   1.411   .     S
C1207  H1282   1.116   .     S
C1207  H1280   1.109   .     S
C1208  O1315   1.298   .     A
C1208  O1314   1.299   .     A
C1209  H1284   1.109   .     S
C1209  O1333   1.412   .     S
C1209  H1285   1.110   .     S
C1209  H1283   1.112   .     S
C1210  H1286   1.114   .     S
C1210  O1334   1.412   .     S
C1210  H1289   1.109   .     S
C1210  H904    1.109   1_565 S
C1211  H1290   1.111   .     S
C1211  H1291   1.110   .     S
C1211  H1292   1.110   .     S
C1211  O1336   1.413   .     S
C1212  O1337   1.414   .     S
C1212  H1295   1.117   .     S
C1212  H1294   1.103   .     S
C1212  H1293   1.110   .     S
C1213  H1297   1.112   .     S
C1213  H1296   1.113   .     S
C1213  H1299   1.103   .     S
C1213  O1338   1.411   .     S
C1214  O1320   1.297   .     A
C1214  O1317   1.300   .     A
C1215  O1318   1.302   .     A
C1215  O1319   1.292   .     A
C1216  N1305   1.378   .     A
C1216  N1308   1.417   .     S
C1216  C580    1.438   1_455 S
Cu1217 O1341   1.967   .     S
Cu1217 N1301   2.033   .     S
Cu1217 Cu1218  2.706   .     S
Cu1217 O1313   1.951   .     S
Cu1217 O1527   1.966   1_455 S
Cu1217 O1535   1.952   1_455 S
Cu1218 O1339   1.966   .     S
Cu1218 N1305   2.033   .     S
Cu1218 O1342   1.952   .     S
Cu1218 O1516   1.951   1_455 S
Cu1218 O1532   1.967   1_455 S
Cu1219 N1306   2.033   .     S
Cu1219 Cu1220  2.706   .     S
Cu1219 O1318   1.967   .     S
Cu1219 O1315   1.966   .     S
Cu1220 N1307   2.033   .     S
Cu1220 O1319   1.952   .     S
Cu1220 O1314   1.951   .     S
H1221  N1308   1.028   .     S
H1225  N1311   1.030   .     S
H1229  N1312   1.027   .     S
H1234  N1302   1.028   .     S
H1238  N1303   1.029   .     S
H1242  N1304   1.029   .     S
H1250  C1390   1.108   .     S
H1265  N1309   1.028   .     S
H1272  C1396   1.103   .     S
H1281  C823    1.110   1_565 S
H1300  N1310   1.030   .     S
N1301  C1348   1.367   1_455 S
N1310  C1382   1.449   1_455 S
N1311  C1383   1.444   1_455 S
N1311  C1348   1.423   1_455 S
O1316  Cu836   1.966   1_565 S
O1317  Cu836   1.967   1_565 S
O1320  Cu835   1.952   1_565 S
O1324  Cu1410  1.951   .     S
O1335  Cu1409  1.966   .     S
O1340  Cu1410  1.967   .     S
O1343  Cu1409  1.952   .     S
O1344  Cu835   1.951   1_565 S
C1345  O1505   1.289   .     A
C1345  O1531   1.307   .     A
C1345  C1374   1.449   .     S
C1346  N1493   1.380   .     A
C1346  N1501   1.419   .     S
C1346  C2115   1.435   .     S
C1347  N1497   1.368   .     A
C1347  N1502   1.424   .     S
C1348  C1984   1.438   1_655 S
C1348  N1301   1.367   1_655 S
C1348  N1311   1.423   1_655 S
C1349  N1504   1.420   .     S
C1349  N1115   1.380   1_565 S
C1350  N1494   1.418   .     S
C1350  N1498   1.378   .     A
C1350  C2119   1.438   .     S
C1351  N1499   1.369   .     A
C1351  N1495   1.425   .     S
C1352  N1496   1.424   .     S
C1352  C2117   1.438   .     S
C1352  N1114   1.368   1_565 S
C1353  O1513   1.380   .     S
C1353  C1364   1.400   .     A
C1353  C1372   1.404   .     A
C1354  C1371   1.405   .     A
C1354  C1365   1.408   .     A
C1354  O1514   1.382   .     S
C1355  C1362   1.403   .     A
C1355  O1515   1.390   .     S
C1355  C1371   1.401   .     A
C1356  C1373   1.452   .     S
C1356  O1516   1.301   .     A
C1356  O1527   1.297   .     A
C1357  C1372   1.406   .     A
C1357  C1363   1.406   .     A
C1357  O1517   1.392   .     S
C1358  C1374   1.406   .     A
C1358  C1369   1.400   .     A
C1358  O1518   1.392   .     S
C1359  C1373   1.403   .     A
C1359  C1370   1.405   .     A
C1359  O1519   1.387   .     S
C1360  O1520   1.377   .     S
C1360  C1373   1.406   .     A
C1360  C1366   1.398   .     A
C1361  C1374   1.405   .     A
C1361  C1368   1.407   .     A
C1361  O1521   1.381   .     S
C1362  C1376   1.403   .     A
C1362  O1522   1.380   .     S
C1363  C1375   1.404   .     A
C1363  O1523   1.381   .     S
C1364  O1524   1.389   .     S
C1364  C1375   1.400   .     A
C1365  O1525   1.391   .     S
C1365  C1376   1.404   .     A
C1366  C1379   1.401   .     A
C1366  O1526   1.388   .     S
C1367  O1532   1.299   .     A
C1367  O1535   1.299   .     A
C1367  C1372   1.452   .     S
C1368  O1528   1.393   .     S
C1368  C1377   1.405   .     A
C1369  O1529   1.381   .     S
C1369  C1377   1.404   .     A
C1370  O1530   1.382   .     S
C1370  C1379   1.404   .     A
C1371  C1378   1.447   .     S
C1375  C1407   1.447   .     S
C1376  C1406   1.451   .     S
C1377  C1400   1.450   .     S
C1378  O1534   1.293   .     A
C1378  O1533   1.302   .     A
C1379  C1389   1.444   .     S
C1380  N1500   1.456   .     S
C1380  H1446   1.111   .     S
C1380  H1424   1.104   .     S
C1380  H1435   1.113   .     S
C1381  N1501   1.452   .     S
C1381  H1479   1.106   .     S
C1381  H1490   1.112   .     S
C1381  H2236   1.109   .     S
C1382  H1414   1.108   .     S
C1382  H1416   1.110   .     S
C1382  H1415   1.110   .     S
C1382  N1310   1.449   1_655 S
C1383  H1418   1.109   .     S
C1383  H1420   1.110   .     S
C1383  H1419   1.106   .     S
C1383  N1311   1.444   1_655 S
C1384  H1423   1.107   .     S
C1384  H1422   1.111   .     S
C1384  H1425   1.106   .     S
C1384  N1504   1.453   .     S
C1385  H1427   1.113   .     S
C1385  N1494   1.456   .     S
C1385  H1428   1.111   .     S
C1385  H1429   1.104   .     S
C1386  N1495   1.444   .     S
C1386  H1432   1.105   .     S
C1386  H1433   1.108   .     S
C1386  H1431   1.109   .     S
C1387  H1438   1.109   .     S
C1387  H1437   1.108   .     S
C1387  H1436   1.108   .     S
C1387  N1496   1.446   .     S
C1388  O1513   1.416   .     S
C1388  H1440   1.110   .     S
C1388  H1441   1.116   .     S
C1388  H1439   1.107   .     S
C1389  O1508   1.301   .     A
C1389  O1536   1.293   .     A
C1390  H1443   1.112   .     S
C1390  O1514   1.415   .     S
C1390  H1444   1.115   .     S
C1391  H1445   1.110   .     S
C1391  H1447   1.110   .     S
C1391  H1448   1.113   .     S
C1391  O1515   1.411   .     S
C1392  H1451   1.110   .     S
C1392  H1450   1.110   .     S
C1392  H1449   1.112   .     S
C1392  O1517   1.413   .     S
C1393  O1518   1.411   .     S
C1393  H1452   1.110   .     S
C1393  H1453   1.109   .     S
C1393  H1454   1.111   .     S
C1394  H1455   1.112   .     S
C1394  O1519   1.410   .     S
C1394  H1458   1.110   .     S
C1394  H1456   1.110   .     S
C1395  O1520   1.414   .     S
C1395  H1459   1.107   .     S
C1395  H1460   1.106   .     S
C1395  H1461   1.114   .     S
C1396  O1521   1.411   .     S
C1396  H1463   1.114   .     S
C1396  H1462   1.113   .     S
C1397  O1522   1.413   .     S
C1397  H1466   1.105   .     S
C1397  H1467   1.110   .     S
C1397  H1465   1.114   .     S
C1398  H1470   1.112   .     S
C1398  O1523   1.408   .     S
C1398  H1469   1.104   .     S
C1398  H1471   1.113   .     S
C1399  O1524   1.411   .     S
C1399  H1474   1.116   .     S
C1399  H1472   1.109   .     S
C1400  O1507   1.298   .     A
C1400  O1506   1.299   .     A
C1401  H1476   1.109   .     S
C1401  O1525   1.412   .     S
C1401  H1477   1.110   .     S
C1401  H1475   1.112   .     S
C1402  H1478   1.114   .     S
C1402  O1526   1.412   .     S
C1402  H1481   1.109   .     S
C1402  H1096   1.109   1_565 S
C1403  H1482   1.111   .     S
C1403  H1483   1.110   .     S
C1403  H1484   1.110   .     S
C1403  O1528   1.413   .     S
C1404  O1529   1.414   .     S
C1404  H1487   1.117   .     S
C1404  H1486   1.103   .     S
C1404  H1485   1.110   .     S
C1405  H1489   1.112   .     S
C1405  H1488   1.113   .     S
C1405  H1491   1.103   .     S
C1405  O1530   1.411   .     S
C1406  O1512   1.297   .     A
C1406  O1509   1.300   .     A
C1407  O1510   1.302   .     A
C1407  O1511   1.292   .     A
C1408  N1497   1.378   .     A
C1408  N1500   1.417   .     S
Cu1409 O1533   1.967   .     S
Cu1409 N1493   2.033   .     S
Cu1409 Cu1410  2.706   .     S
Cu1409 O1505   1.951   .     S
Cu1410 O1531   1.966   .     S
Cu1410 N1497   2.033   .     S
Cu1410 O1534   1.952   .     S
Cu1411 N1498   2.033   .     S
Cu1411 Cu1412  2.706   .     S
Cu1411 O1510   1.967   .     S
Cu1411 O1507   1.966   .     S
Cu1412 N1499   2.033   .     S
Cu1412 O1511   1.952   .     S
Cu1412 O1506   1.951   .     S
H1413  N1500   1.028   .     S
H1417  N1503   1.030   .     S
H1421  N1504   1.027   .     S
H1426  N1494   1.028   .     S
H1430  N1495   1.029   .     S
H1434  N1496   1.029   .     S
H1442  C1198   1.108   1_655 S
H1457  N1501   1.028   .     S
H1464  C1204   1.103   1_655 S
H1473  C1015   1.110   1_565 S
H1492  N1502   1.030   .     S
O1508  Cu1028  1.966   1_565 S
O1509  Cu1028  1.967   1_565 S
O1512  Cu1027  1.952   1_565 S
O1516  Cu1218  1.951   1_655 S
O1527  Cu1217  1.966   1_655 S
O1532  Cu1218  1.967   1_655 S
O1535  Cu1217  1.952   1_655 S
O1536  Cu1027  1.951   1_565 S
C1537  O1697   1.289   .     A
C1537  O1723   1.307   .     A
C1537  C1566   1.449   .     S
C1538  N1685   1.380   .     A
C1538  N1693   1.419   .     S
C1538  C3      1.435   1_556 S
C1539  N1689   1.368   .     A
C1539  N1694   1.424   .     S
C1540  C256    1.438   1_556 S
C1540  N1877   1.367   .     S
C1540  N1887   1.423   .     S
C1541  N1696   1.420   .     S
C1541  N2075   1.380   .     S
C1542  N1686   1.418   .     S
C1542  N1690   1.378   .     A
C1542  C7      1.438   1_556 S
C1543  N1691   1.369   .     A
C1543  N1687   1.425   .     S
C1544  N1688   1.424   .     S
C1544  C5      1.438   1_556 S
C1544  N2074   1.368   .     S
C1545  O1705   1.380   .     S
C1545  C1556   1.400   .     A
C1545  C1564   1.404   .     A
C1546  C1563   1.405   .     A
C1546  C1557   1.408   .     A
C1546  O1706   1.382   .     S
C1547  C1554   1.403   .     A
C1547  O1707   1.390   .     S
C1547  C1563   1.401   .     A
C1548  C1565   1.452   .     S
C1548  O1708   1.301   .     A
C1548  O1719   1.297   .     A
C1549  C1564   1.406   .     A
C1549  C1555   1.406   .     A
C1549  O1709   1.392   .     S
C1550  C1566   1.406   .     A
C1550  C1561   1.400   .     A
C1550  O1710   1.392   .     S
C1551  C1565   1.403   .     A
C1551  C1562   1.405   .     A
C1551  O1711   1.387   .     S
C1552  O1712   1.377   .     S
C1552  C1565   1.406   .     A
C1552  C1558   1.398   .     A
C1553  C1566   1.405   .     A
C1553  C1560   1.407   .     A
C1553  O1713   1.381   .     S
C1554  C1568   1.403   .     A
C1554  O1714   1.380   .     S
C1555  C1567   1.404   .     A
C1555  O1715   1.381   .     S
C1556  O1716   1.389   .     S
C1556  C1567   1.400   .     A
C1557  O1717   1.391   .     S
C1557  C1568   1.404   .     A
C1558  C1571   1.401   .     A
C1558  O1718   1.388   .     S
C1559  O1724   1.299   .     A
C1559  O1727   1.299   .     A
C1559  C1564   1.452   .     S
C1560  O1720   1.393   .     S
C1560  C1569   1.405   .     A
C1561  O1721   1.381   .     S
C1561  C1569   1.404   .     A
C1562  O1722   1.382   .     S
C1562  C1571   1.404   .     A
C1563  C1570   1.447   .     S
C1567  C1599   1.447   .     S
C1568  C1598   1.451   .     S
C1569  C1592   1.450   .     S
C1570  O1726   1.293   .     A
C1570  O1725   1.302   .     A
C1571  C1581   1.444   .     S
C1572  N1692   1.456   .     S
C1572  H1638   1.111   .     S
C1572  H1616   1.104   .     S
C1572  H1627   1.113   .     S
C1573  N1693   1.452   .     S
C1573  H1671   1.106   .     S
C1573  H1682   1.112   .     S
C1573  H124    1.109   1_556 S
C1574  H1606   1.108   .     S
C1574  H1608   1.110   .     S
C1574  H1607   1.110   .     S
C1574  N1886   1.449   .     S
C1575  H1610   1.109   .     S
C1575  H1612   1.110   .     S
C1575  H1611   1.106   .     S
C1575  N1887   1.444   .     S
C1576  H1615   1.107   .     S
C1576  H1614   1.111   .     S
C1576  H1617   1.106   .     S
C1576  N1696   1.453   .     S
C1577  H1619   1.113   .     S
C1577  N1686   1.456   .     S
C1577  H1620   1.111   .     S
C1577  H1621   1.104   .     S
C1578  N1687   1.444   .     S
C1578  H1624   1.105   .     S
C1578  H1625   1.108   .     S
C1578  H1623   1.109   .     S
C1579  H1630   1.109   .     S
C1579  H1629   1.108   .     S
C1579  H1628   1.108   .     S
C1579  N1688   1.446   .     S
C1580  O1705   1.416   .     S
C1580  H1632   1.110   .     S
C1580  H1633   1.116   .     S
C1580  H1631   1.107   .     S
C1581  O1700   1.301   .     A
C1581  O1728   1.293   .     A
C1582  H1635   1.112   .     S
C1582  O1706   1.415   .     S
C1582  H1636   1.115   .     S
C1582  H1826   1.108   1_455 S
C1583  H1637   1.110   .     S
C1583  H1639   1.110   .     S
C1583  H1640   1.113   .     S
C1583  O1707   1.411   .     S
C1584  H1643   1.110   .     S
C1584  H1642   1.110   .     S
C1584  H1641   1.112   .     S
C1584  O1709   1.413   .     S
C1585  O1710   1.411   .     S
C1585  H1644   1.110   .     S
C1585  H1645   1.109   .     S
C1585  H1646   1.111   .     S
C1586  H1647   1.112   .     S
C1586  O1711   1.410   .     S
C1586  H1650   1.110   .     S
C1586  H1648   1.110   .     S
C1587  O1712   1.414   .     S
C1587  H1651   1.107   .     S
C1587  H1652   1.106   .     S
C1587  H1653   1.114   .     S
C1588  O1713   1.411   .     S
C1588  H1655   1.114   .     S
C1588  H1654   1.113   .     S
C1588  H1848   1.103   1_455 S
C1589  O1714   1.413   .     S
C1589  H1658   1.105   .     S
C1589  H1659   1.110   .     S
C1589  H1657   1.114   .     S
C1590  H1662   1.112   .     S
C1590  O1715   1.408   .     S
C1590  H1661   1.104   .     S
C1590  H1663   1.113   .     S
C1591  O1716   1.411   .     S
C1591  H1666   1.116   .     S
C1591  H1664   1.109   .     S
C1591  H2049   1.110   1_545 S
C1592  O1699   1.298   .     A
C1592  O1698   1.299   .     A
C1593  H1668   1.109   .     S
C1593  O1717   1.412   .     S
C1593  H1669   1.110   .     S
C1593  H1667   1.112   .     S
C1594  H1670   1.114   .     S
C1594  O1718   1.412   .     S
C1594  H1673   1.109   .     S
C1594  H2056   1.109   .     S
C1595  H1674   1.111   .     S
C1595  H1675   1.110   .     S
C1595  H1676   1.110   .     S
C1595  O1720   1.413   .     S
C1596  O1721   1.414   .     S
C1596  H1679   1.117   .     S
C1596  H1678   1.103   .     S
C1596  H1677   1.110   .     S
C1597  H1681   1.112   .     S
C1597  H1680   1.113   .     S
C1597  H1683   1.103   .     S
C1597  O1722   1.411   .     S
C1598  O1704   1.297   .     A
C1598  O1701   1.300   .     A
C1599  O1702   1.302   .     A
C1599  O1703   1.292   .     A
C1600  N1689   1.378   .     A
C1600  N1692   1.417   .     S
C1600  C964    1.438   1_455 S
Cu1601 O1725   1.967   .     S
Cu1601 N1685   2.033   .     S
Cu1601 Cu1602  2.706   .     S
Cu1601 O1697   1.951   .     S
Cu1601 O1911   1.966   1_455 S
Cu1601 O1919   1.952   1_455 S
Cu1602 O1723   1.966   .     S
Cu1602 N1689   2.033   .     S
Cu1602 O1726   1.952   .     S
Cu1602 O1900   1.951   1_455 S
Cu1602 O1916   1.967   1_455 S
Cu1603 N1690   2.033   .     S
Cu1603 Cu1604  2.706   .     S
Cu1603 O1702   1.967   .     S
Cu1603 O1699   1.966   .     S
Cu1603 O2088   1.952   1_545 S
Cu1603 O2112   1.951   1_545 S
Cu1604 N1691   2.033   .     S
Cu1604 O1703   1.952   .     S
Cu1604 O1698   1.951   .     S
Cu1604 O2084   1.966   1_545 S
Cu1604 O2085   1.967   1_545 S
H1605  N1692   1.028   .     S
H1609  N1695   1.030   .     S
H1613  N1696   1.027   .     S
H1618  N1686   1.028   .     S
H1622  N1687   1.029   .     S
H1626  N1688   1.029   .     S
H1634  C1774   1.108   .     S
H1649  N1693   1.028   .     S
H1656  C1780   1.103   .     S
H1665  C1975   1.110   .     S
H1672  C1978   1.109   1_545 S
H1684  N1694   1.030   .     S
N1685  C1732   1.367   1_455 S
N1690  C1928   1.368   1_545 S
N1691  C1925   1.380   1_545 S
N1694  C1766   1.449   1_455 S
N1695  C1767   1.444   1_455 S
N1695  C1732   1.423   1_455 S
O1700  Cu1988  1.966   .     S
O1701  Cu1988  1.967   .     S
O1704  Cu1987  1.952   .     S
O1708  Cu1794  1.951   .     S
O1719  Cu1793  1.966   .     S
O1724  Cu1794  1.967   .     S
O1727  Cu1793  1.952   .     S
O1728  Cu1987  1.951   .     S
C1729  O1889   1.289   .     A
C1729  O1915   1.307   .     A
C1729  C1758   1.449   .     S
C1730  N1877   1.380   .     A
C1730  N1885   1.419   .     S
C1730  C195    1.435   1_556 S
C1731  N1881   1.368   .     A
C1731  N1886   1.424   .     S
C1732  C64     1.438   1_656 S
C1732  N1685   1.367   1_655 S
C1732  N1695   1.423   1_655 S
C1733  N1888   1.420   .     S
C1733  N2267   1.380   .     S
C1734  N1878   1.418   .     S
C1734  N1882   1.378   .     A
C1734  C199    1.438   1_556 S
C1735  N1883   1.369   .     A
C1735  N1879   1.425   .     S
C1736  N1880   1.424   .     S
C1736  C197    1.438   1_556 S
C1736  N2266   1.368   .     S
C1737  O1897   1.380   .     S
C1737  C1748   1.400   .     A
C1737  C1756   1.404   .     A
C1738  C1755   1.405   .     A
C1738  C1749   1.408   .     A
C1738  O1898   1.382   .     S
C1739  C1746   1.403   .     A
C1739  O1899   1.390   .     S
C1739  C1755   1.401   .     A
C1740  C1757   1.452   .     S
C1740  O1900   1.301   .     A
C1740  O1911   1.297   .     A
C1741  C1756   1.406   .     A
C1741  C1747   1.406   .     A
C1741  O1901   1.392   .     S
C1742  C1758   1.406   .     A
C1742  C1753   1.400   .     A
C1742  O1902   1.392   .     S
C1743  C1757   1.403   .     A
C1743  C1754   1.405   .     A
C1743  O1903   1.387   .     S
C1744  O1904   1.377   .     S
C1744  C1757   1.406   .     A
C1744  C1750   1.398   .     A
C1745  C1758   1.405   .     A
C1745  C1752   1.407   .     A
C1745  O1905   1.381   .     S
C1746  C1760   1.403   .     A
C1746  O1906   1.380   .     S
C1747  C1759   1.404   .     A
C1747  O1907   1.381   .     S
C1748  O1908   1.389   .     S
C1748  C1759   1.400   .     A
C1749  O1909   1.391   .     S
C1749  C1760   1.404   .     A
C1750  C1763   1.401   .     A
C1750  O1910   1.388   .     S
C1751  O1916   1.299   .     A
C1751  O1919   1.299   .     A
C1751  C1756   1.452   .     S
C1752  O1912   1.393   .     S
C1752  C1761   1.405   .     A
C1753  O1913   1.381   .     S
C1753  C1761   1.404   .     A
C1754  O1914   1.382   .     S
C1754  C1763   1.404   .     A
C1755  C1762   1.447   .     S
C1759  C1791   1.447   .     S
C1760  C1790   1.451   .     S
C1761  C1784   1.450   .     S
C1762  O1918   1.293   .     A
C1762  O1917   1.302   .     A
C1763  C1773   1.444   .     S
C1764  N1884   1.456   .     S
C1764  H1830   1.111   .     S
C1764  H1808   1.104   .     S
C1764  H1819   1.113   .     S
C1765  N1885   1.452   .     S
C1765  H1863   1.106   .     S
C1765  H1874   1.112   .     S
C1765  H316    1.109   1_556 S
C1766  H1798   1.108   .     S
C1766  H1800   1.110   .     S
C1766  H1799   1.110   .     S
C1766  N1694   1.449   1_655 S
C1767  H1802   1.109   .     S
C1767  H1804   1.110   .     S
C1767  H1803   1.106   .     S
C1767  N1695   1.444   1_655 S
C1768  H1807   1.107   .     S
C1768  H1806   1.111   .     S
C1768  H1809   1.106   .     S
C1768  N1888   1.453   .     S
C1769  H1811   1.113   .     S
C1769  N1878   1.456   .     S
C1769  H1812   1.111   .     S
C1769  H1813   1.104   .     S
C1770  N1879   1.444   .     S
C1770  H1816   1.105   .     S
C1770  H1817   1.108   .     S
C1770  H1815   1.109   .     S
C1771  H1822   1.109   .     S
C1771  H1821   1.108   .     S
C1771  H1820   1.108   .     S
C1771  N1880   1.446   .     S
C1772  O1897   1.416   .     S
C1772  H1824   1.110   .     S
C1772  H1825   1.116   .     S
C1772  H1823   1.107   .     S
C1773  O1892   1.301   .     A
C1773  O1920   1.293   .     A
C1774  H1827   1.112   .     S
C1774  O1898   1.415   .     S
C1774  H1828   1.115   .     S
C1775  H1829   1.110   .     S
C1775  H1831   1.110   .     S
C1775  H1832   1.113   .     S
C1775  O1899   1.411   .     S
C1776  H1835   1.110   .     S
C1776  H1834   1.110   .     S
C1776  H1833   1.112   .     S
C1776  O1901   1.413   .     S
C1777  O1902   1.411   .     S
C1777  H1836   1.110   .     S
C1777  H1837   1.109   .     S
C1777  H1838   1.111   .     S
C1778  H1839   1.112   .     S
C1778  O1903   1.410   .     S
C1778  H1842   1.110   .     S
C1778  H1840   1.110   .     S
C1779  O1904   1.414   .     S
C1779  H1843   1.107   .     S
C1779  H1844   1.106   .     S
C1779  H1845   1.114   .     S
C1780  O1905   1.411   .     S
C1780  H1847   1.114   .     S
C1780  H1846   1.113   .     S
C1781  O1906   1.413   .     S
C1781  H1850   1.105   .     S
C1781  H1851   1.110   .     S
C1781  H1849   1.114   .     S
C1782  H1854   1.112   .     S
C1782  O1907   1.408   .     S
C1782  H1853   1.104   .     S
C1782  H1855   1.113   .     S
C1783  O1908   1.411   .     S
C1783  H1858   1.116   .     S
C1783  H1856   1.109   .     S
C1783  H2241   1.110   1_545 S
C1784  O1891   1.298   .     A
C1784  O1890   1.299   .     A
C1785  H1860   1.109   .     S
C1785  O1909   1.412   .     S
C1785  H1861   1.110   .     S
C1785  H1859   1.112   .     S
C1786  H1862   1.114   .     S
C1786  O1910   1.412   .     S
C1786  H1865   1.109   .     S
C1786  H2248   1.109   .     S
C1787  H1866   1.111   .     S
C1787  H1867   1.110   .     S
C1787  H1868   1.110   .     S
C1787  O1912   1.413   .     S
C1788  O1913   1.414   .     S
C1788  H1871   1.117   .     S
C1788  H1870   1.103   .     S
C1788  H1869   1.110   .     S
C1789  H1873   1.112   .     S
C1789  H1872   1.113   .     S
C1789  H1875   1.103   .     S
C1789  O1914   1.411   .     S
C1790  O1896   1.297   .     A
C1790  O1893   1.300   .     A
C1791  O1894   1.302   .     A
C1791  O1895   1.292   .     A
C1792  N1881   1.378   .     A
C1792  N1884   1.417   .     S
Cu1793 O1917   1.967   .     S
Cu1793 N1877   2.033   .     S
Cu1793 Cu1794  2.706   .     S
Cu1793 O1889   1.951   .     S
Cu1794 O1915   1.966   .     S
Cu1794 N1881   2.033   .     S
Cu1794 O1918   1.952   .     S
Cu1795 N1882   2.033   .     S
Cu1795 Cu1796  2.706   .     S
Cu1795 O1894   1.967   .     S
Cu1795 O1891   1.966   .     S
Cu1795 O2280   1.952   1_545 S
Cu1795 O2304   1.951   1_545 S
Cu1796 N1883   2.033   .     S
Cu1796 O1895   1.952   .     S
Cu1796 O1890   1.951   .     S
Cu1796 O2276   1.966   1_545 S
Cu1796 O2277   1.967   1_545 S
H1797  N1884   1.028   .     S
H1801  N1887   1.030   .     S
H1805  N1888   1.027   .     S
H1810  N1878   1.028   .     S
H1814  N1879   1.029   .     S
H1818  N1880   1.029   .     S
H1826  C1582   1.108   1_655 S
H1841  N1885   1.028   .     S
H1848  C1588   1.103   1_655 S
H1857  C2167   1.110   .     S
H1864  C2170   1.109   1_545 S
H1876  N1886   1.030   .     S
N1882  C2120   1.368   1_545 S
N1883  C2117   1.380   1_545 S
O1892  Cu2180  1.966   .     S
O1893  Cu2180  1.967   .     S
O1896  Cu2179  1.952   .     S
O1900  Cu1602  1.951   1_655 S
O1911  Cu1601  1.966   1_655 S
O1916  Cu1602  1.967   1_655 S
O1919  Cu1601  1.952   1_655 S
O1920  Cu2179  1.951   .     S
C1921  O2081   1.289   .     A
C1921  O2107   1.307   .     A
C1921  C1950   1.449   .     S
C1922  N2069   1.380   .     A
C1922  N2077   1.419   .     S
C1922  C387    1.435   1_556 S
C1923  N2073   1.368   .     A
C1923  N2078   1.424   .     S
C1924  C640    1.438   1_556 S
C1924  N2261   1.367   .     S
C1924  N2271   1.423   .     S
C1925  N2080   1.420   .     S
C1925  N1691   1.380   1_565 S
C1926  N2070   1.418   .     S
C1926  N2074   1.378   .     A
C1926  C391    1.438   1_556 S
C1927  N2075   1.369   .     A
C1927  N2071   1.425   .     S
C1928  N2072   1.424   .     S
C1928  C389    1.438   1_556 S
C1928  N1690   1.368   1_565 S
C1929  O2089   1.380   .     S
C1929  C1940   1.400   .     A
C1929  C1948   1.404   .     A
C1930  C1947   1.405   .     A
C1930  C1941   1.408   .     A
C1930  O2090   1.382   .     S
C1931  C1938   1.403   .     A
C1931  O2091   1.390   .     S
C1931  C1947   1.401   .     A
C1932  C1949   1.452   .     S
C1932  O2092   1.301   .     A
C1932  O2103   1.297   .     A
C1933  C1948   1.406   .     A
C1933  C1939   1.406   .     A
C1933  O2093   1.392   .     S
C1934  C1950   1.406   .     A
C1934  C1945   1.400   .     A
C1934  O2094   1.392   .     S
C1935  C1949   1.403   .     A
C1935  C1946   1.405   .     A
C1935  O2095   1.387   .     S
C1936  O2096   1.377   .     S
C1936  C1949   1.406   .     A
C1936  C1942   1.398   .     A
C1937  C1950   1.405   .     A
C1937  C1944   1.407   .     A
C1937  O2097   1.381   .     S
C1938  C1952   1.403   .     A
C1938  O2098   1.380   .     S
C1939  C1951   1.404   .     A
C1939  O2099   1.381   .     S
C1940  O2100   1.389   .     S
C1940  C1951   1.400   .     A
C1941  O2101   1.391   .     S
C1941  C1952   1.404   .     A
C1942  C1955   1.401   .     A
C1942  O2102   1.388   .     S
C1943  O2108   1.299   .     A
C1943  O2111   1.299   .     A
C1943  C1948   1.452   .     S
C1944  O2104   1.393   .     S
C1944  C1953   1.405   .     A
C1945  O2105   1.381   .     S
C1945  C1953   1.404   .     A
C1946  O2106   1.382   .     S
C1946  C1955   1.404   .     A
C1947  C1954   1.447   .     S
C1951  C1983   1.447   .     S
C1952  C1982   1.451   .     S
C1953  C1976   1.450   .     S
C1954  O2110   1.293   .     A
C1954  O2109   1.302   .     A
C1955  C1965   1.444   .     S
C1956  N2076   1.456   .     S
C1956  H2022   1.111   .     S
C1956  H2000   1.104   .     S
C1956  H2011   1.113   .     S
C1957  N2077   1.452   .     S
C1957  H2055   1.106   .     S
C1957  H2066   1.112   .     S
C1957  H508    1.109   1_556 S
C1958  H1990   1.108   .     S
C1958  H1992   1.110   .     S
C1958  H1991   1.110   .     S
C1958  N2270   1.449   .     S
C1959  H1994   1.109   .     S
C1959  H1996   1.110   .     S
C1959  H1995   1.106   .     S
C1959  N2271   1.444   .     S
C1960  H1999   1.107   .     S
C1960  H1998   1.111   .     S
C1960  H2001   1.106   .     S
C1960  N2080   1.453   .     S
C1961  H2003   1.113   .     S
C1961  N2070   1.456   .     S
C1961  H2004   1.111   .     S
C1961  H2005   1.104   .     S
C1962  N2071   1.444   .     S
C1962  H2008   1.105   .     S
C1962  H2009   1.108   .     S
C1962  H2007   1.109   .     S
C1963  H2014   1.109   .     S
C1963  H2013   1.108   .     S
C1963  H2012   1.108   .     S
C1963  N2072   1.446   .     S
C1964  O2089   1.416   .     S
C1964  H2016   1.110   .     S
C1964  H2017   1.116   .     S
C1964  H2015   1.107   .     S
C1965  O2084   1.301   .     A
C1965  O2112   1.293   .     A
C1966  H2019   1.112   .     S
C1966  O2090   1.415   .     S
C1966  H2020   1.115   .     S
C1966  H2210   1.108   1_455 S
C1967  H2021   1.110   .     S
C1967  H2023   1.110   .     S
C1967  H2024   1.113   .     S
C1967  O2091   1.411   .     S
C1968  H2027   1.110   .     S
C1968  H2026   1.110   .     S
C1968  H2025   1.112   .     S
C1968  O2093   1.413   .     S
C1969  O2094   1.411   .     S
C1969  H2028   1.110   .     S
C1969  H2029   1.109   .     S
C1969  H2030   1.111   .     S
C1970  H2031   1.112   .     S
C1970  O2095   1.410   .     S
C1970  H2034   1.110   .     S
C1970  H2032   1.110   .     S
C1971  O2096   1.414   .     S
C1971  H2035   1.107   .     S
C1971  H2036   1.106   .     S
C1971  H2037   1.114   .     S
C1972  O2097   1.411   .     S
C1972  H2039   1.114   .     S
C1972  H2038   1.113   .     S
C1972  H2232   1.103   1_455 S
C1973  O2098   1.413   .     S
C1973  H2042   1.105   .     S
C1973  H2043   1.110   .     S
C1973  H2041   1.114   .     S
C1974  H2046   1.112   .     S
C1974  O2099   1.408   .     S
C1974  H2045   1.104   .     S
C1974  H2047   1.113   .     S
C1975  O2100   1.411   .     S
C1975  H2050   1.116   .     S
C1975  H2048   1.109   .     S
C1976  O2083   1.298   .     A
C1976  O2082   1.299   .     A
C1977  H2052   1.109   .     S
C1977  O2101   1.412   .     S
C1977  H2053   1.110   .     S
C1977  H2051   1.112   .     S
C1978  H2054   1.114   .     S
C1978  O2102   1.412   .     S
C1978  H2057   1.109   .     S
C1978  H1672   1.109   1_565 S
C1979  H2058   1.111   .     S
C1979  H2059   1.110   .     S
C1979  H2060   1.110   .     S
C1979  O2104   1.413   .     S
C1980  O2105   1.414   .     S
C1980  H2063   1.117   .     S
C1980  H2062   1.103   .     S
C1980  H2061   1.110   .     S
C1981  H2065   1.112   .     S
C1981  H2064   1.113   .     S
C1981  H2067   1.103   .     S
C1981  O2106   1.411   .     S
C1982  O2088   1.297   .     A
C1982  O2085   1.300   .     A
C1983  O2086   1.302   .     A
C1983  O2087   1.292   .     A
C1984  N2073   1.378   .     A
C1984  N2076   1.417   .     S
C1984  C1348   1.438   1_455 S
Cu1985 O2109   1.967   .     S
Cu1985 N2069   2.033   .     S
Cu1985 Cu1986  2.706   .     S
Cu1985 O2081   1.951   .     S
Cu1985 O2295   1.966   1_455 S
Cu1985 O2303   1.952   1_455 S
Cu1986 O2107   1.966   .     S
Cu1986 N2073   2.033   .     S
Cu1986 O2110   1.952   .     S
Cu1986 O2284   1.951   1_455 S
Cu1986 O2300   1.967   1_455 S
Cu1987 N2074   2.033   .     S
Cu1987 Cu1988  2.706   .     S
Cu1987 O2086   1.967   .     S
Cu1987 O2083   1.966   .     S
Cu1988 N2075   2.033   .     S
Cu1988 O2087   1.952   .     S
Cu1988 O2082   1.951   .     S
H1989  N2076   1.028   .     S
H1993  N2079   1.030   .     S
H1997  N2080   1.027   .     S
H2002  N2070   1.028   .     S
H2006  N2071   1.029   .     S
H2010  N2072   1.029   .     S
H2018  C2158   1.108   .     S
H2033  N2077   1.028   .     S
H2040  C2164   1.103   .     S
H2049  C1591   1.110   1_565 S
H2068  N2078   1.030   .     S
N2069  C2116   1.367   1_455 S
N2078  C2150   1.449   1_455 S
N2079  C2151   1.444   1_455 S
N2079  C2116   1.423   1_455 S
O2084  Cu1604  1.966   1_565 S
O2085  Cu1604  1.967   1_565 S
O2088  Cu1603  1.952   1_565 S
O2092  Cu2178  1.951   .     S
O2103  Cu2177  1.966   .     S
O2108  Cu2178  1.967   .     S
O2111  Cu2177  1.952   .     S
O2112  Cu1603  1.951   1_565 S
C2113  O2273   1.289   .     A
C2113  O2299   1.307   .     A
C2113  C2142   1.449   .     S
C2114  N2261   1.380   .     A
C2114  N2269   1.419   .     S
C2114  C579    1.435   1_556 S
C2115  N2265   1.368   .     A
C2115  N2270   1.424   .     S
C2116  C448    1.438   1_656 S
C2116  N2069   1.367   1_655 S
C2116  N2079   1.423   1_655 S
C2117  N2272   1.420   .     S
C2117  N1883   1.380   1_565 S
C2118  N2262   1.418   .     S
C2118  N2266   1.378   .     A
C2118  C583    1.438   1_556 S
C2119  N2267   1.369   .     A
C2119  N2263   1.425   .     S
C2120  N2264   1.424   .     S
C2120  C581    1.438   1_556 S
C2120  N1882   1.368   1_565 S
C2121  O2281   1.380   .     S
C2121  C2132   1.400   .     A
C2121  C2140   1.404   .     A
C2122  C2139   1.405   .     A
C2122  C2133   1.408   .     A
C2122  O2282   1.382   .     S
C2123  C2130   1.403   .     A
C2123  O2283   1.390   .     S
C2123  C2139   1.401   .     A
C2124  C2141   1.452   .     S
C2124  O2284   1.301   .     A
C2124  O2295   1.297   .     A
C2125  C2140   1.406   .     A
C2125  C2131   1.406   .     A
C2125  O2285   1.392   .     S
C2126  C2142   1.406   .     A
C2126  C2137   1.400   .     A
C2126  O2286   1.392   .     S
C2127  C2141   1.403   .     A
C2127  C2138   1.405   .     A
C2127  O2287   1.387   .     S
C2128  O2288   1.377   .     S
C2128  C2141   1.406   .     A
C2128  C2134   1.398   .     A
C2129  C2142   1.405   .     A
C2129  C2136   1.407   .     A
C2129  O2289   1.381   .     S
C2130  C2144   1.403   .     A
C2130  O2290   1.380   .     S
C2131  C2143   1.404   .     A
C2131  O2291   1.381   .     S
C2132  O2292   1.389   .     S
C2132  C2143   1.400   .     A
C2133  O2293   1.391   .     S
C2133  C2144   1.404   .     A
C2134  C2147   1.401   .     A
C2134  O2294   1.388   .     S
C2135  O2300   1.299   .     A
C2135  O2303   1.299   .     A
C2135  C2140   1.452   .     S
C2136  O2296   1.393   .     S
C2136  C2145   1.405   .     A
C2137  O2297   1.381   .     S
C2137  C2145   1.404   .     A
C2138  O2298   1.382   .     S
C2138  C2147   1.404   .     A
C2139  C2146   1.447   .     S
C2143  C2175   1.447   .     S
C2144  C2174   1.451   .     S
C2145  C2168   1.450   .     S
C2146  O2302   1.293   .     A
C2146  O2301   1.302   .     A
C2147  C2157   1.444   .     S
C2148  N2268   1.456   .     S
C2148  H2214   1.111   .     S
C2148  H2192   1.104   .     S
C2148  H2203   1.113   .     S
C2149  N2269   1.452   .     S
C2149  H2247   1.106   .     S
C2149  H2258   1.112   .     S
C2149  H700    1.109   1_556 S
C2150  H2182   1.108   .     S
C2150  H2184   1.110   .     S
C2150  H2183   1.110   .     S
C2150  N2078   1.449   1_655 S
C2151  H2186   1.109   .     S
C2151  H2188   1.110   .     S
C2151  H2187   1.106   .     S
C2151  N2079   1.444   1_655 S
C2152  H2191   1.107   .     S
C2152  H2190   1.111   .     S
C2152  H2193   1.106   .     S
C2152  N2272   1.453   .     S
C2153  H2195   1.113   .     S
C2153  N2262   1.456   .     S
C2153  H2196   1.111   .     S
C2153  H2197   1.104   .     S
C2154  N2263   1.444   .     S
C2154  H2200   1.105   .     S
C2154  H2201   1.108   .     S
C2154  H2199   1.109   .     S
C2155  H2206   1.109   .     S
C2155  H2205   1.108   .     S
C2155  H2204   1.108   .     S
C2155  N2264   1.446   .     S
C2156  O2281   1.416   .     S
C2156  H2208   1.110   .     S
C2156  H2209   1.116   .     S
C2156  H2207   1.107   .     S
C2157  O2276   1.301   .     A
C2157  O2304   1.293   .     A
C2158  H2211   1.112   .     S
C2158  O2282   1.415   .     S
C2158  H2212   1.115   .     S
C2159  H2213   1.110   .     S
C2159  H2215   1.110   .     S
C2159  H2216   1.113   .     S
C2159  O2283   1.411   .     S
C2160  H2219   1.110   .     S
C2160  H2218   1.110   .     S
C2160  H2217   1.112   .     S
C2160  O2285   1.413   .     S
C2161  O2286   1.411   .     S
C2161  H2220   1.110   .     S
C2161  H2221   1.109   .     S
C2161  H2222   1.111   .     S
C2162  H2223   1.112   .     S
C2162  O2287   1.410   .     S
C2162  H2226   1.110   .     S
C2162  H2224   1.110   .     S
C2163  O2288   1.414   .     S
C2163  H2227   1.107   .     S
C2163  H2228   1.106   .     S
C2163  H2229   1.114   .     S
C2164  O2289   1.411   .     S
C2164  H2231   1.114   .     S
C2164  H2230   1.113   .     S
C2165  O2290   1.413   .     S
C2165  H2234   1.105   .     S
C2165  H2235   1.110   .     S
C2165  H2233   1.114   .     S
C2166  H2238   1.112   .     S
C2166  O2291   1.408   .     S
C2166  H2237   1.104   .     S
C2166  H2239   1.113   .     S
C2167  O2292   1.411   .     S
C2167  H2242   1.116   .     S
C2167  H2240   1.109   .     S
C2168  O2275   1.298   .     A
C2168  O2274   1.299   .     A
C2169  H2244   1.109   .     S
C2169  O2293   1.412   .     S
C2169  H2245   1.110   .     S
C2169  H2243   1.112   .     S
C2170  H2246   1.114   .     S
C2170  O2294   1.412   .     S
C2170  H2249   1.109   .     S
C2170  H1864   1.109   1_565 S
C2171  H2250   1.111   .     S
C2171  H2251   1.110   .     S
C2171  H2252   1.110   .     S
C2171  O2296   1.413   .     S
C2172  O2297   1.414   .     S
C2172  H2255   1.117   .     S
C2172  H2254   1.103   .     S
C2172  H2253   1.110   .     S
C2173  H2257   1.112   .     S
C2173  H2256   1.113   .     S
C2173  H2259   1.103   .     S
C2173  O2298   1.411   .     S
C2174  O2280   1.297   .     A
C2174  O2277   1.300   .     A
C2175  O2278   1.302   .     A
C2175  O2279   1.292   .     A
C2176  N2265   1.378   .     A
C2176  N2268   1.417   .     S
Cu2177 O2301   1.967   .     S
Cu2177 N2261   2.033   .     S
Cu2177 Cu2178  2.706   .     S
Cu2177 O2273   1.951   .     S
Cu2178 O2299   1.966   .     S
Cu2178 N2265   2.033   .     S
Cu2178 O2302   1.952   .     S
Cu2179 N2266   2.033   .     S
Cu2179 Cu2180  2.706   .     S
Cu2179 O2278   1.967   .     S
Cu2179 O2275   1.966   .     S
Cu2180 N2267   2.033   .     S
Cu2180 O2279   1.952   .     S
Cu2180 O2274   1.951   .     S
H2181  N2268   1.028   .     S
H2185  N2271   1.030   .     S
H2189  N2272   1.027   .     S
H2194  N2262   1.028   .     S
H2198  N2263   1.029   .     S
H2202  N2264   1.029   .     S
H2210  C1966   1.108   1_655 S
H2225  N2269   1.028   .     S
H2232  C1972   1.103   1_655 S
H2241  C1783   1.110   1_565 S
H2260  N2270   1.030   .     S
O2276  Cu1796  1.966   1_565 S
O2277  Cu1796  1.967   1_565 S
O2280  Cu1795  1.952   1_565 S
O2284  Cu1986  1.951   1_655 S
O2295  Cu1985  1.966   1_655 S
O2300  Cu1986  1.967   1_655 S
O2303  Cu1985  1.952   1_655 S
O2304  Cu1795  1.951   1_565 S
