data_str_m2_o1_o5_pcu_sym.76
_audit_creation_date              2020-01-03
_audit_creation_method            'Materials Studio'
_symmetry_space_group_name_H-M    'P1'
_symmetry_Int_Tables_number       1
_symmetry_cell_setting            triclinic
loop_
_symmetry_equiv_pos_as_xyz
  x,y,z
_cell_length_a                    32.6871
_cell_length_b                    29.0083
_cell_length_c                    27.7193
_cell_angle_alpha                 90.0006
_cell_angle_beta                  96.1596
_cell_angle_gamma                 89.9997
loop_
_atom_site_label
_atom_site_type_symbol
_atom_site_fract_x
_atom_site_fract_y
_atom_site_fract_z
_atom_site_U_iso_or_equiv
_atom_site_adp_type
_atom_site_occupancy
O1     O     0.10655   0.20625   0.16666   0.00000  Uiso   1.00
O2     O     0.22679   0.12709   0.16667   0.00000  Uiso   1.00
O3     O     0.22679   0.20625   0.16667   0.00000  Uiso   1.00
O4     O     0.10655   0.12709   0.16666   0.00000  Uiso   1.00
C5     C     0.08774   0.16667   0.17085   0.00000  Uiso   1.00
C6     C     0.24559   0.16667   0.16248   0.00000  Uiso   1.00
O7     O     0.16667   0.20625   0.09613   0.00000  Uiso   1.00
O8     O     0.16667   0.12708   0.23720   0.00000  Uiso   1.00
O9     O     0.16667   0.20625   0.23720   0.00000  Uiso   1.00
O10    O     0.16667   0.12708   0.09613   0.00000  Uiso   1.00
C11    C     0.16655   0.16667   0.07358   0.00000  Uiso   1.00
C12    C     0.16678   0.16667   0.25976   0.00000  Uiso   1.00
Cu13   Cu    0.16667   0.21355   0.16667   0.00000  Uiso   1.00
Cu14   Cu    0.16667   0.11978   0.16667   0.00000  Uiso   1.00
C15    C     0.16666   0.16667   0.02177   0.00000  Uiso   1.00
C16    C     0.16667   0.16667   0.31156   0.00000  Uiso   1.00
C17    C     0.02094   0.12464   0.17608   0.00000  Uiso   1.00
C18    C     0.31239   0.20869   0.15725   0.00000  Uiso   1.00
C19    C     0.31239   0.12464   0.15725   0.00000  Uiso   1.00
C20    C     0.02094   0.20869   0.17608   0.00000  Uiso   1.00
C21    C     0.29045   0.16667   0.15696   0.00000  Uiso   1.00
C22    C     0.04288   0.16667   0.17637   0.00000  Uiso   1.00
C23    C     0.14231   0.02465   0.13205   0.00000  Uiso   1.00
C24    C     0.19102   0.30869   0.20128   0.00000  Uiso   1.00
C25    C     0.19102   0.02465   0.20128   0.00000  Uiso   1.00
C26    C     0.14231   0.30868   0.13205   0.00000  Uiso   1.00
N27    N     0.16667   0.28402   0.16667   0.00000  Uiso   1.00
N28    N     0.16667   0.04931   0.16667   0.00000  Uiso   1.00
N29    N     0.03845   0.08590   0.20427   0.00000  Uiso   1.00
O30    O     0.01747   0.04843   0.20889   0.00000  Uiso   1.00
O31    O     0.07095   0.09189   0.23492   0.00000  Uiso   1.00
N32    N     0.29488   0.24743   0.12906   0.00000  Uiso   1.00
O33    O     0.26239   0.24144   0.09841   0.00000  Uiso   1.00
O34    O     0.31585   0.28491   0.12445   0.00000  Uiso   1.00
N35    N     0.29488   0.08590   0.12907   0.00000  Uiso   1.00
O36    O     0.26239   0.09189   0.09842   0.00000  Uiso   1.00
O37    O     0.31586   0.04842   0.12446   0.00000  Uiso   1.00
N38    N     0.03845   0.24744   0.20427   0.00000  Uiso   1.00
O39    O     0.07094   0.24144   0.23492   0.00000  Uiso   1.00
O40    O     0.01748   0.28492   0.20886   0.00000  Uiso   1.00
C41    C     0.11623   0.04864   0.09284   0.00000  Uiso   1.00
C42    C     0.13030   0.05427   0.04727   0.00000  Uiso   1.00
C43    C     0.10590   0.07671   0.01002   0.00000  Uiso   1.00
C44    C     0.06666   0.09220   0.01740   0.00000  Uiso   1.00
C45    C     0.05122   0.08342   0.06141   0.00000  Uiso   1.00
C46    C     0.07552   0.06032   0.09846   0.00000  Uiso   1.00
H47    H     0.16055   0.04215   0.04143   0.00000  Uiso   1.00
H48    H     0.11780   0.08301   0.30924   0.00000  Uiso   1.00
H49    H     0.04802   0.11047   0.32230   0.00000  Uiso   1.00
H50    H     0.02050   0.09463   0.06645   0.00000  Uiso   1.00
H51    H     0.06304   0.05143   0.13153   0.00000  Uiso   1.00
C52    C     0.21710   0.28470   0.24049   0.00000  Uiso   1.00
C53    C     0.25781   0.27302   0.23487   0.00000  Uiso   1.00
C54    C     0.28211   0.24992   0.27193   0.00000  Uiso   1.00
C55    C     0.26668   0.24114   0.31593   0.00000  Uiso   1.00
C56    C     0.22744   0.25662   0.32331   0.00000  Uiso   1.00
C57    C     0.20304   0.27906   0.28606   0.00000  Uiso   1.00
H58    H     0.27030   0.28191   0.20181   0.00000  Uiso   1.00
H59    H     0.31284   0.23872   0.26688   0.00000  Uiso   1.00
H60    H     0.28532   0.22286   0.01103   0.00000  Uiso   1.00
H61    H     0.21554   0.25032   0.02409   0.00000  Uiso   1.00
H62    H     0.17278   0.29117   0.29190   0.00000  Uiso   1.00
C63    C     0.21710   0.04864   0.24049   0.00000  Uiso   1.00
C64    C     0.25781   0.06033   0.23488   0.00000  Uiso   1.00
C65    C     0.28210   0.08343   0.27193   0.00000  Uiso   1.00
C66    C     0.26667   0.09221   0.31594   0.00000  Uiso   1.00
C67    C     0.22743   0.07671   0.32331   0.00000  Uiso   1.00
C68    C     0.20303   0.05427   0.28607   0.00000  Uiso   1.00
H69    H     0.27030   0.05144   0.20181   0.00000  Uiso   1.00
H70    H     0.31282   0.09465   0.26688   0.00000  Uiso   1.00
H71    H     0.28531   0.11048   0.01103   0.00000  Uiso   1.00
H72    H     0.21553   0.08301   0.02409   0.00000  Uiso   1.00
H73    H     0.17278   0.04215   0.29191   0.00000  Uiso   1.00
C74    C     0.11623   0.28470   0.09284   0.00000  Uiso   1.00
C75    C     0.13030   0.27906   0.04727   0.00000  Uiso   1.00
C76    C     0.10590   0.25662   0.01002   0.00000  Uiso   1.00
C77    C     0.06666   0.24113   0.01740   0.00000  Uiso   1.00
C78    C     0.05123   0.24991   0.06140   0.00000  Uiso   1.00
C79    C     0.07552   0.27301   0.09846   0.00000  Uiso   1.00
H80    H     0.16055   0.29118   0.04143   0.00000  Uiso   1.00
H81    H     0.11780   0.25032   0.30924   0.00000  Uiso   1.00
H82    H     0.04802   0.22285   0.32230   0.00000  Uiso   1.00
H83    H     0.02051   0.23870   0.06645   0.00000  Uiso   1.00
H84    H     0.06304   0.28190   0.13152   0.00000  Uiso   1.00
O85    O     0.43988   0.20625   0.16666   0.00000  Uiso   1.00
O86    O     0.56012   0.12709   0.16667   0.00000  Uiso   1.00
O87    O     0.56012   0.20625   0.16667   0.00000  Uiso   1.00
O88    O     0.43988   0.12709   0.16666   0.00000  Uiso   1.00
C89    C     0.42107   0.16667   0.17085   0.00000  Uiso   1.00
C90    C     0.57893   0.16667   0.16248   0.00000  Uiso   1.00
O91    O     0.50000   0.20625   0.09613   0.00000  Uiso   1.00
O92    O     0.50000   0.12708   0.23720   0.00000  Uiso   1.00
O93    O     0.50000   0.20625   0.23720   0.00000  Uiso   1.00
O94    O     0.50000   0.12708   0.09613   0.00000  Uiso   1.00
C95    C     0.49988   0.16667   0.07358   0.00000  Uiso   1.00
C96    C     0.50012   0.16667   0.25976   0.00000  Uiso   1.00
Cu97   Cu    0.50000   0.21355   0.16667   0.00000  Uiso   1.00
Cu98   Cu    0.50000   0.11978   0.16667   0.00000  Uiso   1.00
C99    C     0.50000   0.16667   0.02177   0.00000  Uiso   1.00
C100   C     0.50000   0.16667   0.31156   0.00000  Uiso   1.00
C101   C     0.35428   0.12464   0.17608   0.00000  Uiso   1.00
C102   C     0.64572   0.20869   0.15725   0.00000  Uiso   1.00
C103   C     0.64572   0.12464   0.15725   0.00000  Uiso   1.00
C104   C     0.35428   0.20869   0.17608   0.00000  Uiso   1.00
C105   C     0.62378   0.16667   0.15696   0.00000  Uiso   1.00
C106   C     0.37622   0.16667   0.17637   0.00000  Uiso   1.00
C107   C     0.47564   0.02465   0.13205   0.00000  Uiso   1.00
C108   C     0.52436   0.30869   0.20128   0.00000  Uiso   1.00
C109   C     0.52436   0.02465   0.20128   0.00000  Uiso   1.00
C110   C     0.47564   0.30868   0.13205   0.00000  Uiso   1.00
N111   N     0.50000   0.28402   0.16667   0.00000  Uiso   1.00
N112   N     0.50000   0.04931   0.16667   0.00000  Uiso   1.00
N113   N     0.37179   0.08590   0.20427   0.00000  Uiso   1.00
O114   O     0.35081   0.04843   0.20889   0.00000  Uiso   1.00
O115   O     0.40428   0.09189   0.23492   0.00000  Uiso   1.00
N116   N     0.62821   0.24743   0.12906   0.00000  Uiso   1.00
O117   O     0.59572   0.24144   0.09841   0.00000  Uiso   1.00
O118   O     0.64919   0.28491   0.12445   0.00000  Uiso   1.00
N119   N     0.62821   0.08590   0.12907   0.00000  Uiso   1.00
O120   O     0.59573   0.09189   0.09842   0.00000  Uiso   1.00
O121   O     0.64919   0.04842   0.12446   0.00000  Uiso   1.00
N122   N     0.37179   0.24744   0.20427   0.00000  Uiso   1.00
O123   O     0.40427   0.24144   0.23492   0.00000  Uiso   1.00
O124   O     0.35082   0.28492   0.20886   0.00000  Uiso   1.00
C125   C     0.44956   0.04864   0.09284   0.00000  Uiso   1.00
C126   C     0.46363   0.05427   0.04727   0.00000  Uiso   1.00
C127   C     0.43923   0.07671   0.01002   0.00000  Uiso   1.00
C128   C     0.39999   0.09220   0.01740   0.00000  Uiso   1.00
C129   C     0.38456   0.08342   0.06141   0.00000  Uiso   1.00
C130   C     0.40886   0.06032   0.09846   0.00000  Uiso   1.00
H131   H     0.49388   0.04215   0.04143   0.00000  Uiso   1.00
H132   H     0.45113   0.08301   0.30924   0.00000  Uiso   1.00
H133   H     0.38135   0.11047   0.32230   0.00000  Uiso   1.00
H134   H     0.35384   0.09463   0.06645   0.00000  Uiso   1.00
H135   H     0.39637   0.05143   0.13153   0.00000  Uiso   1.00
C136   C     0.55044   0.28470   0.24049   0.00000  Uiso   1.00
C137   C     0.59115   0.27302   0.23487   0.00000  Uiso   1.00
C138   C     0.61545   0.24992   0.27193   0.00000  Uiso   1.00
C139   C     0.60001   0.24114   0.31593   0.00000  Uiso   1.00
C140   C     0.56077   0.25662   0.32331   0.00000  Uiso   1.00
C141   C     0.53637   0.27906   0.28606   0.00000  Uiso   1.00
H142   H     0.60363   0.28191   0.20181   0.00000  Uiso   1.00
H143   H     0.64617   0.23872   0.26688   0.00000  Uiso   1.00
H144   H     0.61865   0.22286   0.01103   0.00000  Uiso   1.00
H145   H     0.54887   0.25032   0.02409   0.00000  Uiso   1.00
H146   H     0.50612   0.29117   0.29190   0.00000  Uiso   1.00
C147   C     0.55043   0.04864   0.24049   0.00000  Uiso   1.00
C148   C     0.59114   0.06033   0.23488   0.00000  Uiso   1.00
C149   C     0.61544   0.08343   0.27193   0.00000  Uiso   1.00
C150   C     0.60000   0.09221   0.31594   0.00000  Uiso   1.00
C151   C     0.56076   0.07671   0.32331   0.00000  Uiso   1.00
C152   C     0.53637   0.05427   0.28607   0.00000  Uiso   1.00
H153   H     0.60363   0.05144   0.20181   0.00000  Uiso   1.00
H154   H     0.64615   0.09465   0.26688   0.00000  Uiso   1.00
H155   H     0.61864   0.11048   0.01103   0.00000  Uiso   1.00
H156   H     0.54887   0.08301   0.02409   0.00000  Uiso   1.00
H157   H     0.50612   0.04215   0.29191   0.00000  Uiso   1.00
C158   C     0.44957   0.28470   0.09284   0.00000  Uiso   1.00
C159   C     0.46363   0.27906   0.04727   0.00000  Uiso   1.00
C160   C     0.43923   0.25662   0.01002   0.00000  Uiso   1.00
C161   C     0.40000   0.24113   0.01740   0.00000  Uiso   1.00
C162   C     0.38456   0.24991   0.06140   0.00000  Uiso   1.00
C163   C     0.40886   0.27301   0.09846   0.00000  Uiso   1.00
H164   H     0.49388   0.29118   0.04143   0.00000  Uiso   1.00
H165   H     0.45113   0.25032   0.30924   0.00000  Uiso   1.00
H166   H     0.38136   0.22285   0.32230   0.00000  Uiso   1.00
H167   H     0.35384   0.23870   0.06645   0.00000  Uiso   1.00
H168   H     0.39637   0.28190   0.13152   0.00000  Uiso   1.00
O169   O     0.77321   0.20625   0.16666   0.00000  Uiso   1.00
O170   O     0.89345   0.12709   0.16667   0.00000  Uiso   1.00
O171   O     0.89345   0.20625   0.16667   0.00000  Uiso   1.00
O172   O     0.77321   0.12709   0.16666   0.00000  Uiso   1.00
C173   C     0.75441   0.16667   0.17085   0.00000  Uiso   1.00
C174   C     0.91226   0.16667   0.16248   0.00000  Uiso   1.00
O175   O     0.83333   0.20625   0.09613   0.00000  Uiso   1.00
O176   O     0.83333   0.12708   0.23720   0.00000  Uiso   1.00
O177   O     0.83333   0.20625   0.23720   0.00000  Uiso   1.00
O178   O     0.83333   0.12708   0.09613   0.00000  Uiso   1.00
C179   C     0.83322   0.16667   0.07358   0.00000  Uiso   1.00
C180   C     0.83345   0.16667   0.25976   0.00000  Uiso   1.00
Cu181  Cu    0.83333   0.21355   0.16667   0.00000  Uiso   1.00
Cu182  Cu    0.83333   0.11978   0.16667   0.00000  Uiso   1.00
C183   C     0.83333   0.16667   0.02177   0.00000  Uiso   1.00
C184   C     0.83334   0.16667   0.31156   0.00000  Uiso   1.00
C185   C     0.68761   0.12464   0.17608   0.00000  Uiso   1.00
C186   C     0.97906   0.20869   0.15725   0.00000  Uiso   1.00
C187   C     0.97906   0.12464   0.15725   0.00000  Uiso   1.00
C188   C     0.68761   0.20869   0.17608   0.00000  Uiso   1.00
C189   C     0.95712   0.16667   0.15696   0.00000  Uiso   1.00
C190   C     0.70955   0.16667   0.17637   0.00000  Uiso   1.00
C191   C     0.80898   0.02465   0.13205   0.00000  Uiso   1.00
C192   C     0.85769   0.30869   0.20128   0.00000  Uiso   1.00
C193   C     0.85769   0.02465   0.20128   0.00000  Uiso   1.00
C194   C     0.80898   0.30868   0.13205   0.00000  Uiso   1.00
N195   N     0.83333   0.28402   0.16667   0.00000  Uiso   1.00
N196   N     0.83333   0.04931   0.16667   0.00000  Uiso   1.00
N197   N     0.70512   0.08590   0.20427   0.00000  Uiso   1.00
O198   O     0.68414   0.04843   0.20889   0.00000  Uiso   1.00
O199   O     0.73761   0.09189   0.23492   0.00000  Uiso   1.00
N200   N     0.96154   0.24743   0.12906   0.00000  Uiso   1.00
O201   O     0.92906   0.24144   0.09841   0.00000  Uiso   1.00
O202   O     0.98252   0.28491   0.12445   0.00000  Uiso   1.00
N203   N     0.96155   0.08590   0.12907   0.00000  Uiso   1.00
O204   O     0.92906   0.09189   0.09842   0.00000  Uiso   1.00
O205   O     0.98252   0.04842   0.12446   0.00000  Uiso   1.00
N206   N     0.70512   0.24744   0.20427   0.00000  Uiso   1.00
O207   O     0.73761   0.24144   0.23492   0.00000  Uiso   1.00
O208   O     0.68415   0.28492   0.20886   0.00000  Uiso   1.00
C209   C     0.78290   0.04864   0.09284   0.00000  Uiso   1.00
C210   C     0.79696   0.05427   0.04727   0.00000  Uiso   1.00
C211   C     0.77256   0.07671   0.01002   0.00000  Uiso   1.00
C212   C     0.73333   0.09220   0.01740   0.00000  Uiso   1.00
C213   C     0.71789   0.08342   0.06141   0.00000  Uiso   1.00
C214   C     0.74219   0.06032   0.09846   0.00000  Uiso   1.00
H215   H     0.82721   0.04215   0.04143   0.00000  Uiso   1.00
H216   H     0.78446   0.08301   0.30924   0.00000  Uiso   1.00
H217   H     0.71469   0.11047   0.32230   0.00000  Uiso   1.00
H218   H     0.68717   0.09463   0.06645   0.00000  Uiso   1.00
H219   H     0.72970   0.05143   0.13153   0.00000  Uiso   1.00
C220   C     0.88377   0.28470   0.24049   0.00000  Uiso   1.00
C221   C     0.92448   0.27302   0.23487   0.00000  Uiso   1.00
C222   C     0.94878   0.24992   0.27193   0.00000  Uiso   1.00
C223   C     0.93334   0.24114   0.31593   0.00000  Uiso   1.00
C224   C     0.89410   0.25662   0.32331   0.00000  Uiso   1.00
C225   C     0.86970   0.27906   0.28606   0.00000  Uiso   1.00
H226   H     0.93697   0.28191   0.20181   0.00000  Uiso   1.00
H227   H     0.97950   0.23872   0.26688   0.00000  Uiso   1.00
H228   H     0.95199   0.22286   0.01103   0.00000  Uiso   1.00
H229   H     0.88221   0.25032   0.02409   0.00000  Uiso   1.00
H230   H     0.83945   0.29117   0.29190   0.00000  Uiso   1.00
C231   C     0.88377   0.04864   0.24049   0.00000  Uiso   1.00
C232   C     0.92447   0.06033   0.23488   0.00000  Uiso   1.00
C233   C     0.94877   0.08343   0.27193   0.00000  Uiso   1.00
C234   C     0.93333   0.09221   0.31594   0.00000  Uiso   1.00
C235   C     0.89410   0.07671   0.32331   0.00000  Uiso   1.00
C236   C     0.86970   0.05427   0.28607   0.00000  Uiso   1.00
H237   H     0.93696   0.05144   0.20181   0.00000  Uiso   1.00
H238   H     0.97949   0.09465   0.26688   0.00000  Uiso   1.00
H239   H     0.95197   0.11048   0.01103   0.00000  Uiso   1.00
H240   H     0.88220   0.08301   0.02409   0.00000  Uiso   1.00
H241   H     0.83945   0.04215   0.29191   0.00000  Uiso   1.00
C242   C     0.78290   0.28470   0.09284   0.00000  Uiso   1.00
C243   C     0.79697   0.27906   0.04727   0.00000  Uiso   1.00
C244   C     0.77257   0.25662   0.01002   0.00000  Uiso   1.00
C245   C     0.73333   0.24113   0.01740   0.00000  Uiso   1.00
C246   C     0.71789   0.24991   0.06140   0.00000  Uiso   1.00
C247   C     0.74219   0.27301   0.09846   0.00000  Uiso   1.00
H248   H     0.82722   0.29118   0.04143   0.00000  Uiso   1.00
H249   H     0.78447   0.25032   0.30924   0.00000  Uiso   1.00
H250   H     0.71469   0.22285   0.32230   0.00000  Uiso   1.00
H251   H     0.68717   0.23870   0.06645   0.00000  Uiso   1.00
H252   H     0.72970   0.28190   0.13152   0.00000  Uiso   1.00
O253   O     0.10655   0.53958   0.16666   0.00000  Uiso   1.00
O254   O     0.22679   0.46042   0.16667   0.00000  Uiso   1.00
O255   O     0.22679   0.53958   0.16667   0.00000  Uiso   1.00
O256   O     0.10655   0.46042   0.16666   0.00000  Uiso   1.00
C257   C     0.08774   0.50000   0.17085   0.00000  Uiso   1.00
C258   C     0.24559   0.50000   0.16248   0.00000  Uiso   1.00
O259   O     0.16667   0.53959   0.09613   0.00000  Uiso   1.00
O260   O     0.16667   0.46041   0.23720   0.00000  Uiso   1.00
O261   O     0.16667   0.53959   0.23720   0.00000  Uiso   1.00
O262   O     0.16667   0.46041   0.09613   0.00000  Uiso   1.00
C263   C     0.16655   0.50000   0.07358   0.00000  Uiso   1.00
C264   C     0.16678   0.50000   0.25976   0.00000  Uiso   1.00
Cu265  Cu    0.16667   0.54689   0.16667   0.00000  Uiso   1.00
Cu266  Cu    0.16667   0.45311   0.16667   0.00000  Uiso   1.00
C267   C     0.16666   0.50000   0.02177   0.00000  Uiso   1.00
C268   C     0.16667   0.50000   0.31156   0.00000  Uiso   1.00
C269   C     0.02094   0.45797   0.17608   0.00000  Uiso   1.00
C270   C     0.31239   0.54203   0.15725   0.00000  Uiso   1.00
C271   C     0.31239   0.45797   0.15725   0.00000  Uiso   1.00
C272   C     0.02094   0.54203   0.17608   0.00000  Uiso   1.00
C273   C     0.29045   0.50000   0.15696   0.00000  Uiso   1.00
C274   C     0.04288   0.50000   0.17637   0.00000  Uiso   1.00
C275   C     0.14231   0.35798   0.13205   0.00000  Uiso   1.00
C276   C     0.19102   0.64202   0.20128   0.00000  Uiso   1.00
C277   C     0.19102   0.35798   0.20128   0.00000  Uiso   1.00
C278   C     0.14231   0.64202   0.13205   0.00000  Uiso   1.00
N279   N     0.16667   0.61736   0.16667   0.00000  Uiso   1.00
N280   N     0.16667   0.38264   0.16667   0.00000  Uiso   1.00
N281   N     0.03845   0.41923   0.20427   0.00000  Uiso   1.00
O282   O     0.01747   0.38176   0.20889   0.00000  Uiso   1.00
O283   O     0.07095   0.42522   0.23492   0.00000  Uiso   1.00
N284   N     0.29488   0.58077   0.12906   0.00000  Uiso   1.00
O285   O     0.26239   0.57477   0.09841   0.00000  Uiso   1.00
O286   O     0.31585   0.61824   0.12445   0.00000  Uiso   1.00
N287   N     0.29488   0.41923   0.12907   0.00000  Uiso   1.00
O288   O     0.26239   0.42522   0.09842   0.00000  Uiso   1.00
O289   O     0.31586   0.38176   0.12446   0.00000  Uiso   1.00
N290   N     0.03845   0.58077   0.20427   0.00000  Uiso   1.00
O291   O     0.07094   0.57477   0.23492   0.00000  Uiso   1.00
O292   O     0.01748   0.61825   0.20886   0.00000  Uiso   1.00
C293   C     0.11623   0.38197   0.09284   0.00000  Uiso   1.00
C294   C     0.13030   0.38760   0.04727   0.00000  Uiso   1.00
C295   C     0.10590   0.41005   0.01002   0.00000  Uiso   1.00
C296   C     0.06666   0.42553   0.01740   0.00000  Uiso   1.00
C297   C     0.05122   0.41676   0.06141   0.00000  Uiso   1.00
C298   C     0.07552   0.39366   0.09846   0.00000  Uiso   1.00
H299   H     0.16055   0.37548   0.04143   0.00000  Uiso   1.00
H300   H     0.11780   0.41634   0.30924   0.00000  Uiso   1.00
H301   H     0.04802   0.44381   0.32230   0.00000  Uiso   1.00
H302   H     0.02050   0.42797   0.06645   0.00000  Uiso   1.00
H303   H     0.06304   0.38476   0.13153   0.00000  Uiso   1.00
C304   C     0.21710   0.61803   0.24049   0.00000  Uiso   1.00
C305   C     0.25781   0.60635   0.23487   0.00000  Uiso   1.00
C306   C     0.28211   0.58325   0.27193   0.00000  Uiso   1.00
C307   C     0.26668   0.57447   0.31593   0.00000  Uiso   1.00
C308   C     0.22744   0.58995   0.32331   0.00000  Uiso   1.00
C309   C     0.20304   0.61240   0.28606   0.00000  Uiso   1.00
H310   H     0.27030   0.61524   0.20181   0.00000  Uiso   1.00
H311   H     0.31284   0.57205   0.26688   0.00000  Uiso   1.00
H312   H     0.28532   0.55620   0.01103   0.00000  Uiso   1.00
H313   H     0.21554   0.58365   0.02409   0.00000  Uiso   1.00
H314   H     0.17278   0.62451   0.29190   0.00000  Uiso   1.00
C315   C     0.21710   0.38197   0.24049   0.00000  Uiso   1.00
C316   C     0.25781   0.39366   0.23488   0.00000  Uiso   1.00
C317   C     0.28210   0.41676   0.27193   0.00000  Uiso   1.00
C318   C     0.26667   0.42554   0.31594   0.00000  Uiso   1.00
C319   C     0.22743   0.41005   0.32331   0.00000  Uiso   1.00
C320   C     0.20303   0.38760   0.28607   0.00000  Uiso   1.00
H321   H     0.27030   0.38477   0.20181   0.00000  Uiso   1.00
H322   H     0.31282   0.42798   0.26688   0.00000  Uiso   1.00
H323   H     0.28531   0.44382   0.01103   0.00000  Uiso   1.00
H324   H     0.21553   0.41634   0.02409   0.00000  Uiso   1.00
H325   H     0.17278   0.37548   0.29191   0.00000  Uiso   1.00
C326   C     0.11623   0.61803   0.09284   0.00000  Uiso   1.00
C327   C     0.13030   0.61240   0.04727   0.00000  Uiso   1.00
C328   C     0.10590   0.58995   0.01002   0.00000  Uiso   1.00
C329   C     0.06666   0.57446   0.01740   0.00000  Uiso   1.00
C330   C     0.05123   0.58324   0.06140   0.00000  Uiso   1.00
C331   C     0.07552   0.60634   0.09846   0.00000  Uiso   1.00
H332   H     0.16055   0.62451   0.04143   0.00000  Uiso   1.00
H333   H     0.11780   0.58365   0.30924   0.00000  Uiso   1.00
H334   H     0.04802   0.55618   0.32230   0.00000  Uiso   1.00
H335   H     0.02051   0.57203   0.06645   0.00000  Uiso   1.00
H336   H     0.06304   0.61524   0.13152   0.00000  Uiso   1.00
O337   O     0.43988   0.53958   0.16666   0.00000  Uiso   1.00
O338   O     0.56012   0.46042   0.16667   0.00000  Uiso   1.00
O339   O     0.56012   0.53958   0.16667   0.00000  Uiso   1.00
O340   O     0.43988   0.46042   0.16666   0.00000  Uiso   1.00
C341   C     0.42107   0.50000   0.17085   0.00000  Uiso   1.00
C342   C     0.57893   0.50000   0.16248   0.00000  Uiso   1.00
O343   O     0.50000   0.53959   0.09613   0.00000  Uiso   1.00
O344   O     0.50000   0.46041   0.23720   0.00000  Uiso   1.00
O345   O     0.50000   0.53959   0.23720   0.00000  Uiso   1.00
O346   O     0.50000   0.46041   0.09613   0.00000  Uiso   1.00
C347   C     0.49988   0.50000   0.07358   0.00000  Uiso   1.00
C348   C     0.50012   0.50000   0.25976   0.00000  Uiso   1.00
Cu349  Cu    0.50000   0.54689   0.16667   0.00000  Uiso   1.00
Cu350  Cu    0.50000   0.45311   0.16667   0.00000  Uiso   1.00
C351   C     0.50000   0.50000   0.02177   0.00000  Uiso   1.00
C352   C     0.50000   0.50000   0.31156   0.00000  Uiso   1.00
C353   C     0.35428   0.45797   0.17608   0.00000  Uiso   1.00
C354   C     0.64572   0.54203   0.15725   0.00000  Uiso   1.00
C355   C     0.64572   0.45797   0.15725   0.00000  Uiso   1.00
C356   C     0.35428   0.54203   0.17608   0.00000  Uiso   1.00
C357   C     0.62378   0.50000   0.15696   0.00000  Uiso   1.00
C358   C     0.37622   0.50000   0.17637   0.00000  Uiso   1.00
C359   C     0.47564   0.35798   0.13205   0.00000  Uiso   1.00
C360   C     0.52436   0.64202   0.20128   0.00000  Uiso   1.00
C361   C     0.52436   0.35798   0.20128   0.00000  Uiso   1.00
C362   C     0.47564   0.64202   0.13205   0.00000  Uiso   1.00
N363   N     0.50000   0.61736   0.16667   0.00000  Uiso   1.00
N364   N     0.50000   0.38264   0.16667   0.00000  Uiso   1.00
N365   N     0.37179   0.41923   0.20427   0.00000  Uiso   1.00
O366   O     0.35081   0.38176   0.20889   0.00000  Uiso   1.00
O367   O     0.40428   0.42522   0.23492   0.00000  Uiso   1.00
N368   N     0.62821   0.58077   0.12906   0.00000  Uiso   1.00
O369   O     0.59572   0.57477   0.09841   0.00000  Uiso   1.00
O370   O     0.64919   0.61824   0.12445   0.00000  Uiso   1.00
N371   N     0.62821   0.41923   0.12907   0.00000  Uiso   1.00
O372   O     0.59573   0.42522   0.09842   0.00000  Uiso   1.00
O373   O     0.64919   0.38176   0.12446   0.00000  Uiso   1.00
N374   N     0.37179   0.58077   0.20427   0.00000  Uiso   1.00
O375   O     0.40427   0.57477   0.23492   0.00000  Uiso   1.00
O376   O     0.35082   0.61825   0.20886   0.00000  Uiso   1.00
C377   C     0.44956   0.38197   0.09284   0.00000  Uiso   1.00
C378   C     0.46363   0.38760   0.04727   0.00000  Uiso   1.00
C379   C     0.43923   0.41005   0.01002   0.00000  Uiso   1.00
C380   C     0.39999   0.42553   0.01740   0.00000  Uiso   1.00
C381   C     0.38456   0.41676   0.06141   0.00000  Uiso   1.00
C382   C     0.40886   0.39366   0.09846   0.00000  Uiso   1.00
H383   H     0.49388   0.37548   0.04143   0.00000  Uiso   1.00
H384   H     0.45113   0.41634   0.30924   0.00000  Uiso   1.00
H385   H     0.38135   0.44381   0.32230   0.00000  Uiso   1.00
H386   H     0.35384   0.42797   0.06645   0.00000  Uiso   1.00
H387   H     0.39637   0.38476   0.13153   0.00000  Uiso   1.00
C388   C     0.55044   0.61803   0.24049   0.00000  Uiso   1.00
C389   C     0.59115   0.60635   0.23487   0.00000  Uiso   1.00
C390   C     0.61545   0.58325   0.27193   0.00000  Uiso   1.00
C391   C     0.60001   0.57447   0.31593   0.00000  Uiso   1.00
C392   C     0.56077   0.58995   0.32331   0.00000  Uiso   1.00
C393   C     0.53637   0.61240   0.28606   0.00000  Uiso   1.00
H394   H     0.60363   0.61524   0.20181   0.00000  Uiso   1.00
H395   H     0.64617   0.57205   0.26688   0.00000  Uiso   1.00
H396   H     0.61865   0.55620   0.01103   0.00000  Uiso   1.00
H397   H     0.54887   0.58365   0.02409   0.00000  Uiso   1.00
H398   H     0.50612   0.62451   0.29190   0.00000  Uiso   1.00
C399   C     0.55043   0.38197   0.24049   0.00000  Uiso   1.00
C400   C     0.59114   0.39366   0.23488   0.00000  Uiso   1.00
C401   C     0.61544   0.41676   0.27193   0.00000  Uiso   1.00
C402   C     0.60000   0.42554   0.31594   0.00000  Uiso   1.00
C403   C     0.56076   0.41005   0.32331   0.00000  Uiso   1.00
C404   C     0.53637   0.38760   0.28607   0.00000  Uiso   1.00
H405   H     0.60363   0.38477   0.20181   0.00000  Uiso   1.00
H406   H     0.64615   0.42798   0.26688   0.00000  Uiso   1.00
H407   H     0.61864   0.44382   0.01103   0.00000  Uiso   1.00
H408   H     0.54887   0.41634   0.02409   0.00000  Uiso   1.00
H409   H     0.50612   0.37548   0.29191   0.00000  Uiso   1.00
C410   C     0.44957   0.61803   0.09284   0.00000  Uiso   1.00
C411   C     0.46363   0.61240   0.04727   0.00000  Uiso   1.00
C412   C     0.43923   0.58995   0.01002   0.00000  Uiso   1.00
C413   C     0.40000   0.57446   0.01740   0.00000  Uiso   1.00
C414   C     0.38456   0.58324   0.06140   0.00000  Uiso   1.00
C415   C     0.40886   0.60634   0.09846   0.00000  Uiso   1.00
H416   H     0.49388   0.62451   0.04143   0.00000  Uiso   1.00
H417   H     0.45113   0.58365   0.30924   0.00000  Uiso   1.00
H418   H     0.38136   0.55618   0.32230   0.00000  Uiso   1.00
H419   H     0.35384   0.57203   0.06645   0.00000  Uiso   1.00
H420   H     0.39637   0.61524   0.13152   0.00000  Uiso   1.00
O421   O     0.77321   0.53958   0.16666   0.00000  Uiso   1.00
O422   O     0.89345   0.46042   0.16667   0.00000  Uiso   1.00
O423   O     0.89345   0.53958   0.16667   0.00000  Uiso   1.00
O424   O     0.77321   0.46042   0.16666   0.00000  Uiso   1.00
C425   C     0.75441   0.50000   0.17085   0.00000  Uiso   1.00
C426   C     0.91226   0.50000   0.16248   0.00000  Uiso   1.00
O427   O     0.83333   0.53959   0.09613   0.00000  Uiso   1.00
O428   O     0.83333   0.46041   0.23720   0.00000  Uiso   1.00
O429   O     0.83333   0.53959   0.23720   0.00000  Uiso   1.00
O430   O     0.83333   0.46041   0.09613   0.00000  Uiso   1.00
C431   C     0.83322   0.50000   0.07358   0.00000  Uiso   1.00
C432   C     0.83345   0.50000   0.25976   0.00000  Uiso   1.00
Cu433  Cu    0.83333   0.54689   0.16667   0.00000  Uiso   1.00
Cu434  Cu    0.83333   0.45311   0.16667   0.00000  Uiso   1.00
C435   C     0.83333   0.50000   0.02177   0.00000  Uiso   1.00
C436   C     0.83334   0.50000   0.31156   0.00000  Uiso   1.00
C437   C     0.68761   0.45797   0.17608   0.00000  Uiso   1.00
C438   C     0.97906   0.54203   0.15725   0.00000  Uiso   1.00
C439   C     0.97906   0.45797   0.15725   0.00000  Uiso   1.00
C440   C     0.68761   0.54203   0.17608   0.00000  Uiso   1.00
C441   C     0.95712   0.50000   0.15696   0.00000  Uiso   1.00
C442   C     0.70955   0.50000   0.17637   0.00000  Uiso   1.00
C443   C     0.80898   0.35798   0.13205   0.00000  Uiso   1.00
C444   C     0.85769   0.64202   0.20128   0.00000  Uiso   1.00
C445   C     0.85769   0.35798   0.20128   0.00000  Uiso   1.00
C446   C     0.80898   0.64202   0.13205   0.00000  Uiso   1.00
N447   N     0.83333   0.61736   0.16667   0.00000  Uiso   1.00
N448   N     0.83333   0.38264   0.16667   0.00000  Uiso   1.00
N449   N     0.70512   0.41923   0.20427   0.00000  Uiso   1.00
O450   O     0.68414   0.38176   0.20889   0.00000  Uiso   1.00
O451   O     0.73761   0.42522   0.23492   0.00000  Uiso   1.00
N452   N     0.96154   0.58077   0.12906   0.00000  Uiso   1.00
O453   O     0.92906   0.57477   0.09841   0.00000  Uiso   1.00
O454   O     0.98252   0.61824   0.12445   0.00000  Uiso   1.00
N455   N     0.96155   0.41923   0.12907   0.00000  Uiso   1.00
O456   O     0.92906   0.42522   0.09842   0.00000  Uiso   1.00
O457   O     0.98252   0.38176   0.12446   0.00000  Uiso   1.00
N458   N     0.70512   0.58077   0.20427   0.00000  Uiso   1.00
O459   O     0.73761   0.57477   0.23492   0.00000  Uiso   1.00
O460   O     0.68415   0.61825   0.20886   0.00000  Uiso   1.00
C461   C     0.78290   0.38197   0.09284   0.00000  Uiso   1.00
C462   C     0.79696   0.38760   0.04727   0.00000  Uiso   1.00
C463   C     0.77256   0.41005   0.01002   0.00000  Uiso   1.00
C464   C     0.73333   0.42553   0.01740   0.00000  Uiso   1.00
C465   C     0.71789   0.41676   0.06141   0.00000  Uiso   1.00
C466   C     0.74219   0.39366   0.09846   0.00000  Uiso   1.00
H467   H     0.82721   0.37548   0.04143   0.00000  Uiso   1.00
H468   H     0.78446   0.41634   0.30924   0.00000  Uiso   1.00
H469   H     0.71469   0.44381   0.32230   0.00000  Uiso   1.00
H470   H     0.68717   0.42797   0.06645   0.00000  Uiso   1.00
H471   H     0.72970   0.38476   0.13153   0.00000  Uiso   1.00
C472   C     0.88377   0.61803   0.24049   0.00000  Uiso   1.00
C473   C     0.92448   0.60635   0.23487   0.00000  Uiso   1.00
C474   C     0.94878   0.58325   0.27193   0.00000  Uiso   1.00
C475   C     0.93334   0.57447   0.31593   0.00000  Uiso   1.00
C476   C     0.89410   0.58995   0.32331   0.00000  Uiso   1.00
C477   C     0.86970   0.61240   0.28606   0.00000  Uiso   1.00
H478   H     0.93697   0.61524   0.20181   0.00000  Uiso   1.00
H479   H     0.97950   0.57205   0.26688   0.00000  Uiso   1.00
H480   H     0.95199   0.55620   0.01103   0.00000  Uiso   1.00
H481   H     0.88221   0.58365   0.02409   0.00000  Uiso   1.00
H482   H     0.83945   0.62451   0.29190   0.00000  Uiso   1.00
C483   C     0.88377   0.38197   0.24049   0.00000  Uiso   1.00
C484   C     0.92447   0.39366   0.23488   0.00000  Uiso   1.00
C485   C     0.94877   0.41676   0.27193   0.00000  Uiso   1.00
C486   C     0.93333   0.42554   0.31594   0.00000  Uiso   1.00
C487   C     0.89410   0.41005   0.32331   0.00000  Uiso   1.00
C488   C     0.86970   0.38760   0.28607   0.00000  Uiso   1.00
H489   H     0.93696   0.38477   0.20181   0.00000  Uiso   1.00
H490   H     0.97949   0.42798   0.26688   0.00000  Uiso   1.00
H491   H     0.95197   0.44382   0.01103   0.00000  Uiso   1.00
H492   H     0.88220   0.41634   0.02409   0.00000  Uiso   1.00
H493   H     0.83945   0.37548   0.29191   0.00000  Uiso   1.00
C494   C     0.78290   0.61803   0.09284   0.00000  Uiso   1.00
C495   C     0.79697   0.61240   0.04727   0.00000  Uiso   1.00
C496   C     0.77257   0.58995   0.01002   0.00000  Uiso   1.00
C497   C     0.73333   0.57446   0.01740   0.00000  Uiso   1.00
C498   C     0.71789   0.58324   0.06140   0.00000  Uiso   1.00
C499   C     0.74219   0.60634   0.09846   0.00000  Uiso   1.00
H500   H     0.82722   0.62451   0.04143   0.00000  Uiso   1.00
H501   H     0.78447   0.58365   0.30924   0.00000  Uiso   1.00
H502   H     0.71469   0.55618   0.32230   0.00000  Uiso   1.00
H503   H     0.68717   0.57203   0.06645   0.00000  Uiso   1.00
H504   H     0.72970   0.61524   0.13152   0.00000  Uiso   1.00
O505   O     0.10655   0.87291   0.16666   0.00000  Uiso   1.00
O506   O     0.22679   0.79375   0.16667   0.00000  Uiso   1.00
O507   O     0.22679   0.87291   0.16667   0.00000  Uiso   1.00
O508   O     0.10655   0.79375   0.16666   0.00000  Uiso   1.00
C509   C     0.08774   0.83333   0.17085   0.00000  Uiso   1.00
C510   C     0.24559   0.83333   0.16248   0.00000  Uiso   1.00
O511   O     0.16667   0.87292   0.09613   0.00000  Uiso   1.00
O512   O     0.16667   0.79375   0.23720   0.00000  Uiso   1.00
O513   O     0.16667   0.87292   0.23720   0.00000  Uiso   1.00
O514   O     0.16667   0.79375   0.09613   0.00000  Uiso   1.00
C515   C     0.16655   0.83333   0.07358   0.00000  Uiso   1.00
C516   C     0.16678   0.83333   0.25976   0.00000  Uiso   1.00
Cu517  Cu    0.16667   0.88022   0.16667   0.00000  Uiso   1.00
Cu518  Cu    0.16667   0.78645   0.16667   0.00000  Uiso   1.00
C519   C     0.16666   0.83333   0.02177   0.00000  Uiso   1.00
C520   C     0.16667   0.83333   0.31156   0.00000  Uiso   1.00
C521   C     0.02094   0.79131   0.17608   0.00000  Uiso   1.00
C522   C     0.31239   0.87536   0.15725   0.00000  Uiso   1.00
C523   C     0.31239   0.79131   0.15725   0.00000  Uiso   1.00
C524   C     0.02094   0.87536   0.17608   0.00000  Uiso   1.00
C525   C     0.29045   0.83333   0.15696   0.00000  Uiso   1.00
C526   C     0.04288   0.83333   0.17637   0.00000  Uiso   1.00
C527   C     0.14231   0.69131   0.13205   0.00000  Uiso   1.00
C528   C     0.19102   0.97535   0.20128   0.00000  Uiso   1.00
C529   C     0.19102   0.69131   0.20128   0.00000  Uiso   1.00
C530   C     0.14231   0.97535   0.13205   0.00000  Uiso   1.00
N531   N     0.16667   0.95069   0.16667   0.00000  Uiso   1.00
N532   N     0.16667   0.71598   0.16667   0.00000  Uiso   1.00
N533   N     0.03845   0.75256   0.20427   0.00000  Uiso   1.00
O534   O     0.01747   0.71510   0.20889   0.00000  Uiso   1.00
O535   O     0.07095   0.75856   0.23492   0.00000  Uiso   1.00
N536   N     0.29488   0.91410   0.12906   0.00000  Uiso   1.00
O537   O     0.26239   0.90810   0.09841   0.00000  Uiso   1.00
O538   O     0.31585   0.95157   0.12445   0.00000  Uiso   1.00
N539   N     0.29488   0.75256   0.12907   0.00000  Uiso   1.00
O540   O     0.26239   0.75855   0.09842   0.00000  Uiso   1.00
O541   O     0.31586   0.71509   0.12446   0.00000  Uiso   1.00
N542   N     0.03845   0.91410   0.20427   0.00000  Uiso   1.00
O543   O     0.07094   0.90811   0.23492   0.00000  Uiso   1.00
O544   O     0.01748   0.95158   0.20886   0.00000  Uiso   1.00
C545   C     0.11623   0.71530   0.09284   0.00000  Uiso   1.00
C546   C     0.13030   0.72093   0.04727   0.00000  Uiso   1.00
C547   C     0.10590   0.74338   0.01002   0.00000  Uiso   1.00
C548   C     0.06666   0.75887   0.01740   0.00000  Uiso   1.00
C549   C     0.05122   0.75009   0.06141   0.00000  Uiso   1.00
C550   C     0.07552   0.72699   0.09846   0.00000  Uiso   1.00
H551   H     0.16055   0.70882   0.04143   0.00000  Uiso   1.00
H552   H     0.11780   0.74967   0.30924   0.00000  Uiso   1.00
H553   H     0.04802   0.77714   0.32230   0.00000  Uiso   1.00
H554   H     0.02050   0.76130   0.06645   0.00000  Uiso   1.00
H555   H     0.06304   0.71810   0.13153   0.00000  Uiso   1.00
C556   C     0.21710   0.95136   0.24049   0.00000  Uiso   1.00
C557   C     0.25781   0.93968   0.23487   0.00000  Uiso   1.00
C558   C     0.28211   0.91659   0.27193   0.00000  Uiso   1.00
C559   C     0.26668   0.90780   0.31593   0.00000  Uiso   1.00
C560   C     0.22744   0.92329   0.32331   0.00000  Uiso   1.00
C561   C     0.20304   0.94573   0.28606   0.00000  Uiso   1.00
H562   H     0.27030   0.94858   0.20181   0.00000  Uiso   1.00
H563   H     0.31284   0.90538   0.26688   0.00000  Uiso   1.00
H564   H     0.28532   0.88953   0.01103   0.00000  Uiso   1.00
H565   H     0.21554   0.91699   0.02409   0.00000  Uiso   1.00
H566   H     0.17278   0.95784   0.29190   0.00000  Uiso   1.00
C567   C     0.21710   0.71530   0.24049   0.00000  Uiso   1.00
C568   C     0.25781   0.72699   0.23488   0.00000  Uiso   1.00
C569   C     0.28210   0.75010   0.27193   0.00000  Uiso   1.00
C570   C     0.26667   0.75887   0.31594   0.00000  Uiso   1.00
C571   C     0.22743   0.74338   0.32331   0.00000  Uiso   1.00
C572   C     0.20303   0.72093   0.28607   0.00000  Uiso   1.00
H573   H     0.27030   0.71810   0.20181   0.00000  Uiso   1.00
H574   H     0.31282   0.76131   0.26688   0.00000  Uiso   1.00
H575   H     0.28531   0.77715   0.01103   0.00000  Uiso   1.00
H576   H     0.21553   0.74967   0.02409   0.00000  Uiso   1.00
H577   H     0.17278   0.70881   0.29191   0.00000  Uiso   1.00
C578   C     0.11623   0.95136   0.09284   0.00000  Uiso   1.00
C579   C     0.13030   0.94573   0.04727   0.00000  Uiso   1.00
C580   C     0.10590   0.92328   0.01002   0.00000  Uiso   1.00
C581   C     0.06666   0.90779   0.01740   0.00000  Uiso   1.00
C582   C     0.05123   0.91657   0.06140   0.00000  Uiso   1.00
C583   C     0.07552   0.93968   0.09846   0.00000  Uiso   1.00
H584   H     0.16055   0.95785   0.04143   0.00000  Uiso   1.00
H585   H     0.11780   0.91699   0.30924   0.00000  Uiso   1.00
H586   H     0.04802   0.88952   0.32230   0.00000  Uiso   1.00
H587   H     0.02051   0.90536   0.06645   0.00000  Uiso   1.00
H588   H     0.06304   0.94857   0.13152   0.00000  Uiso   1.00
O589   O     0.43988   0.87291   0.16666   0.00000  Uiso   1.00
O590   O     0.56012   0.79375   0.16667   0.00000  Uiso   1.00
O591   O     0.56012   0.87291   0.16667   0.00000  Uiso   1.00
O592   O     0.43988   0.79375   0.16666   0.00000  Uiso   1.00
C593   C     0.42107   0.83333   0.17085   0.00000  Uiso   1.00
C594   C     0.57893   0.83333   0.16248   0.00000  Uiso   1.00
O595   O     0.50000   0.87292   0.09613   0.00000  Uiso   1.00
O596   O     0.50000   0.79375   0.23720   0.00000  Uiso   1.00
O597   O     0.50000   0.87292   0.23720   0.00000  Uiso   1.00
O598   O     0.50000   0.79375   0.09613   0.00000  Uiso   1.00
C599   C     0.49988   0.83333   0.07358   0.00000  Uiso   1.00
C600   C     0.50012   0.83333   0.25976   0.00000  Uiso   1.00
Cu601  Cu    0.50000   0.88022   0.16667   0.00000  Uiso   1.00
Cu602  Cu    0.50000   0.78645   0.16667   0.00000  Uiso   1.00
C603   C     0.50000   0.83333   0.02177   0.00000  Uiso   1.00
C604   C     0.50000   0.83333   0.31156   0.00000  Uiso   1.00
C605   C     0.35428   0.79131   0.17608   0.00000  Uiso   1.00
C606   C     0.64572   0.87536   0.15725   0.00000  Uiso   1.00
C607   C     0.64572   0.79131   0.15725   0.00000  Uiso   1.00
C608   C     0.35428   0.87536   0.17608   0.00000  Uiso   1.00
C609   C     0.62378   0.83333   0.15696   0.00000  Uiso   1.00
C610   C     0.37622   0.83333   0.17637   0.00000  Uiso   1.00
C611   C     0.47564   0.69131   0.13205   0.00000  Uiso   1.00
C612   C     0.52436   0.97535   0.20128   0.00000  Uiso   1.00
C613   C     0.52436   0.69131   0.20128   0.00000  Uiso   1.00
C614   C     0.47564   0.97535   0.13205   0.00000  Uiso   1.00
N615   N     0.50000   0.95069   0.16667   0.00000  Uiso   1.00
N616   N     0.50000   0.71598   0.16667   0.00000  Uiso   1.00
N617   N     0.37179   0.75256   0.20427   0.00000  Uiso   1.00
O618   O     0.35081   0.71510   0.20889   0.00000  Uiso   1.00
O619   O     0.40428   0.75856   0.23492   0.00000  Uiso   1.00
N620   N     0.62821   0.91410   0.12906   0.00000  Uiso   1.00
O621   O     0.59572   0.90810   0.09841   0.00000  Uiso   1.00
O622   O     0.64919   0.95157   0.12445   0.00000  Uiso   1.00
N623   N     0.62821   0.75256   0.12907   0.00000  Uiso   1.00
O624   O     0.59573   0.75855   0.09842   0.00000  Uiso   1.00
O625   O     0.64919   0.71509   0.12446   0.00000  Uiso   1.00
N626   N     0.37179   0.91410   0.20427   0.00000  Uiso   1.00
O627   O     0.40427   0.90811   0.23492   0.00000  Uiso   1.00
O628   O     0.35082   0.95158   0.20886   0.00000  Uiso   1.00
C629   C     0.44956   0.71530   0.09284   0.00000  Uiso   1.00
C630   C     0.46363   0.72093   0.04727   0.00000  Uiso   1.00
C631   C     0.43923   0.74338   0.01002   0.00000  Uiso   1.00
C632   C     0.39999   0.75887   0.01740   0.00000  Uiso   1.00
C633   C     0.38456   0.75009   0.06141   0.00000  Uiso   1.00
C634   C     0.40886   0.72699   0.09846   0.00000  Uiso   1.00
H635   H     0.49388   0.70882   0.04143   0.00000  Uiso   1.00
H636   H     0.45113   0.74967   0.30924   0.00000  Uiso   1.00
H637   H     0.38135   0.77714   0.32230   0.00000  Uiso   1.00
H638   H     0.35384   0.76130   0.06645   0.00000  Uiso   1.00
H639   H     0.39637   0.71810   0.13153   0.00000  Uiso   1.00
C640   C     0.55044   0.95136   0.24049   0.00000  Uiso   1.00
C641   C     0.59115   0.93968   0.23487   0.00000  Uiso   1.00
C642   C     0.61545   0.91659   0.27193   0.00000  Uiso   1.00
C643   C     0.60001   0.90780   0.31593   0.00000  Uiso   1.00
C644   C     0.56077   0.92329   0.32331   0.00000  Uiso   1.00
C645   C     0.53637   0.94573   0.28606   0.00000  Uiso   1.00
H646   H     0.60363   0.94858   0.20181   0.00000  Uiso   1.00
H647   H     0.64617   0.90538   0.26688   0.00000  Uiso   1.00
H648   H     0.61865   0.88953   0.01103   0.00000  Uiso   1.00
H649   H     0.54887   0.91699   0.02409   0.00000  Uiso   1.00
H650   H     0.50612   0.95784   0.29190   0.00000  Uiso   1.00
C651   C     0.55043   0.71530   0.24049   0.00000  Uiso   1.00
C652   C     0.59114   0.72699   0.23488   0.00000  Uiso   1.00
C653   C     0.61544   0.75010   0.27193   0.00000  Uiso   1.00
C654   C     0.60000   0.75887   0.31594   0.00000  Uiso   1.00
C655   C     0.56076   0.74338   0.32331   0.00000  Uiso   1.00
C656   C     0.53637   0.72093   0.28607   0.00000  Uiso   1.00
H657   H     0.60363   0.71810   0.20181   0.00000  Uiso   1.00
H658   H     0.64615   0.76131   0.26688   0.00000  Uiso   1.00
H659   H     0.61864   0.77715   0.01103   0.00000  Uiso   1.00
H660   H     0.54887   0.74967   0.02409   0.00000  Uiso   1.00
H661   H     0.50612   0.70881   0.29191   0.00000  Uiso   1.00
C662   C     0.44957   0.95136   0.09284   0.00000  Uiso   1.00
C663   C     0.46363   0.94573   0.04727   0.00000  Uiso   1.00
C664   C     0.43923   0.92328   0.01002   0.00000  Uiso   1.00
C665   C     0.40000   0.90779   0.01740   0.00000  Uiso   1.00
C666   C     0.38456   0.91657   0.06140   0.00000  Uiso   1.00
C667   C     0.40886   0.93968   0.09846   0.00000  Uiso   1.00
H668   H     0.49388   0.95785   0.04143   0.00000  Uiso   1.00
H669   H     0.45113   0.91699   0.30924   0.00000  Uiso   1.00
H670   H     0.38136   0.88952   0.32230   0.00000  Uiso   1.00
H671   H     0.35384   0.90536   0.06645   0.00000  Uiso   1.00
H672   H     0.39637   0.94857   0.13152   0.00000  Uiso   1.00
O673   O     0.77321   0.87291   0.16666   0.00000  Uiso   1.00
O674   O     0.89345   0.79375   0.16667   0.00000  Uiso   1.00
O675   O     0.89345   0.87291   0.16667   0.00000  Uiso   1.00
O676   O     0.77321   0.79375   0.16666   0.00000  Uiso   1.00
C677   C     0.75441   0.83333   0.17085   0.00000  Uiso   1.00
C678   C     0.91226   0.83333   0.16248   0.00000  Uiso   1.00
O679   O     0.83333   0.87292   0.09613   0.00000  Uiso   1.00
O680   O     0.83333   0.79375   0.23720   0.00000  Uiso   1.00
O681   O     0.83333   0.87292   0.23720   0.00000  Uiso   1.00
O682   O     0.83333   0.79375   0.09613   0.00000  Uiso   1.00
C683   C     0.83322   0.83333   0.07358   0.00000  Uiso   1.00
C684   C     0.83345   0.83333   0.25976   0.00000  Uiso   1.00
Cu685  Cu    0.83333   0.88022   0.16667   0.00000  Uiso   1.00
Cu686  Cu    0.83333   0.78645   0.16667   0.00000  Uiso   1.00
C687   C     0.83333   0.83333   0.02177   0.00000  Uiso   1.00
C688   C     0.83334   0.83333   0.31156   0.00000  Uiso   1.00
C689   C     0.68761   0.79131   0.17608   0.00000  Uiso   1.00
C690   C     0.97906   0.87536   0.15725   0.00000  Uiso   1.00
C691   C     0.97906   0.79131   0.15725   0.00000  Uiso   1.00
C692   C     0.68761   0.87536   0.17608   0.00000  Uiso   1.00
C693   C     0.95712   0.83333   0.15696   0.00000  Uiso   1.00
C694   C     0.70955   0.83333   0.17637   0.00000  Uiso   1.00
C695   C     0.80898   0.69131   0.13205   0.00000  Uiso   1.00
C696   C     0.85769   0.97535   0.20128   0.00000  Uiso   1.00
C697   C     0.85769   0.69131   0.20128   0.00000  Uiso   1.00
C698   C     0.80898   0.97535   0.13205   0.00000  Uiso   1.00
N699   N     0.83333   0.95069   0.16667   0.00000  Uiso   1.00
N700   N     0.83333   0.71598   0.16667   0.00000  Uiso   1.00
N701   N     0.70512   0.75256   0.20427   0.00000  Uiso   1.00
O702   O     0.68414   0.71510   0.20889   0.00000  Uiso   1.00
O703   O     0.73761   0.75856   0.23492   0.00000  Uiso   1.00
N704   N     0.96154   0.91410   0.12906   0.00000  Uiso   1.00
O705   O     0.92906   0.90810   0.09841   0.00000  Uiso   1.00
O706   O     0.98252   0.95157   0.12445   0.00000  Uiso   1.00
N707   N     0.96155   0.75256   0.12907   0.00000  Uiso   1.00
O708   O     0.92906   0.75855   0.09842   0.00000  Uiso   1.00
O709   O     0.98252   0.71509   0.12446   0.00000  Uiso   1.00
N710   N     0.70512   0.91410   0.20427   0.00000  Uiso   1.00
O711   O     0.73761   0.90811   0.23492   0.00000  Uiso   1.00
O712   O     0.68415   0.95158   0.20886   0.00000  Uiso   1.00
C713   C     0.78290   0.71530   0.09284   0.00000  Uiso   1.00
C714   C     0.79696   0.72093   0.04727   0.00000  Uiso   1.00
C715   C     0.77256   0.74338   0.01002   0.00000  Uiso   1.00
C716   C     0.73333   0.75887   0.01740   0.00000  Uiso   1.00
C717   C     0.71789   0.75009   0.06141   0.00000  Uiso   1.00
C718   C     0.74219   0.72699   0.09846   0.00000  Uiso   1.00
H719   H     0.82721   0.70882   0.04143   0.00000  Uiso   1.00
H720   H     0.78446   0.74967   0.30924   0.00000  Uiso   1.00
H721   H     0.71469   0.77714   0.32230   0.00000  Uiso   1.00
H722   H     0.68717   0.76130   0.06645   0.00000  Uiso   1.00
H723   H     0.72970   0.71810   0.13153   0.00000  Uiso   1.00
C724   C     0.88377   0.95136   0.24049   0.00000  Uiso   1.00
C725   C     0.92448   0.93968   0.23487   0.00000  Uiso   1.00
C726   C     0.94878   0.91659   0.27193   0.00000  Uiso   1.00
C727   C     0.93334   0.90780   0.31593   0.00000  Uiso   1.00
C728   C     0.89410   0.92329   0.32331   0.00000  Uiso   1.00
C729   C     0.86970   0.94573   0.28606   0.00000  Uiso   1.00
H730   H     0.93697   0.94858   0.20181   0.00000  Uiso   1.00
H731   H     0.97950   0.90538   0.26688   0.00000  Uiso   1.00
H732   H     0.95199   0.88953   0.01103   0.00000  Uiso   1.00
H733   H     0.88221   0.91699   0.02409   0.00000  Uiso   1.00
H734   H     0.83945   0.95784   0.29190   0.00000  Uiso   1.00
C735   C     0.88377   0.71530   0.24049   0.00000  Uiso   1.00
C736   C     0.92447   0.72699   0.23488   0.00000  Uiso   1.00
C737   C     0.94877   0.75010   0.27193   0.00000  Uiso   1.00
C738   C     0.93333   0.75887   0.31594   0.00000  Uiso   1.00
C739   C     0.89410   0.74338   0.32331   0.00000  Uiso   1.00
C740   C     0.86970   0.72093   0.28607   0.00000  Uiso   1.00
H741   H     0.93696   0.71810   0.20181   0.00000  Uiso   1.00
H742   H     0.97949   0.76131   0.26688   0.00000  Uiso   1.00
H743   H     0.95197   0.77715   0.01103   0.00000  Uiso   1.00
H744   H     0.88220   0.74967   0.02409   0.00000  Uiso   1.00
H745   H     0.83945   0.70881   0.29191   0.00000  Uiso   1.00
C746   C     0.78290   0.95136   0.09284   0.00000  Uiso   1.00
C747   C     0.79697   0.94573   0.04727   0.00000  Uiso   1.00
C748   C     0.77257   0.92328   0.01002   0.00000  Uiso   1.00
C749   C     0.73333   0.90779   0.01740   0.00000  Uiso   1.00
C750   C     0.71789   0.91657   0.06140   0.00000  Uiso   1.00
C751   C     0.74219   0.93968   0.09846   0.00000  Uiso   1.00
H752   H     0.82722   0.95785   0.04143   0.00000  Uiso   1.00
H753   H     0.78447   0.91699   0.30924   0.00000  Uiso   1.00
H754   H     0.71469   0.88952   0.32230   0.00000  Uiso   1.00
H755   H     0.68717   0.90536   0.06645   0.00000  Uiso   1.00
H756   H     0.72970   0.94857   0.13152   0.00000  Uiso   1.00
O757   O     0.10655   0.20625   0.50000   0.00000  Uiso   1.00
O758   O     0.22679   0.12709   0.50000   0.00000  Uiso   1.00
O759   O     0.22679   0.20625   0.50000   0.00000  Uiso   1.00
O760   O     0.10655   0.12709   0.50000   0.00000  Uiso   1.00
C761   C     0.08774   0.16667   0.50418   0.00000  Uiso   1.00
C762   C     0.24559   0.16667   0.49582   0.00000  Uiso   1.00
O763   O     0.16667   0.20625   0.42946   0.00000  Uiso   1.00
O764   O     0.16667   0.12708   0.57054   0.00000  Uiso   1.00
O765   O     0.16667   0.20625   0.57054   0.00000  Uiso   1.00
O766   O     0.16667   0.12708   0.42946   0.00000  Uiso   1.00
C767   C     0.16655   0.16667   0.40691   0.00000  Uiso   1.00
C768   C     0.16678   0.16667   0.59309   0.00000  Uiso   1.00
Cu769  Cu    0.16667   0.21355   0.50000   0.00000  Uiso   1.00
Cu770  Cu    0.16667   0.11978   0.50000   0.00000  Uiso   1.00
C771   C     0.16666   0.16667   0.35510   0.00000  Uiso   1.00
C772   C     0.16667   0.16667   0.64490   0.00000  Uiso   1.00
C773   C     0.02094   0.12464   0.50942   0.00000  Uiso   1.00
C774   C     0.31239   0.20869   0.49058   0.00000  Uiso   1.00
C775   C     0.31239   0.12464   0.49059   0.00000  Uiso   1.00
C776   C     0.02094   0.20869   0.50941   0.00000  Uiso   1.00
C777   C     0.29045   0.16667   0.49029   0.00000  Uiso   1.00
C778   C     0.04288   0.16667   0.50971   0.00000  Uiso   1.00
C779   C     0.14231   0.02465   0.46539   0.00000  Uiso   1.00
C780   C     0.19102   0.30869   0.53461   0.00000  Uiso   1.00
C781   C     0.19102   0.02465   0.53462   0.00000  Uiso   1.00
C782   C     0.14231   0.30868   0.46538   0.00000  Uiso   1.00
N783   N     0.16667   0.28402   0.50000   0.00000  Uiso   1.00
N784   N     0.16667   0.04931   0.50000   0.00000  Uiso   1.00
N785   N     0.03845   0.08590   0.53761   0.00000  Uiso   1.00
O786   O     0.01747   0.04843   0.54222   0.00000  Uiso   1.00
O787   O     0.07095   0.09189   0.56825   0.00000  Uiso   1.00
N788   N     0.29488   0.24743   0.46239   0.00000  Uiso   1.00
O789   O     0.26239   0.24144   0.43175   0.00000  Uiso   1.00
O790   O     0.31585   0.28491   0.45778   0.00000  Uiso   1.00
N791   N     0.29488   0.08590   0.46240   0.00000  Uiso   1.00
O792   O     0.26239   0.09189   0.43175   0.00000  Uiso   1.00
O793   O     0.31586   0.04842   0.45780   0.00000  Uiso   1.00
N794   N     0.03845   0.24744   0.53760   0.00000  Uiso   1.00
O795   O     0.07094   0.24144   0.56825   0.00000  Uiso   1.00
O796   O     0.01748   0.28492   0.54220   0.00000  Uiso   1.00
C797   C     0.11623   0.04864   0.42618   0.00000  Uiso   1.00
C798   C     0.13030   0.05427   0.38060   0.00000  Uiso   1.00
C799   C     0.10590   0.07671   0.34336   0.00000  Uiso   1.00
C800   C     0.06666   0.09220   0.35073   0.00000  Uiso   1.00
C801   C     0.05122   0.08342   0.39474   0.00000  Uiso   1.00
C802   C     0.07552   0.06032   0.43179   0.00000  Uiso   1.00
H803   H     0.16055   0.04215   0.37476   0.00000  Uiso   1.00
H804   H     0.11780   0.08301   0.64258   0.00000  Uiso   1.00
H805   H     0.04802   0.11047   0.65564   0.00000  Uiso   1.00
H806   H     0.02050   0.09463   0.39979   0.00000  Uiso   1.00
H807   H     0.06304   0.05143   0.46486   0.00000  Uiso   1.00
C808   C     0.21710   0.28470   0.57382   0.00000  Uiso   1.00
C809   C     0.25781   0.27302   0.56821   0.00000  Uiso   1.00
C810   C     0.28211   0.24992   0.60526   0.00000  Uiso   1.00
C811   C     0.26668   0.24114   0.64926   0.00000  Uiso   1.00
C812   C     0.22744   0.25662   0.65664   0.00000  Uiso   1.00
C813   C     0.20304   0.27906   0.61939   0.00000  Uiso   1.00
H814   H     0.27030   0.28191   0.53514   0.00000  Uiso   1.00
H815   H     0.31284   0.23872   0.60021   0.00000  Uiso   1.00
H816   H     0.28532   0.22286   0.34436   0.00000  Uiso   1.00
H817   H     0.21554   0.25032   0.35742   0.00000  Uiso   1.00
H818   H     0.17278   0.29117   0.62523   0.00000  Uiso   1.00
C819   C     0.21710   0.04864   0.57383   0.00000  Uiso   1.00
C820   C     0.25781   0.06033   0.56821   0.00000  Uiso   1.00
C821   C     0.28210   0.08343   0.60526   0.00000  Uiso   1.00
C822   C     0.26667   0.09221   0.64927   0.00000  Uiso   1.00
C823   C     0.22743   0.07671   0.65665   0.00000  Uiso   1.00
C824   C     0.20303   0.05427   0.61940   0.00000  Uiso   1.00
H825   H     0.27030   0.05144   0.53514   0.00000  Uiso   1.00
H826   H     0.31282   0.09465   0.60021   0.00000  Uiso   1.00
H827   H     0.28531   0.11048   0.34437   0.00000  Uiso   1.00
H828   H     0.21553   0.08301   0.35743   0.00000  Uiso   1.00
H829   H     0.17278   0.04215   0.62524   0.00000  Uiso   1.00
C830   C     0.11623   0.28470   0.42617   0.00000  Uiso   1.00
C831   C     0.13030   0.27906   0.38060   0.00000  Uiso   1.00
C832   C     0.10590   0.25662   0.34336   0.00000  Uiso   1.00
C833   C     0.06666   0.24113   0.35073   0.00000  Uiso   1.00
C834   C     0.05123   0.24991   0.39474   0.00000  Uiso   1.00
C835   C     0.07552   0.27301   0.43179   0.00000  Uiso   1.00
H836   H     0.16055   0.29118   0.37476   0.00000  Uiso   1.00
H837   H     0.11780   0.25032   0.64258   0.00000  Uiso   1.00
H838   H     0.04802   0.22285   0.65564   0.00000  Uiso   1.00
H839   H     0.02051   0.23870   0.39979   0.00000  Uiso   1.00
H840   H     0.06304   0.28190   0.46486   0.00000  Uiso   1.00
O841   O     0.43988   0.20625   0.50000   0.00000  Uiso   1.00
O842   O     0.56012   0.12709   0.50000   0.00000  Uiso   1.00
O843   O     0.56012   0.20625   0.50000   0.00000  Uiso   1.00
O844   O     0.43988   0.12709   0.50000   0.00000  Uiso   1.00
C845   C     0.42107   0.16667   0.50418   0.00000  Uiso   1.00
C846   C     0.57893   0.16667   0.49582   0.00000  Uiso   1.00
O847   O     0.50000   0.20625   0.42946   0.00000  Uiso   1.00
O848   O     0.50000   0.12708   0.57054   0.00000  Uiso   1.00
O849   O     0.50000   0.20625   0.57054   0.00000  Uiso   1.00
O850   O     0.50000   0.12708   0.42946   0.00000  Uiso   1.00
C851   C     0.49988   0.16667   0.40691   0.00000  Uiso   1.00
C852   C     0.50012   0.16667   0.59309   0.00000  Uiso   1.00
Cu853  Cu    0.50000   0.21355   0.50000   0.00000  Uiso   1.00
Cu854  Cu    0.50000   0.11978   0.50000   0.00000  Uiso   1.00
C855   C     0.50000   0.16667   0.35510   0.00000  Uiso   1.00
C856   C     0.50000   0.16667   0.64490   0.00000  Uiso   1.00
C857   C     0.35428   0.12464   0.50942   0.00000  Uiso   1.00
C858   C     0.64572   0.20869   0.49058   0.00000  Uiso   1.00
C859   C     0.64572   0.12464   0.49059   0.00000  Uiso   1.00
C860   C     0.35428   0.20869   0.50941   0.00000  Uiso   1.00
C861   C     0.62378   0.16667   0.49029   0.00000  Uiso   1.00
C862   C     0.37622   0.16667   0.50971   0.00000  Uiso   1.00
C863   C     0.47564   0.02465   0.46539   0.00000  Uiso   1.00
C864   C     0.52436   0.30869   0.53461   0.00000  Uiso   1.00
C865   C     0.52436   0.02465   0.53462   0.00000  Uiso   1.00
C866   C     0.47564   0.30868   0.46538   0.00000  Uiso   1.00
N867   N     0.50000   0.28402   0.50000   0.00000  Uiso   1.00
N868   N     0.50000   0.04931   0.50000   0.00000  Uiso   1.00
N869   N     0.37179   0.08590   0.53761   0.00000  Uiso   1.00
O870   O     0.35081   0.04843   0.54222   0.00000  Uiso   1.00
O871   O     0.40428   0.09189   0.56825   0.00000  Uiso   1.00
N872   N     0.62821   0.24743   0.46239   0.00000  Uiso   1.00
O873   O     0.59572   0.24144   0.43175   0.00000  Uiso   1.00
O874   O     0.64919   0.28491   0.45778   0.00000  Uiso   1.00
N875   N     0.62821   0.08590   0.46240   0.00000  Uiso   1.00
O876   O     0.59573   0.09189   0.43175   0.00000  Uiso   1.00
O877   O     0.64919   0.04842   0.45780   0.00000  Uiso   1.00
N878   N     0.37179   0.24744   0.53760   0.00000  Uiso   1.00
O879   O     0.40427   0.24144   0.56825   0.00000  Uiso   1.00
O880   O     0.35082   0.28492   0.54220   0.00000  Uiso   1.00
C881   C     0.44956   0.04864   0.42618   0.00000  Uiso   1.00
C882   C     0.46363   0.05427   0.38060   0.00000  Uiso   1.00
C883   C     0.43923   0.07671   0.34336   0.00000  Uiso   1.00
C884   C     0.39999   0.09220   0.35073   0.00000  Uiso   1.00
C885   C     0.38456   0.08342   0.39474   0.00000  Uiso   1.00
C886   C     0.40886   0.06032   0.43179   0.00000  Uiso   1.00
H887   H     0.49388   0.04215   0.37476   0.00000  Uiso   1.00
H888   H     0.45113   0.08301   0.64258   0.00000  Uiso   1.00
H889   H     0.38135   0.11047   0.65564   0.00000  Uiso   1.00
H890   H     0.35384   0.09463   0.39979   0.00000  Uiso   1.00
H891   H     0.39637   0.05143   0.46486   0.00000  Uiso   1.00
C892   C     0.55044   0.28470   0.57382   0.00000  Uiso   1.00
C893   C     0.59115   0.27302   0.56821   0.00000  Uiso   1.00
C894   C     0.61545   0.24992   0.60526   0.00000  Uiso   1.00
C895   C     0.60001   0.24114   0.64926   0.00000  Uiso   1.00
C896   C     0.56077   0.25662   0.65664   0.00000  Uiso   1.00
C897   C     0.53637   0.27906   0.61939   0.00000  Uiso   1.00
H898   H     0.60363   0.28191   0.53514   0.00000  Uiso   1.00
H899   H     0.64617   0.23872   0.60021   0.00000  Uiso   1.00
H900   H     0.61865   0.22286   0.34436   0.00000  Uiso   1.00
H901   H     0.54887   0.25032   0.35742   0.00000  Uiso   1.00
H902   H     0.50612   0.29117   0.62523   0.00000  Uiso   1.00
C903   C     0.55043   0.04864   0.57383   0.00000  Uiso   1.00
C904   C     0.59114   0.06033   0.56821   0.00000  Uiso   1.00
C905   C     0.61544   0.08343   0.60526   0.00000  Uiso   1.00
C906   C     0.60000   0.09221   0.64927   0.00000  Uiso   1.00
C907   C     0.56076   0.07671   0.65665   0.00000  Uiso   1.00
C908   C     0.53637   0.05427   0.61940   0.00000  Uiso   1.00
H909   H     0.60363   0.05144   0.53514   0.00000  Uiso   1.00
H910   H     0.64615   0.09465   0.60021   0.00000  Uiso   1.00
H911   H     0.61864   0.11048   0.34437   0.00000  Uiso   1.00
H912   H     0.54887   0.08301   0.35743   0.00000  Uiso   1.00
H913   H     0.50612   0.04215   0.62524   0.00000  Uiso   1.00
C914   C     0.44957   0.28470   0.42617   0.00000  Uiso   1.00
C915   C     0.46363   0.27906   0.38060   0.00000  Uiso   1.00
C916   C     0.43923   0.25662   0.34336   0.00000  Uiso   1.00
C917   C     0.40000   0.24113   0.35073   0.00000  Uiso   1.00
C918   C     0.38456   0.24991   0.39474   0.00000  Uiso   1.00
C919   C     0.40886   0.27301   0.43179   0.00000  Uiso   1.00
H920   H     0.49388   0.29118   0.37476   0.00000  Uiso   1.00
H921   H     0.45113   0.25032   0.64258   0.00000  Uiso   1.00
H922   H     0.38136   0.22285   0.65564   0.00000  Uiso   1.00
H923   H     0.35384   0.23870   0.39979   0.00000  Uiso   1.00
H924   H     0.39637   0.28190   0.46486   0.00000  Uiso   1.00
O925   O     0.77321   0.20625   0.50000   0.00000  Uiso   1.00
O926   O     0.89345   0.12709   0.50000   0.00000  Uiso   1.00
O927   O     0.89345   0.20625   0.50000   0.00000  Uiso   1.00
O928   O     0.77321   0.12709   0.50000   0.00000  Uiso   1.00
C929   C     0.75441   0.16667   0.50418   0.00000  Uiso   1.00
C930   C     0.91226   0.16667   0.49582   0.00000  Uiso   1.00
O931   O     0.83333   0.20625   0.42946   0.00000  Uiso   1.00
O932   O     0.83333   0.12708   0.57054   0.00000  Uiso   1.00
O933   O     0.83333   0.20625   0.57054   0.00000  Uiso   1.00
O934   O     0.83333   0.12708   0.42946   0.00000  Uiso   1.00
C935   C     0.83322   0.16667   0.40691   0.00000  Uiso   1.00
C936   C     0.83345   0.16667   0.59309   0.00000  Uiso   1.00
Cu937  Cu    0.83333   0.21355   0.50000   0.00000  Uiso   1.00
Cu938  Cu    0.83333   0.11978   0.50000   0.00000  Uiso   1.00
C939   C     0.83333   0.16667   0.35510   0.00000  Uiso   1.00
C940   C     0.83334   0.16667   0.64490   0.00000  Uiso   1.00
C941   C     0.68761   0.12464   0.50942   0.00000  Uiso   1.00
C942   C     0.97906   0.20869   0.49058   0.00000  Uiso   1.00
C943   C     0.97906   0.12464   0.49059   0.00000  Uiso   1.00
C944   C     0.68761   0.20869   0.50941   0.00000  Uiso   1.00
C945   C     0.95712   0.16667   0.49029   0.00000  Uiso   1.00
C946   C     0.70955   0.16667   0.50971   0.00000  Uiso   1.00
C947   C     0.80898   0.02465   0.46539   0.00000  Uiso   1.00
C948   C     0.85769   0.30869   0.53461   0.00000  Uiso   1.00
C949   C     0.85769   0.02465   0.53462   0.00000  Uiso   1.00
C950   C     0.80898   0.30868   0.46538   0.00000  Uiso   1.00
N951   N     0.83333   0.28402   0.50000   0.00000  Uiso   1.00
N952   N     0.83333   0.04931   0.50000   0.00000  Uiso   1.00
N953   N     0.70512   0.08590   0.53761   0.00000  Uiso   1.00
O954   O     0.68414   0.04843   0.54222   0.00000  Uiso   1.00
O955   O     0.73761   0.09189   0.56825   0.00000  Uiso   1.00
N956   N     0.96154   0.24743   0.46239   0.00000  Uiso   1.00
O957   O     0.92906   0.24144   0.43175   0.00000  Uiso   1.00
O958   O     0.98252   0.28491   0.45778   0.00000  Uiso   1.00
N959   N     0.96155   0.08590   0.46240   0.00000  Uiso   1.00
O960   O     0.92906   0.09189   0.43175   0.00000  Uiso   1.00
O961   O     0.98252   0.04842   0.45780   0.00000  Uiso   1.00
N962   N     0.70512   0.24744   0.53760   0.00000  Uiso   1.00
O963   O     0.73761   0.24144   0.56825   0.00000  Uiso   1.00
O964   O     0.68415   0.28492   0.54220   0.00000  Uiso   1.00
C965   C     0.78290   0.04864   0.42618   0.00000  Uiso   1.00
C966   C     0.79696   0.05427   0.38060   0.00000  Uiso   1.00
C967   C     0.77256   0.07671   0.34336   0.00000  Uiso   1.00
C968   C     0.73333   0.09220   0.35073   0.00000  Uiso   1.00
C969   C     0.71789   0.08342   0.39474   0.00000  Uiso   1.00
C970   C     0.74219   0.06032   0.43179   0.00000  Uiso   1.00
H971   H     0.82721   0.04215   0.37476   0.00000  Uiso   1.00
H972   H     0.78446   0.08301   0.64258   0.00000  Uiso   1.00
H973   H     0.71469   0.11047   0.65564   0.00000  Uiso   1.00
H974   H     0.68717   0.09463   0.39979   0.00000  Uiso   1.00
H975   H     0.72970   0.05143   0.46486   0.00000  Uiso   1.00
C976   C     0.88377   0.28470   0.57382   0.00000  Uiso   1.00
C977   C     0.92448   0.27302   0.56821   0.00000  Uiso   1.00
C978   C     0.94878   0.24992   0.60526   0.00000  Uiso   1.00
C979   C     0.93334   0.24114   0.64926   0.00000  Uiso   1.00
C980   C     0.89410   0.25662   0.65664   0.00000  Uiso   1.00
C981   C     0.86970   0.27906   0.61939   0.00000  Uiso   1.00
H982   H     0.93697   0.28191   0.53514   0.00000  Uiso   1.00
H983   H     0.97950   0.23872   0.60021   0.00000  Uiso   1.00
H984   H     0.95199   0.22286   0.34436   0.00000  Uiso   1.00
H985   H     0.88221   0.25032   0.35742   0.00000  Uiso   1.00
H986   H     0.83945   0.29117   0.62523   0.00000  Uiso   1.00
C987   C     0.88377   0.04864   0.57383   0.00000  Uiso   1.00
C988   C     0.92447   0.06033   0.56821   0.00000  Uiso   1.00
C989   C     0.94877   0.08343   0.60526   0.00000  Uiso   1.00
C990   C     0.93333   0.09221   0.64927   0.00000  Uiso   1.00
C991   C     0.89410   0.07671   0.65665   0.00000  Uiso   1.00
C992   C     0.86970   0.05427   0.61940   0.00000  Uiso   1.00
H993   H     0.93696   0.05144   0.53514   0.00000  Uiso   1.00
H994   H     0.97949   0.09465   0.60021   0.00000  Uiso   1.00
H995   H     0.95197   0.11048   0.34437   0.00000  Uiso   1.00
H996   H     0.88220   0.08301   0.35743   0.00000  Uiso   1.00
H997   H     0.83945   0.04215   0.62524   0.00000  Uiso   1.00
C998   C     0.78290   0.28470   0.42617   0.00000  Uiso   1.00
C999   C     0.79697   0.27906   0.38060   0.00000  Uiso   1.00
C1000  C     0.77257   0.25662   0.34336   0.00000  Uiso   1.00
C1001  C     0.73333   0.24113   0.35073   0.00000  Uiso   1.00
C1002  C     0.71789   0.24991   0.39474   0.00000  Uiso   1.00
C1003  C     0.74219   0.27301   0.43179   0.00000  Uiso   1.00
H1004  H     0.82722   0.29118   0.37476   0.00000  Uiso   1.00
H1005  H     0.78447   0.25032   0.64258   0.00000  Uiso   1.00
H1006  H     0.71469   0.22285   0.65564   0.00000  Uiso   1.00
H1007  H     0.68717   0.23870   0.39979   0.00000  Uiso   1.00
H1008  H     0.72970   0.28190   0.46486   0.00000  Uiso   1.00
O1009  O     0.10655   0.53958   0.50000   0.00000  Uiso   1.00
O1010  O     0.22679   0.46042   0.50000   0.00000  Uiso   1.00
O1011  O     0.22679   0.53958   0.50000   0.00000  Uiso   1.00
O1012  O     0.10655   0.46042   0.50000   0.00000  Uiso   1.00
C1013  C     0.08774   0.50000   0.50418   0.00000  Uiso   1.00
C1014  C     0.24559   0.50000   0.49582   0.00000  Uiso   1.00
O1015  O     0.16667   0.53959   0.42946   0.00000  Uiso   1.00
O1016  O     0.16667   0.46041   0.57054   0.00000  Uiso   1.00
O1017  O     0.16667   0.53959   0.57054   0.00000  Uiso   1.00
O1018  O     0.16667   0.46041   0.42946   0.00000  Uiso   1.00
C1019  C     0.16655   0.50000   0.40691   0.00000  Uiso   1.00
C1020  C     0.16678   0.50000   0.59309   0.00000  Uiso   1.00
Cu1021 Cu    0.16667   0.54689   0.50000   0.00000  Uiso   1.00
Cu1022 Cu    0.16667   0.45311   0.50000   0.00000  Uiso   1.00
C1023  C     0.16666   0.50000   0.35510   0.00000  Uiso   1.00
C1024  C     0.16667   0.50000   0.64490   0.00000  Uiso   1.00
C1025  C     0.02094   0.45797   0.50942   0.00000  Uiso   1.00
C1026  C     0.31239   0.54203   0.49058   0.00000  Uiso   1.00
C1027  C     0.31239   0.45797   0.49059   0.00000  Uiso   1.00
C1028  C     0.02094   0.54203   0.50941   0.00000  Uiso   1.00
C1029  C     0.29045   0.50000   0.49029   0.00000  Uiso   1.00
C1030  C     0.04288   0.50000   0.50971   0.00000  Uiso   1.00
C1031  C     0.14231   0.35798   0.46539   0.00000  Uiso   1.00
C1032  C     0.19102   0.64202   0.53461   0.00000  Uiso   1.00
C1033  C     0.19102   0.35798   0.53462   0.00000  Uiso   1.00
C1034  C     0.14231   0.64202   0.46538   0.00000  Uiso   1.00
N1035  N     0.16667   0.61736   0.50000   0.00000  Uiso   1.00
N1036  N     0.16667   0.38264   0.50000   0.00000  Uiso   1.00
N1037  N     0.03845   0.41923   0.53761   0.00000  Uiso   1.00
O1038  O     0.01747   0.38176   0.54222   0.00000  Uiso   1.00
O1039  O     0.07095   0.42522   0.56825   0.00000  Uiso   1.00
N1040  N     0.29488   0.58077   0.46239   0.00000  Uiso   1.00
O1041  O     0.26239   0.57477   0.43175   0.00000  Uiso   1.00
O1042  O     0.31585   0.61824   0.45778   0.00000  Uiso   1.00
N1043  N     0.29488   0.41923   0.46240   0.00000  Uiso   1.00
O1044  O     0.26239   0.42522   0.43175   0.00000  Uiso   1.00
O1045  O     0.31586   0.38176   0.45780   0.00000  Uiso   1.00
N1046  N     0.03845   0.58077   0.53760   0.00000  Uiso   1.00
O1047  O     0.07094   0.57477   0.56825   0.00000  Uiso   1.00
O1048  O     0.01748   0.61825   0.54220   0.00000  Uiso   1.00
C1049  C     0.11623   0.38197   0.42618   0.00000  Uiso   1.00
C1050  C     0.13030   0.38760   0.38060   0.00000  Uiso   1.00
C1051  C     0.10590   0.41005   0.34336   0.00000  Uiso   1.00
C1052  C     0.06666   0.42553   0.35073   0.00000  Uiso   1.00
C1053  C     0.05122   0.41676   0.39474   0.00000  Uiso   1.00
C1054  C     0.07552   0.39366   0.43179   0.00000  Uiso   1.00
H1055  H     0.16055   0.37548   0.37476   0.00000  Uiso   1.00
H1056  H     0.11780   0.41634   0.64258   0.00000  Uiso   1.00
H1057  H     0.04802   0.44381   0.65564   0.00000  Uiso   1.00
H1058  H     0.02050   0.42797   0.39979   0.00000  Uiso   1.00
H1059  H     0.06304   0.38476   0.46486   0.00000  Uiso   1.00
C1060  C     0.21710   0.61803   0.57382   0.00000  Uiso   1.00
C1061  C     0.25781   0.60635   0.56821   0.00000  Uiso   1.00
C1062  C     0.28211   0.58325   0.60526   0.00000  Uiso   1.00
C1063  C     0.26668   0.57447   0.64926   0.00000  Uiso   1.00
C1064  C     0.22744   0.58995   0.65664   0.00000  Uiso   1.00
C1065  C     0.20304   0.61240   0.61939   0.00000  Uiso   1.00
H1066  H     0.27030   0.61524   0.53514   0.00000  Uiso   1.00
H1067  H     0.31284   0.57205   0.60021   0.00000  Uiso   1.00
H1068  H     0.28532   0.55620   0.34436   0.00000  Uiso   1.00
H1069  H     0.21554   0.58365   0.35742   0.00000  Uiso   1.00
H1070  H     0.17278   0.62451   0.62523   0.00000  Uiso   1.00
C1071  C     0.21710   0.38197   0.57383   0.00000  Uiso   1.00
C1072  C     0.25781   0.39366   0.56821   0.00000  Uiso   1.00
C1073  C     0.28210   0.41676   0.60526   0.00000  Uiso   1.00
C1074  C     0.26667   0.42554   0.64927   0.00000  Uiso   1.00
C1075  C     0.22743   0.41005   0.65665   0.00000  Uiso   1.00
C1076  C     0.20303   0.38760   0.61940   0.00000  Uiso   1.00
H1077  H     0.27030   0.38477   0.53514   0.00000  Uiso   1.00
H1078  H     0.31282   0.42798   0.60021   0.00000  Uiso   1.00
H1079  H     0.28531   0.44382   0.34437   0.00000  Uiso   1.00
H1080  H     0.21553   0.41634   0.35743   0.00000  Uiso   1.00
H1081  H     0.17278   0.37548   0.62524   0.00000  Uiso   1.00
C1082  C     0.11623   0.61803   0.42617   0.00000  Uiso   1.00
C1083  C     0.13030   0.61240   0.38060   0.00000  Uiso   1.00
C1084  C     0.10590   0.58995   0.34336   0.00000  Uiso   1.00
C1085  C     0.06666   0.57446   0.35073   0.00000  Uiso   1.00
C1086  C     0.05123   0.58324   0.39474   0.00000  Uiso   1.00
C1087  C     0.07552   0.60634   0.43179   0.00000  Uiso   1.00
H1088  H     0.16055   0.62451   0.37476   0.00000  Uiso   1.00
H1089  H     0.11780   0.58365   0.64258   0.00000  Uiso   1.00
H1090  H     0.04802   0.55618   0.65564   0.00000  Uiso   1.00
H1091  H     0.02051   0.57203   0.39979   0.00000  Uiso   1.00
H1092  H     0.06304   0.61524   0.46486   0.00000  Uiso   1.00
O1093  O     0.43988   0.53958   0.50000   0.00000  Uiso   1.00
O1094  O     0.56012   0.46042   0.50000   0.00000  Uiso   1.00
O1095  O     0.56012   0.53958   0.50000   0.00000  Uiso   1.00
O1096  O     0.43988   0.46042   0.50000   0.00000  Uiso   1.00
C1097  C     0.42107   0.50000   0.50418   0.00000  Uiso   1.00
C1098  C     0.57893   0.50000   0.49582   0.00000  Uiso   1.00
O1099  O     0.50000   0.53959   0.42946   0.00000  Uiso   1.00
O1100  O     0.50000   0.46041   0.57054   0.00000  Uiso   1.00
O1101  O     0.50000   0.53959   0.57054   0.00000  Uiso   1.00
O1102  O     0.50000   0.46041   0.42946   0.00000  Uiso   1.00
C1103  C     0.49988   0.50000   0.40691   0.00000  Uiso   1.00
C1104  C     0.50012   0.50000   0.59309   0.00000  Uiso   1.00
Cu1105 Cu    0.50000   0.54689   0.50000   0.00000  Uiso   1.00
Cu1106 Cu    0.50000   0.45311   0.50000   0.00000  Uiso   1.00
C1107  C     0.50000   0.50000   0.35510   0.00000  Uiso   1.00
C1108  C     0.50000   0.50000   0.64490   0.00000  Uiso   1.00
C1109  C     0.35428   0.45797   0.50942   0.00000  Uiso   1.00
C1110  C     0.64572   0.54203   0.49058   0.00000  Uiso   1.00
C1111  C     0.64572   0.45797   0.49059   0.00000  Uiso   1.00
C1112  C     0.35428   0.54203   0.50941   0.00000  Uiso   1.00
C1113  C     0.62378   0.50000   0.49029   0.00000  Uiso   1.00
C1114  C     0.37622   0.50000   0.50971   0.00000  Uiso   1.00
C1115  C     0.47564   0.35798   0.46539   0.00000  Uiso   1.00
C1116  C     0.52436   0.64202   0.53461   0.00000  Uiso   1.00
C1117  C     0.52436   0.35798   0.53462   0.00000  Uiso   1.00
C1118  C     0.47564   0.64202   0.46538   0.00000  Uiso   1.00
N1119  N     0.50000   0.61736   0.50000   0.00000  Uiso   1.00
N1120  N     0.50000   0.38264   0.50000   0.00000  Uiso   1.00
N1121  N     0.37179   0.41923   0.53761   0.00000  Uiso   1.00
O1122  O     0.35081   0.38176   0.54222   0.00000  Uiso   1.00
O1123  O     0.40428   0.42522   0.56825   0.00000  Uiso   1.00
N1124  N     0.62821   0.58077   0.46239   0.00000  Uiso   1.00
O1125  O     0.59572   0.57477   0.43175   0.00000  Uiso   1.00
O1126  O     0.64919   0.61824   0.45778   0.00000  Uiso   1.00
N1127  N     0.62821   0.41923   0.46240   0.00000  Uiso   1.00
O1128  O     0.59573   0.42522   0.43175   0.00000  Uiso   1.00
O1129  O     0.64919   0.38176   0.45780   0.00000  Uiso   1.00
N1130  N     0.37179   0.58077   0.53760   0.00000  Uiso   1.00
O1131  O     0.40427   0.57477   0.56825   0.00000  Uiso   1.00
O1132  O     0.35082   0.61825   0.54220   0.00000  Uiso   1.00
C1133  C     0.44956   0.38197   0.42618   0.00000  Uiso   1.00
C1134  C     0.46363   0.38760   0.38060   0.00000  Uiso   1.00
C1135  C     0.43923   0.41005   0.34336   0.00000  Uiso   1.00
C1136  C     0.39999   0.42553   0.35073   0.00000  Uiso   1.00
C1137  C     0.38456   0.41676   0.39474   0.00000  Uiso   1.00
C1138  C     0.40886   0.39366   0.43179   0.00000  Uiso   1.00
H1139  H     0.49388   0.37548   0.37476   0.00000  Uiso   1.00
H1140  H     0.45113   0.41634   0.64258   0.00000  Uiso   1.00
H1141  H     0.38135   0.44381   0.65564   0.00000  Uiso   1.00
H1142  H     0.35384   0.42797   0.39979   0.00000  Uiso   1.00
H1143  H     0.39637   0.38476   0.46486   0.00000  Uiso   1.00
C1144  C     0.55044   0.61803   0.57382   0.00000  Uiso   1.00
C1145  C     0.59115   0.60635   0.56821   0.00000  Uiso   1.00
C1146  C     0.61545   0.58325   0.60526   0.00000  Uiso   1.00
C1147  C     0.60001   0.57447   0.64926   0.00000  Uiso   1.00
C1148  C     0.56077   0.58995   0.65664   0.00000  Uiso   1.00
C1149  C     0.53637   0.61240   0.61939   0.00000  Uiso   1.00
H1150  H     0.60363   0.61524   0.53514   0.00000  Uiso   1.00
H1151  H     0.64617   0.57205   0.60021   0.00000  Uiso   1.00
H1152  H     0.61865   0.55620   0.34436   0.00000  Uiso   1.00
H1153  H     0.54887   0.58365   0.35742   0.00000  Uiso   1.00
H1154  H     0.50612   0.62451   0.62523   0.00000  Uiso   1.00
C1155  C     0.55043   0.38197   0.57383   0.00000  Uiso   1.00
C1156  C     0.59114   0.39366   0.56821   0.00000  Uiso   1.00
C1157  C     0.61544   0.41676   0.60526   0.00000  Uiso   1.00
C1158  C     0.60000   0.42554   0.64927   0.00000  Uiso   1.00
C1159  C     0.56076   0.41005   0.65665   0.00000  Uiso   1.00
C1160  C     0.53637   0.38760   0.61940   0.00000  Uiso   1.00
H1161  H     0.60363   0.38477   0.53514   0.00000  Uiso   1.00
H1162  H     0.64615   0.42798   0.60021   0.00000  Uiso   1.00
H1163  H     0.61864   0.44382   0.34437   0.00000  Uiso   1.00
H1164  H     0.54887   0.41634   0.35743   0.00000  Uiso   1.00
H1165  H     0.50612   0.37548   0.62524   0.00000  Uiso   1.00
C1166  C     0.44957   0.61803   0.42617   0.00000  Uiso   1.00
C1167  C     0.46363   0.61240   0.38060   0.00000  Uiso   1.00
C1168  C     0.43923   0.58995   0.34336   0.00000  Uiso   1.00
C1169  C     0.40000   0.57446   0.35073   0.00000  Uiso   1.00
C1170  C     0.38456   0.58324   0.39474   0.00000  Uiso   1.00
C1171  C     0.40886   0.60634   0.43179   0.00000  Uiso   1.00
H1172  H     0.49388   0.62451   0.37476   0.00000  Uiso   1.00
H1173  H     0.45113   0.58365   0.64258   0.00000  Uiso   1.00
H1174  H     0.38136   0.55618   0.65564   0.00000  Uiso   1.00
H1175  H     0.35384   0.57203   0.39979   0.00000  Uiso   1.00
H1176  H     0.39637   0.61524   0.46486   0.00000  Uiso   1.00
O1177  O     0.77321   0.53958   0.50000   0.00000  Uiso   1.00
O1178  O     0.89345   0.46042   0.50000   0.00000  Uiso   1.00
O1179  O     0.89345   0.53958   0.50000   0.00000  Uiso   1.00
O1180  O     0.77321   0.46042   0.50000   0.00000  Uiso   1.00
C1181  C     0.75441   0.50000   0.50418   0.00000  Uiso   1.00
C1182  C     0.91226   0.50000   0.49582   0.00000  Uiso   1.00
O1183  O     0.83333   0.53959   0.42946   0.00000  Uiso   1.00
O1184  O     0.83333   0.46041   0.57054   0.00000  Uiso   1.00
O1185  O     0.83333   0.53959   0.57054   0.00000  Uiso   1.00
O1186  O     0.83333   0.46041   0.42946   0.00000  Uiso   1.00
C1187  C     0.83322   0.50000   0.40691   0.00000  Uiso   1.00
C1188  C     0.83345   0.50000   0.59309   0.00000  Uiso   1.00
Cu1189 Cu    0.83333   0.54689   0.50000   0.00000  Uiso   1.00
Cu1190 Cu    0.83333   0.45311   0.50000   0.00000  Uiso   1.00
C1191  C     0.83333   0.50000   0.35510   0.00000  Uiso   1.00
C1192  C     0.83334   0.50000   0.64490   0.00000  Uiso   1.00
C1193  C     0.68761   0.45797   0.50942   0.00000  Uiso   1.00
C1194  C     0.97906   0.54203   0.49058   0.00000  Uiso   1.00
C1195  C     0.97906   0.45797   0.49059   0.00000  Uiso   1.00
C1196  C     0.68761   0.54203   0.50941   0.00000  Uiso   1.00
C1197  C     0.95712   0.50000   0.49029   0.00000  Uiso   1.00
C1198  C     0.70955   0.50000   0.50971   0.00000  Uiso   1.00
C1199  C     0.80898   0.35798   0.46539   0.00000  Uiso   1.00
C1200  C     0.85769   0.64202   0.53461   0.00000  Uiso   1.00
C1201  C     0.85769   0.35798   0.53462   0.00000  Uiso   1.00
C1202  C     0.80898   0.64202   0.46538   0.00000  Uiso   1.00
N1203  N     0.83333   0.61736   0.50000   0.00000  Uiso   1.00
N1204  N     0.83333   0.38264   0.50000   0.00000  Uiso   1.00
N1205  N     0.70512   0.41923   0.53761   0.00000  Uiso   1.00
O1206  O     0.68414   0.38176   0.54222   0.00000  Uiso   1.00
O1207  O     0.73761   0.42522   0.56825   0.00000  Uiso   1.00
N1208  N     0.96154   0.58077   0.46239   0.00000  Uiso   1.00
O1209  O     0.92906   0.57477   0.43175   0.00000  Uiso   1.00
O1210  O     0.98252   0.61824   0.45778   0.00000  Uiso   1.00
N1211  N     0.96155   0.41923   0.46240   0.00000  Uiso   1.00
O1212  O     0.92906   0.42522   0.43175   0.00000  Uiso   1.00
O1213  O     0.98252   0.38176   0.45780   0.00000  Uiso   1.00
N1214  N     0.70512   0.58077   0.53760   0.00000  Uiso   1.00
O1215  O     0.73761   0.57477   0.56825   0.00000  Uiso   1.00
O1216  O     0.68415   0.61825   0.54220   0.00000  Uiso   1.00
C1217  C     0.78290   0.38197   0.42618   0.00000  Uiso   1.00
C1218  C     0.79696   0.38760   0.38060   0.00000  Uiso   1.00
C1219  C     0.77256   0.41005   0.34336   0.00000  Uiso   1.00
C1220  C     0.73333   0.42553   0.35073   0.00000  Uiso   1.00
C1221  C     0.71789   0.41676   0.39474   0.00000  Uiso   1.00
C1222  C     0.74219   0.39366   0.43179   0.00000  Uiso   1.00
H1223  H     0.82721   0.37548   0.37476   0.00000  Uiso   1.00
H1224  H     0.78446   0.41634   0.64258   0.00000  Uiso   1.00
H1225  H     0.71469   0.44381   0.65564   0.00000  Uiso   1.00
H1226  H     0.68717   0.42797   0.39979   0.00000  Uiso   1.00
H1227  H     0.72970   0.38476   0.46486   0.00000  Uiso   1.00
C1228  C     0.88377   0.61803   0.57382   0.00000  Uiso   1.00
C1229  C     0.92448   0.60635   0.56821   0.00000  Uiso   1.00
C1230  C     0.94878   0.58325   0.60526   0.00000  Uiso   1.00
C1231  C     0.93334   0.57447   0.64926   0.00000  Uiso   1.00
C1232  C     0.89410   0.58995   0.65664   0.00000  Uiso   1.00
C1233  C     0.86970   0.61240   0.61939   0.00000  Uiso   1.00
H1234  H     0.93697   0.61524   0.53514   0.00000  Uiso   1.00
H1235  H     0.97950   0.57205   0.60021   0.00000  Uiso   1.00
H1236  H     0.95199   0.55620   0.34436   0.00000  Uiso   1.00
H1237  H     0.88221   0.58365   0.35742   0.00000  Uiso   1.00
H1238  H     0.83945   0.62451   0.62523   0.00000  Uiso   1.00
C1239  C     0.88377   0.38197   0.57383   0.00000  Uiso   1.00
C1240  C     0.92447   0.39366   0.56821   0.00000  Uiso   1.00
C1241  C     0.94877   0.41676   0.60526   0.00000  Uiso   1.00
C1242  C     0.93333   0.42554   0.64927   0.00000  Uiso   1.00
C1243  C     0.89410   0.41005   0.65665   0.00000  Uiso   1.00
C1244  C     0.86970   0.38760   0.61940   0.00000  Uiso   1.00
H1245  H     0.93696   0.38477   0.53514   0.00000  Uiso   1.00
H1246  H     0.97949   0.42798   0.60021   0.00000  Uiso   1.00
H1247  H     0.95197   0.44382   0.34437   0.00000  Uiso   1.00
H1248  H     0.88220   0.41634   0.35743   0.00000  Uiso   1.00
H1249  H     0.83945   0.37548   0.62524   0.00000  Uiso   1.00
C1250  C     0.78290   0.61803   0.42617   0.00000  Uiso   1.00
C1251  C     0.79697   0.61240   0.38060   0.00000  Uiso   1.00
C1252  C     0.77257   0.58995   0.34336   0.00000  Uiso   1.00
C1253  C     0.73333   0.57446   0.35073   0.00000  Uiso   1.00
C1254  C     0.71789   0.58324   0.39474   0.00000  Uiso   1.00
C1255  C     0.74219   0.60634   0.43179   0.00000  Uiso   1.00
H1256  H     0.82722   0.62451   0.37476   0.00000  Uiso   1.00
H1257  H     0.78447   0.58365   0.64258   0.00000  Uiso   1.00
H1258  H     0.71469   0.55618   0.65564   0.00000  Uiso   1.00
H1259  H     0.68717   0.57203   0.39979   0.00000  Uiso   1.00
H1260  H     0.72970   0.61524   0.46486   0.00000  Uiso   1.00
O1261  O     0.10655   0.87291   0.50000   0.00000  Uiso   1.00
O1262  O     0.22679   0.79375   0.50000   0.00000  Uiso   1.00
O1263  O     0.22679   0.87291   0.50000   0.00000  Uiso   1.00
O1264  O     0.10655   0.79375   0.50000   0.00000  Uiso   1.00
C1265  C     0.08774   0.83333   0.50418   0.00000  Uiso   1.00
C1266  C     0.24559   0.83333   0.49582   0.00000  Uiso   1.00
O1267  O     0.16667   0.87292   0.42946   0.00000  Uiso   1.00
O1268  O     0.16667   0.79375   0.57054   0.00000  Uiso   1.00
O1269  O     0.16667   0.87292   0.57054   0.00000  Uiso   1.00
O1270  O     0.16667   0.79375   0.42946   0.00000  Uiso   1.00
C1271  C     0.16655   0.83333   0.40691   0.00000  Uiso   1.00
C1272  C     0.16678   0.83333   0.59309   0.00000  Uiso   1.00
Cu1273 Cu    0.16667   0.88022   0.50000   0.00000  Uiso   1.00
Cu1274 Cu    0.16667   0.78645   0.50000   0.00000  Uiso   1.00
C1275  C     0.16666   0.83333   0.35510   0.00000  Uiso   1.00
C1276  C     0.16667   0.83333   0.64490   0.00000  Uiso   1.00
C1277  C     0.02094   0.79131   0.50942   0.00000  Uiso   1.00
C1278  C     0.31239   0.87536   0.49058   0.00000  Uiso   1.00
C1279  C     0.31239   0.79131   0.49059   0.00000  Uiso   1.00
C1280  C     0.02094   0.87536   0.50941   0.00000  Uiso   1.00
C1281  C     0.29045   0.83333   0.49029   0.00000  Uiso   1.00
C1282  C     0.04288   0.83333   0.50971   0.00000  Uiso   1.00
C1283  C     0.14231   0.69131   0.46539   0.00000  Uiso   1.00
C1284  C     0.19102   0.97535   0.53461   0.00000  Uiso   1.00
C1285  C     0.19102   0.69131   0.53462   0.00000  Uiso   1.00
C1286  C     0.14231   0.97535   0.46538   0.00000  Uiso   1.00
N1287  N     0.16667   0.95069   0.50000   0.00000  Uiso   1.00
N1288  N     0.16667   0.71598   0.50000   0.00000  Uiso   1.00
N1289  N     0.03845   0.75256   0.53761   0.00000  Uiso   1.00
O1290  O     0.01747   0.71510   0.54222   0.00000  Uiso   1.00
O1291  O     0.07095   0.75856   0.56825   0.00000  Uiso   1.00
N1292  N     0.29488   0.91410   0.46239   0.00000  Uiso   1.00
O1293  O     0.26239   0.90810   0.43175   0.00000  Uiso   1.00
O1294  O     0.31585   0.95157   0.45778   0.00000  Uiso   1.00
N1295  N     0.29488   0.75256   0.46240   0.00000  Uiso   1.00
O1296  O     0.26239   0.75855   0.43175   0.00000  Uiso   1.00
O1297  O     0.31586   0.71509   0.45780   0.00000  Uiso   1.00
N1298  N     0.03845   0.91410   0.53760   0.00000  Uiso   1.00
O1299  O     0.07094   0.90811   0.56825   0.00000  Uiso   1.00
O1300  O     0.01748   0.95158   0.54220   0.00000  Uiso   1.00
C1301  C     0.11623   0.71530   0.42618   0.00000  Uiso   1.00
C1302  C     0.13030   0.72093   0.38060   0.00000  Uiso   1.00
C1303  C     0.10590   0.74338   0.34336   0.00000  Uiso   1.00
C1304  C     0.06666   0.75887   0.35073   0.00000  Uiso   1.00
C1305  C     0.05122   0.75009   0.39474   0.00000  Uiso   1.00
C1306  C     0.07552   0.72699   0.43179   0.00000  Uiso   1.00
H1307  H     0.16055   0.70882   0.37476   0.00000  Uiso   1.00
H1308  H     0.11780   0.74967   0.64258   0.00000  Uiso   1.00
H1309  H     0.04802   0.77714   0.65564   0.00000  Uiso   1.00
H1310  H     0.02050   0.76130   0.39979   0.00000  Uiso   1.00
H1311  H     0.06304   0.71810   0.46486   0.00000  Uiso   1.00
C1312  C     0.21710   0.95136   0.57382   0.00000  Uiso   1.00
C1313  C     0.25781   0.93968   0.56821   0.00000  Uiso   1.00
C1314  C     0.28211   0.91659   0.60526   0.00000  Uiso   1.00
C1315  C     0.26668   0.90780   0.64926   0.00000  Uiso   1.00
C1316  C     0.22744   0.92329   0.65664   0.00000  Uiso   1.00
C1317  C     0.20304   0.94573   0.61939   0.00000  Uiso   1.00
H1318  H     0.27030   0.94858   0.53514   0.00000  Uiso   1.00
H1319  H     0.31284   0.90538   0.60021   0.00000  Uiso   1.00
H1320  H     0.28532   0.88953   0.34436   0.00000  Uiso   1.00
H1321  H     0.21554   0.91699   0.35742   0.00000  Uiso   1.00
H1322  H     0.17278   0.95784   0.62523   0.00000  Uiso   1.00
C1323  C     0.21710   0.71530   0.57383   0.00000  Uiso   1.00
C1324  C     0.25781   0.72699   0.56821   0.00000  Uiso   1.00
C1325  C     0.28210   0.75010   0.60526   0.00000  Uiso   1.00
C1326  C     0.26667   0.75887   0.64927   0.00000  Uiso   1.00
C1327  C     0.22743   0.74338   0.65665   0.00000  Uiso   1.00
C1328  C     0.20303   0.72093   0.61940   0.00000  Uiso   1.00
H1329  H     0.27030   0.71810   0.53514   0.00000  Uiso   1.00
H1330  H     0.31282   0.76131   0.60021   0.00000  Uiso   1.00
H1331  H     0.28531   0.77715   0.34437   0.00000  Uiso   1.00
H1332  H     0.21553   0.74967   0.35743   0.00000  Uiso   1.00
H1333  H     0.17278   0.70881   0.62524   0.00000  Uiso   1.00
C1334  C     0.11623   0.95136   0.42617   0.00000  Uiso   1.00
C1335  C     0.13030   0.94573   0.38060   0.00000  Uiso   1.00
C1336  C     0.10590   0.92328   0.34336   0.00000  Uiso   1.00
C1337  C     0.06666   0.90779   0.35073   0.00000  Uiso   1.00
C1338  C     0.05123   0.91657   0.39474   0.00000  Uiso   1.00
C1339  C     0.07552   0.93968   0.43179   0.00000  Uiso   1.00
H1340  H     0.16055   0.95785   0.37476   0.00000  Uiso   1.00
H1341  H     0.11780   0.91699   0.64258   0.00000  Uiso   1.00
H1342  H     0.04802   0.88952   0.65564   0.00000  Uiso   1.00
H1343  H     0.02051   0.90536   0.39979   0.00000  Uiso   1.00
H1344  H     0.06304   0.94857   0.46486   0.00000  Uiso   1.00
O1345  O     0.43988   0.87291   0.50000   0.00000  Uiso   1.00
O1346  O     0.56012   0.79375   0.50000   0.00000  Uiso   1.00
O1347  O     0.56012   0.87291   0.50000   0.00000  Uiso   1.00
O1348  O     0.43988   0.79375   0.50000   0.00000  Uiso   1.00
C1349  C     0.42107   0.83333   0.50418   0.00000  Uiso   1.00
C1350  C     0.57893   0.83333   0.49582   0.00000  Uiso   1.00
O1351  O     0.50000   0.87292   0.42946   0.00000  Uiso   1.00
O1352  O     0.50000   0.79375   0.57054   0.00000  Uiso   1.00
O1353  O     0.50000   0.87292   0.57054   0.00000  Uiso   1.00
O1354  O     0.50000   0.79375   0.42946   0.00000  Uiso   1.00
C1355  C     0.49988   0.83333   0.40691   0.00000  Uiso   1.00
C1356  C     0.50012   0.83333   0.59309   0.00000  Uiso   1.00
Cu1357 Cu    0.50000   0.88022   0.50000   0.00000  Uiso   1.00
Cu1358 Cu    0.50000   0.78645   0.50000   0.00000  Uiso   1.00
C1359  C     0.50000   0.83333   0.35510   0.00000  Uiso   1.00
C1360  C     0.50000   0.83333   0.64490   0.00000  Uiso   1.00
C1361  C     0.35428   0.79131   0.50942   0.00000  Uiso   1.00
C1362  C     0.64572   0.87536   0.49058   0.00000  Uiso   1.00
C1363  C     0.64572   0.79131   0.49059   0.00000  Uiso   1.00
C1364  C     0.35428   0.87536   0.50941   0.00000  Uiso   1.00
C1365  C     0.62378   0.83333   0.49029   0.00000  Uiso   1.00
C1366  C     0.37622   0.83333   0.50971   0.00000  Uiso   1.00
C1367  C     0.47564   0.69131   0.46539   0.00000  Uiso   1.00
C1368  C     0.52436   0.97535   0.53461   0.00000  Uiso   1.00
C1369  C     0.52436   0.69131   0.53462   0.00000  Uiso   1.00
C1370  C     0.47564   0.97535   0.46538   0.00000  Uiso   1.00
N1371  N     0.50000   0.95069   0.50000   0.00000  Uiso   1.00
N1372  N     0.50000   0.71598   0.50000   0.00000  Uiso   1.00
N1373  N     0.37179   0.75256   0.53761   0.00000  Uiso   1.00
O1374  O     0.35081   0.71510   0.54222   0.00000  Uiso   1.00
O1375  O     0.40428   0.75856   0.56825   0.00000  Uiso   1.00
N1376  N     0.62821   0.91410   0.46239   0.00000  Uiso   1.00
O1377  O     0.59572   0.90810   0.43175   0.00000  Uiso   1.00
O1378  O     0.64919   0.95157   0.45778   0.00000  Uiso   1.00
N1379  N     0.62821   0.75256   0.46240   0.00000  Uiso   1.00
O1380  O     0.59573   0.75855   0.43175   0.00000  Uiso   1.00
O1381  O     0.64919   0.71509   0.45780   0.00000  Uiso   1.00
N1382  N     0.37179   0.91410   0.53760   0.00000  Uiso   1.00
O1383  O     0.40427   0.90811   0.56825   0.00000  Uiso   1.00
O1384  O     0.35082   0.95158   0.54220   0.00000  Uiso   1.00
C1385  C     0.44956   0.71530   0.42618   0.00000  Uiso   1.00
C1386  C     0.46363   0.72093   0.38060   0.00000  Uiso   1.00
C1387  C     0.43923   0.74338   0.34336   0.00000  Uiso   1.00
C1388  C     0.39999   0.75887   0.35073   0.00000  Uiso   1.00
C1389  C     0.38456   0.75009   0.39474   0.00000  Uiso   1.00
C1390  C     0.40886   0.72699   0.43179   0.00000  Uiso   1.00
H1391  H     0.49388   0.70882   0.37476   0.00000  Uiso   1.00
H1392  H     0.45113   0.74967   0.64258   0.00000  Uiso   1.00
H1393  H     0.38135   0.77714   0.65564   0.00000  Uiso   1.00
H1394  H     0.35384   0.76130   0.39979   0.00000  Uiso   1.00
H1395  H     0.39637   0.71810   0.46486   0.00000  Uiso   1.00
C1396  C     0.55044   0.95136   0.57382   0.00000  Uiso   1.00
C1397  C     0.59115   0.93968   0.56821   0.00000  Uiso   1.00
C1398  C     0.61545   0.91659   0.60526   0.00000  Uiso   1.00
C1399  C     0.60001   0.90780   0.64926   0.00000  Uiso   1.00
C1400  C     0.56077   0.92329   0.65664   0.00000  Uiso   1.00
C1401  C     0.53637   0.94573   0.61939   0.00000  Uiso   1.00
H1402  H     0.60363   0.94858   0.53514   0.00000  Uiso   1.00
H1403  H     0.64617   0.90538   0.60021   0.00000  Uiso   1.00
H1404  H     0.61865   0.88953   0.34436   0.00000  Uiso   1.00
H1405  H     0.54887   0.91699   0.35742   0.00000  Uiso   1.00
H1406  H     0.50612   0.95784   0.62523   0.00000  Uiso   1.00
C1407  C     0.55043   0.71530   0.57383   0.00000  Uiso   1.00
C1408  C     0.59114   0.72699   0.56821   0.00000  Uiso   1.00
C1409  C     0.61544   0.75010   0.60526   0.00000  Uiso   1.00
C1410  C     0.60000   0.75887   0.64927   0.00000  Uiso   1.00
C1411  C     0.56076   0.74338   0.65665   0.00000  Uiso   1.00
C1412  C     0.53637   0.72093   0.61940   0.00000  Uiso   1.00
H1413  H     0.60363   0.71810   0.53514   0.00000  Uiso   1.00
H1414  H     0.64615   0.76131   0.60021   0.00000  Uiso   1.00
H1415  H     0.61864   0.77715   0.34437   0.00000  Uiso   1.00
H1416  H     0.54887   0.74967   0.35743   0.00000  Uiso   1.00
H1417  H     0.50612   0.70881   0.62524   0.00000  Uiso   1.00
C1418  C     0.44957   0.95136   0.42617   0.00000  Uiso   1.00
C1419  C     0.46363   0.94573   0.38060   0.00000  Uiso   1.00
C1420  C     0.43923   0.92328   0.34336   0.00000  Uiso   1.00
C1421  C     0.40000   0.90779   0.35073   0.00000  Uiso   1.00
C1422  C     0.38456   0.91657   0.39474   0.00000  Uiso   1.00
C1423  C     0.40886   0.93968   0.43179   0.00000  Uiso   1.00
H1424  H     0.49388   0.95785   0.37476   0.00000  Uiso   1.00
H1425  H     0.45113   0.91699   0.64258   0.00000  Uiso   1.00
H1426  H     0.38136   0.88952   0.65564   0.00000  Uiso   1.00
H1427  H     0.35384   0.90536   0.39979   0.00000  Uiso   1.00
H1428  H     0.39637   0.94857   0.46486   0.00000  Uiso   1.00
O1429  O     0.77321   0.87291   0.50000   0.00000  Uiso   1.00
O1430  O     0.89345   0.79375   0.50000   0.00000  Uiso   1.00
O1431  O     0.89345   0.87291   0.50000   0.00000  Uiso   1.00
O1432  O     0.77321   0.79375   0.50000   0.00000  Uiso   1.00
C1433  C     0.75441   0.83333   0.50418   0.00000  Uiso   1.00
C1434  C     0.91226   0.83333   0.49582   0.00000  Uiso   1.00
O1435  O     0.83333   0.87292   0.42946   0.00000  Uiso   1.00
O1436  O     0.83333   0.79375   0.57054   0.00000  Uiso   1.00
O1437  O     0.83333   0.87292   0.57054   0.00000  Uiso   1.00
O1438  O     0.83333   0.79375   0.42946   0.00000  Uiso   1.00
C1439  C     0.83322   0.83333   0.40691   0.00000  Uiso   1.00
C1440  C     0.83345   0.83333   0.59309   0.00000  Uiso   1.00
Cu1441 Cu    0.83333   0.88022   0.50000   0.00000  Uiso   1.00
Cu1442 Cu    0.83333   0.78645   0.50000   0.00000  Uiso   1.00
C1443  C     0.83333   0.83333   0.35510   0.00000  Uiso   1.00
C1444  C     0.83334   0.83333   0.64490   0.00000  Uiso   1.00
C1445  C     0.68761   0.79131   0.50942   0.00000  Uiso   1.00
C1446  C     0.97906   0.87536   0.49058   0.00000  Uiso   1.00
C1447  C     0.97906   0.79131   0.49059   0.00000  Uiso   1.00
C1448  C     0.68761   0.87536   0.50941   0.00000  Uiso   1.00
C1449  C     0.95712   0.83333   0.49029   0.00000  Uiso   1.00
C1450  C     0.70955   0.83333   0.50971   0.00000  Uiso   1.00
C1451  C     0.80898   0.69131   0.46539   0.00000  Uiso   1.00
C1452  C     0.85769   0.97535   0.53461   0.00000  Uiso   1.00
C1453  C     0.85769   0.69131   0.53462   0.00000  Uiso   1.00
C1454  C     0.80898   0.97535   0.46538   0.00000  Uiso   1.00
N1455  N     0.83333   0.95069   0.50000   0.00000  Uiso   1.00
N1456  N     0.83333   0.71598   0.50000   0.00000  Uiso   1.00
N1457  N     0.70512   0.75256   0.53761   0.00000  Uiso   1.00
O1458  O     0.68414   0.71510   0.54222   0.00000  Uiso   1.00
O1459  O     0.73761   0.75856   0.56825   0.00000  Uiso   1.00
N1460  N     0.96154   0.91410   0.46239   0.00000  Uiso   1.00
O1461  O     0.92906   0.90810   0.43175   0.00000  Uiso   1.00
O1462  O     0.98252   0.95157   0.45778   0.00000  Uiso   1.00
N1463  N     0.96155   0.75256   0.46240   0.00000  Uiso   1.00
O1464  O     0.92906   0.75855   0.43175   0.00000  Uiso   1.00
O1465  O     0.98252   0.71509   0.45780   0.00000  Uiso   1.00
N1466  N     0.70512   0.91410   0.53760   0.00000  Uiso   1.00
O1467  O     0.73761   0.90811   0.56825   0.00000  Uiso   1.00
O1468  O     0.68415   0.95158   0.54220   0.00000  Uiso   1.00
C1469  C     0.78290   0.71530   0.42618   0.00000  Uiso   1.00
C1470  C     0.79696   0.72093   0.38060   0.00000  Uiso   1.00
C1471  C     0.77256   0.74338   0.34336   0.00000  Uiso   1.00
C1472  C     0.73333   0.75887   0.35073   0.00000  Uiso   1.00
C1473  C     0.71789   0.75009   0.39474   0.00000  Uiso   1.00
C1474  C     0.74219   0.72699   0.43179   0.00000  Uiso   1.00
H1475  H     0.82721   0.70882   0.37476   0.00000  Uiso   1.00
H1476  H     0.78446   0.74967   0.64258   0.00000  Uiso   1.00
H1477  H     0.71469   0.77714   0.65564   0.00000  Uiso   1.00
H1478  H     0.68717   0.76130   0.39979   0.00000  Uiso   1.00
H1479  H     0.72970   0.71810   0.46486   0.00000  Uiso   1.00
C1480  C     0.88377   0.95136   0.57382   0.00000  Uiso   1.00
C1481  C     0.92448   0.93968   0.56821   0.00000  Uiso   1.00
C1482  C     0.94878   0.91659   0.60526   0.00000  Uiso   1.00
C1483  C     0.93334   0.90780   0.64926   0.00000  Uiso   1.00
C1484  C     0.89410   0.92329   0.65664   0.00000  Uiso   1.00
C1485  C     0.86970   0.94573   0.61939   0.00000  Uiso   1.00
H1486  H     0.93697   0.94858   0.53514   0.00000  Uiso   1.00
H1487  H     0.97950   0.90538   0.60021   0.00000  Uiso   1.00
H1488  H     0.95199   0.88953   0.34436   0.00000  Uiso   1.00
H1489  H     0.88221   0.91699   0.35742   0.00000  Uiso   1.00
H1490  H     0.83945   0.95784   0.62523   0.00000  Uiso   1.00
C1491  C     0.88377   0.71530   0.57383   0.00000  Uiso   1.00
C1492  C     0.92447   0.72699   0.56821   0.00000  Uiso   1.00
C1493  C     0.94877   0.75010   0.60526   0.00000  Uiso   1.00
C1494  C     0.93333   0.75887   0.64927   0.00000  Uiso   1.00
C1495  C     0.89410   0.74338   0.65665   0.00000  Uiso   1.00
C1496  C     0.86970   0.72093   0.61940   0.00000  Uiso   1.00
H1497  H     0.93696   0.71810   0.53514   0.00000  Uiso   1.00
H1498  H     0.97949   0.76131   0.60021   0.00000  Uiso   1.00
H1499  H     0.95197   0.77715   0.34437   0.00000  Uiso   1.00
H1500  H     0.88220   0.74967   0.35743   0.00000  Uiso   1.00
H1501  H     0.83945   0.70881   0.62524   0.00000  Uiso   1.00
C1502  C     0.78290   0.95136   0.42617   0.00000  Uiso   1.00
C1503  C     0.79697   0.94573   0.38060   0.00000  Uiso   1.00
C1504  C     0.77257   0.92328   0.34336   0.00000  Uiso   1.00
C1505  C     0.73333   0.90779   0.35073   0.00000  Uiso   1.00
C1506  C     0.71789   0.91657   0.39474   0.00000  Uiso   1.00
C1507  C     0.74219   0.93968   0.43179   0.00000  Uiso   1.00
H1508  H     0.82722   0.95785   0.37476   0.00000  Uiso   1.00
H1509  H     0.78447   0.91699   0.64258   0.00000  Uiso   1.00
H1510  H     0.71469   0.88952   0.65564   0.00000  Uiso   1.00
H1511  H     0.68717   0.90536   0.39979   0.00000  Uiso   1.00
H1512  H     0.72970   0.94857   0.46486   0.00000  Uiso   1.00
O1513  O     0.10655   0.20625   0.83333   0.00000  Uiso   1.00
O1514  O     0.22679   0.12709   0.83334   0.00000  Uiso   1.00
O1515  O     0.22679   0.20625   0.83334   0.00000  Uiso   1.00
O1516  O     0.10655   0.12709   0.83333   0.00000  Uiso   1.00
C1517  C     0.08774   0.16667   0.83752   0.00000  Uiso   1.00
C1518  C     0.24559   0.16667   0.82915   0.00000  Uiso   1.00
O1519  O     0.16667   0.20625   0.76280   0.00000  Uiso   1.00
O1520  O     0.16667   0.12708   0.90387   0.00000  Uiso   1.00
O1521  O     0.16667   0.20625   0.90387   0.00000  Uiso   1.00
O1522  O     0.16667   0.12708   0.76280   0.00000  Uiso   1.00
C1523  C     0.16655   0.16667   0.74024   0.00000  Uiso   1.00
C1524  C     0.16678   0.16667   0.92642   0.00000  Uiso   1.00
Cu1525 Cu    0.16667   0.21355   0.83333   0.00000  Uiso   1.00
Cu1526 Cu    0.16667   0.11978   0.83333   0.00000  Uiso   1.00
C1527  C     0.16666   0.16667   0.68844   0.00000  Uiso   1.00
C1528  C     0.16667   0.16667   0.97823   0.00000  Uiso   1.00
C1529  C     0.02094   0.12464   0.84275   0.00000  Uiso   1.00
C1530  C     0.31239   0.20869   0.82392   0.00000  Uiso   1.00
C1531  C     0.31239   0.12464   0.82392   0.00000  Uiso   1.00
C1532  C     0.02094   0.20869   0.84275   0.00000  Uiso   1.00
C1533  C     0.29045   0.16667   0.82363   0.00000  Uiso   1.00
C1534  C     0.04288   0.16667   0.84304   0.00000  Uiso   1.00
C1535  C     0.14231   0.02465   0.79872   0.00000  Uiso   1.00
C1536  C     0.19102   0.30869   0.86795   0.00000  Uiso   1.00
C1537  C     0.19102   0.02465   0.86795   0.00000  Uiso   1.00
C1538  C     0.14231   0.30868   0.79872   0.00000  Uiso   1.00
N1539  N     0.16667   0.28402   0.83333   0.00000  Uiso   1.00
N1540  N     0.16667   0.04931   0.83333   0.00000  Uiso   1.00
N1541  N     0.03845   0.08590   0.87094   0.00000  Uiso   1.00
O1542  O     0.01747   0.04843   0.87555   0.00000  Uiso   1.00
O1543  O     0.07095   0.09189   0.90158   0.00000  Uiso   1.00
N1544  N     0.29488   0.24743   0.79573   0.00000  Uiso   1.00
O1545  O     0.26239   0.24144   0.76508   0.00000  Uiso   1.00
O1546  O     0.31585   0.28491   0.79112   0.00000  Uiso   1.00
N1547  N     0.29488   0.08590   0.79573   0.00000  Uiso   1.00
O1548  O     0.26239   0.09189   0.76508   0.00000  Uiso   1.00
O1549  O     0.31586   0.04842   0.79113   0.00000  Uiso   1.00
N1550  N     0.03845   0.24744   0.87093   0.00000  Uiso   1.00
O1551  O     0.07094   0.24144   0.90159   0.00000  Uiso   1.00
O1552  O     0.01748   0.28492   0.87553   0.00000  Uiso   1.00
C1553  C     0.11623   0.04864   0.75951   0.00000  Uiso   1.00
C1554  C     0.13030   0.05427   0.71394   0.00000  Uiso   1.00
C1555  C     0.10590   0.07671   0.67669   0.00000  Uiso   1.00
C1556  C     0.06666   0.09220   0.68407   0.00000  Uiso   1.00
C1557  C     0.05122   0.08342   0.72807   0.00000  Uiso   1.00
C1558  C     0.07552   0.06032   0.76513   0.00000  Uiso   1.00
H1559  H     0.16055   0.04215   0.70810   0.00000  Uiso   1.00
H1560  H     0.11780   0.08301   0.97591   0.00000  Uiso   1.00
H1561  H     0.04802   0.11047   0.98897   0.00000  Uiso   1.00
H1562  H     0.02050   0.09463   0.73312   0.00000  Uiso   1.00
H1563  H     0.06304   0.05143   0.79819   0.00000  Uiso   1.00
C1564  C     0.21710   0.28470   0.90716   0.00000  Uiso   1.00
C1565  C     0.25781   0.27302   0.90154   0.00000  Uiso   1.00
C1566  C     0.28211   0.24992   0.93859   0.00000  Uiso   1.00
C1567  C     0.26668   0.24114   0.98260   0.00000  Uiso   1.00
C1568  C     0.22744   0.25662   0.98997   0.00000  Uiso   1.00
C1569  C     0.20304   0.27906   0.95273   0.00000  Uiso   1.00
H1570  H     0.27030   0.28191   0.86847   0.00000  Uiso   1.00
H1571  H     0.31284   0.23872   0.93355   0.00000  Uiso   1.00
H1572  H     0.28532   0.22286   0.67770   0.00000  Uiso   1.00
H1573  H     0.21554   0.25032   0.69075   0.00000  Uiso   1.00
H1574  H     0.17278   0.29117   0.95857   0.00000  Uiso   1.00
C1575  C     0.21710   0.04864   0.90716   0.00000  Uiso   1.00
C1576  C     0.25781   0.06033   0.90154   0.00000  Uiso   1.00
C1577  C     0.28210   0.08343   0.93860   0.00000  Uiso   1.00
C1578  C     0.26667   0.09221   0.98260   0.00000  Uiso   1.00
C1579  C     0.22743   0.07671   0.98998   0.00000  Uiso   1.00
C1580  C     0.20303   0.05427   0.95273   0.00000  Uiso   1.00
H1581  H     0.27030   0.05144   0.86848   0.00000  Uiso   1.00
H1582  H     0.31282   0.09465   0.93355   0.00000  Uiso   1.00
H1583  H     0.28531   0.11048   0.67770   0.00000  Uiso   1.00
H1584  H     0.21553   0.08301   0.69076   0.00000  Uiso   1.00
H1585  H     0.17278   0.04215   0.95857   0.00000  Uiso   1.00
C1586  C     0.11623   0.28470   0.75951   0.00000  Uiso   1.00
C1587  C     0.13030   0.27906   0.71394   0.00000  Uiso   1.00
C1588  C     0.10590   0.25662   0.67669   0.00000  Uiso   1.00
C1589  C     0.06666   0.24113   0.68407   0.00000  Uiso   1.00
C1590  C     0.05123   0.24991   0.72807   0.00000  Uiso   1.00
C1591  C     0.07552   0.27301   0.76512   0.00000  Uiso   1.00
H1592  H     0.16055   0.29118   0.70810   0.00000  Uiso   1.00
H1593  H     0.11780   0.25032   0.97591   0.00000  Uiso   1.00
H1594  H     0.04802   0.22285   0.98897   0.00000  Uiso   1.00
H1595  H     0.02051   0.23870   0.73312   0.00000  Uiso   1.00
H1596  H     0.06304   0.28190   0.79819   0.00000  Uiso   1.00
O1597  O     0.43988   0.20625   0.83333   0.00000  Uiso   1.00
O1598  O     0.56012   0.12709   0.83334   0.00000  Uiso   1.00
O1599  O     0.56012   0.20625   0.83334   0.00000  Uiso   1.00
O1600  O     0.43988   0.12709   0.83333   0.00000  Uiso   1.00
C1601  C     0.42107   0.16667   0.83752   0.00000  Uiso   1.00
C1602  C     0.57893   0.16667   0.82915   0.00000  Uiso   1.00
O1603  O     0.50000   0.20625   0.76280   0.00000  Uiso   1.00
O1604  O     0.50000   0.12708   0.90387   0.00000  Uiso   1.00
O1605  O     0.50000   0.20625   0.90387   0.00000  Uiso   1.00
O1606  O     0.50000   0.12708   0.76280   0.00000  Uiso   1.00
C1607  C     0.49988   0.16667   0.74024   0.00000  Uiso   1.00
C1608  C     0.50012   0.16667   0.92642   0.00000  Uiso   1.00
Cu1609 Cu    0.50000   0.21355   0.83333   0.00000  Uiso   1.00
Cu1610 Cu    0.50000   0.11978   0.83333   0.00000  Uiso   1.00
C1611  C     0.50000   0.16667   0.68844   0.00000  Uiso   1.00
C1612  C     0.50000   0.16667   0.97823   0.00000  Uiso   1.00
C1613  C     0.35428   0.12464   0.84275   0.00000  Uiso   1.00
C1614  C     0.64572   0.20869   0.82392   0.00000  Uiso   1.00
C1615  C     0.64572   0.12464   0.82392   0.00000  Uiso   1.00
C1616  C     0.35428   0.20869   0.84275   0.00000  Uiso   1.00
C1617  C     0.62378   0.16667   0.82363   0.00000  Uiso   1.00
C1618  C     0.37622   0.16667   0.84304   0.00000  Uiso   1.00
C1619  C     0.47564   0.02465   0.79872   0.00000  Uiso   1.00
C1620  C     0.52436   0.30869   0.86795   0.00000  Uiso   1.00
C1621  C     0.52436   0.02465   0.86795   0.00000  Uiso   1.00
C1622  C     0.47564   0.30868   0.79872   0.00000  Uiso   1.00
N1623  N     0.50000   0.28402   0.83333   0.00000  Uiso   1.00
N1624  N     0.50000   0.04931   0.83333   0.00000  Uiso   1.00
N1625  N     0.37179   0.08590   0.87094   0.00000  Uiso   1.00
O1626  O     0.35081   0.04843   0.87555   0.00000  Uiso   1.00
O1627  O     0.40428   0.09189   0.90158   0.00000  Uiso   1.00
N1628  N     0.62821   0.24743   0.79573   0.00000  Uiso   1.00
O1629  O     0.59572   0.24144   0.76508   0.00000  Uiso   1.00
O1630  O     0.64919   0.28491   0.79112   0.00000  Uiso   1.00
N1631  N     0.62821   0.08590   0.79573   0.00000  Uiso   1.00
O1632  O     0.59573   0.09189   0.76508   0.00000  Uiso   1.00
O1633  O     0.64919   0.04842   0.79113   0.00000  Uiso   1.00
N1634  N     0.37179   0.24744   0.87093   0.00000  Uiso   1.00
O1635  O     0.40427   0.24144   0.90159   0.00000  Uiso   1.00
O1636  O     0.35082   0.28492   0.87553   0.00000  Uiso   1.00
C1637  C     0.44956   0.04864   0.75951   0.00000  Uiso   1.00
C1638  C     0.46363   0.05427   0.71394   0.00000  Uiso   1.00
C1639  C     0.43923   0.07671   0.67669   0.00000  Uiso   1.00
C1640  C     0.39999   0.09220   0.68407   0.00000  Uiso   1.00
C1641  C     0.38456   0.08342   0.72807   0.00000  Uiso   1.00
C1642  C     0.40886   0.06032   0.76513   0.00000  Uiso   1.00
H1643  H     0.49388   0.04215   0.70810   0.00000  Uiso   1.00
H1644  H     0.45113   0.08301   0.97591   0.00000  Uiso   1.00
H1645  H     0.38135   0.11047   0.98897   0.00000  Uiso   1.00
H1646  H     0.35384   0.09463   0.73312   0.00000  Uiso   1.00
H1647  H     0.39637   0.05143   0.79819   0.00000  Uiso   1.00
C1648  C     0.55044   0.28470   0.90716   0.00000  Uiso   1.00
C1649  C     0.59115   0.27302   0.90154   0.00000  Uiso   1.00
C1650  C     0.61545   0.24992   0.93859   0.00000  Uiso   1.00
C1651  C     0.60001   0.24114   0.98260   0.00000  Uiso   1.00
C1652  C     0.56077   0.25662   0.98997   0.00000  Uiso   1.00
C1653  C     0.53637   0.27906   0.95273   0.00000  Uiso   1.00
H1654  H     0.60363   0.28191   0.86847   0.00000  Uiso   1.00
H1655  H     0.64617   0.23872   0.93355   0.00000  Uiso   1.00
H1656  H     0.61865   0.22286   0.67770   0.00000  Uiso   1.00
H1657  H     0.54887   0.25032   0.69075   0.00000  Uiso   1.00
H1658  H     0.50612   0.29117   0.95857   0.00000  Uiso   1.00
C1659  C     0.55043   0.04864   0.90716   0.00000  Uiso   1.00
C1660  C     0.59114   0.06033   0.90154   0.00000  Uiso   1.00
C1661  C     0.61544   0.08343   0.93860   0.00000  Uiso   1.00
C1662  C     0.60000   0.09221   0.98260   0.00000  Uiso   1.00
C1663  C     0.56076   0.07671   0.98998   0.00000  Uiso   1.00
C1664  C     0.53637   0.05427   0.95273   0.00000  Uiso   1.00
H1665  H     0.60363   0.05144   0.86848   0.00000  Uiso   1.00
H1666  H     0.64615   0.09465   0.93355   0.00000  Uiso   1.00
H1667  H     0.61864   0.11048   0.67770   0.00000  Uiso   1.00
H1668  H     0.54887   0.08301   0.69076   0.00000  Uiso   1.00
H1669  H     0.50612   0.04215   0.95857   0.00000  Uiso   1.00
C1670  C     0.44957   0.28470   0.75951   0.00000  Uiso   1.00
C1671  C     0.46363   0.27906   0.71394   0.00000  Uiso   1.00
C1672  C     0.43923   0.25662   0.67669   0.00000  Uiso   1.00
C1673  C     0.40000   0.24113   0.68407   0.00000  Uiso   1.00
C1674  C     0.38456   0.24991   0.72807   0.00000  Uiso   1.00
C1675  C     0.40886   0.27301   0.76512   0.00000  Uiso   1.00
H1676  H     0.49388   0.29118   0.70810   0.00000  Uiso   1.00
H1677  H     0.45113   0.25032   0.97591   0.00000  Uiso   1.00
H1678  H     0.38136   0.22285   0.98897   0.00000  Uiso   1.00
H1679  H     0.35384   0.23870   0.73312   0.00000  Uiso   1.00
H1680  H     0.39637   0.28190   0.79819   0.00000  Uiso   1.00
O1681  O     0.77321   0.20625   0.83333   0.00000  Uiso   1.00
O1682  O     0.89345   0.12709   0.83334   0.00000  Uiso   1.00
O1683  O     0.89345   0.20625   0.83334   0.00000  Uiso   1.00
O1684  O     0.77321   0.12709   0.83333   0.00000  Uiso   1.00
C1685  C     0.75441   0.16667   0.83752   0.00000  Uiso   1.00
C1686  C     0.91226   0.16667   0.82915   0.00000  Uiso   1.00
O1687  O     0.83333   0.20625   0.76280   0.00000  Uiso   1.00
O1688  O     0.83333   0.12708   0.90387   0.00000  Uiso   1.00
O1689  O     0.83333   0.20625   0.90387   0.00000  Uiso   1.00
O1690  O     0.83333   0.12708   0.76280   0.00000  Uiso   1.00
C1691  C     0.83322   0.16667   0.74024   0.00000  Uiso   1.00
C1692  C     0.83345   0.16667   0.92642   0.00000  Uiso   1.00
Cu1693 Cu    0.83333   0.21355   0.83333   0.00000  Uiso   1.00
Cu1694 Cu    0.83333   0.11978   0.83333   0.00000  Uiso   1.00
C1695  C     0.83333   0.16667   0.68844   0.00000  Uiso   1.00
C1696  C     0.83334   0.16667   0.97823   0.00000  Uiso   1.00
C1697  C     0.68761   0.12464   0.84275   0.00000  Uiso   1.00
C1698  C     0.97906   0.20869   0.82392   0.00000  Uiso   1.00
C1699  C     0.97906   0.12464   0.82392   0.00000  Uiso   1.00
C1700  C     0.68761   0.20869   0.84275   0.00000  Uiso   1.00
C1701  C     0.95712   0.16667   0.82363   0.00000  Uiso   1.00
C1702  C     0.70955   0.16667   0.84304   0.00000  Uiso   1.00
C1703  C     0.80898   0.02465   0.79872   0.00000  Uiso   1.00
C1704  C     0.85769   0.30869   0.86795   0.00000  Uiso   1.00
C1705  C     0.85769   0.02465   0.86795   0.00000  Uiso   1.00
C1706  C     0.80898   0.30868   0.79872   0.00000  Uiso   1.00
N1707  N     0.83333   0.28402   0.83333   0.00000  Uiso   1.00
N1708  N     0.83333   0.04931   0.83333   0.00000  Uiso   1.00
N1709  N     0.70512   0.08590   0.87094   0.00000  Uiso   1.00
O1710  O     0.68414   0.04843   0.87555   0.00000  Uiso   1.00
O1711  O     0.73761   0.09189   0.90158   0.00000  Uiso   1.00
N1712  N     0.96154   0.24743   0.79573   0.00000  Uiso   1.00
O1713  O     0.92906   0.24144   0.76508   0.00000  Uiso   1.00
O1714  O     0.98252   0.28491   0.79112   0.00000  Uiso   1.00
N1715  N     0.96155   0.08590   0.79573   0.00000  Uiso   1.00
O1716  O     0.92906   0.09189   0.76508   0.00000  Uiso   1.00
O1717  O     0.98252   0.04842   0.79113   0.00000  Uiso   1.00
N1718  N     0.70512   0.24744   0.87093   0.00000  Uiso   1.00
O1719  O     0.73761   0.24144   0.90159   0.00000  Uiso   1.00
O1720  O     0.68415   0.28492   0.87553   0.00000  Uiso   1.00
C1721  C     0.78290   0.04864   0.75951   0.00000  Uiso   1.00
C1722  C     0.79696   0.05427   0.71394   0.00000  Uiso   1.00
C1723  C     0.77256   0.07671   0.67669   0.00000  Uiso   1.00
C1724  C     0.73333   0.09220   0.68407   0.00000  Uiso   1.00
C1725  C     0.71789   0.08342   0.72807   0.00000  Uiso   1.00
C1726  C     0.74219   0.06032   0.76513   0.00000  Uiso   1.00
H1727  H     0.82721   0.04215   0.70810   0.00000  Uiso   1.00
H1728  H     0.78446   0.08301   0.97591   0.00000  Uiso   1.00
H1729  H     0.71469   0.11047   0.98897   0.00000  Uiso   1.00
H1730  H     0.68717   0.09463   0.73312   0.00000  Uiso   1.00
H1731  H     0.72970   0.05143   0.79819   0.00000  Uiso   1.00
C1732  C     0.88377   0.28470   0.90716   0.00000  Uiso   1.00
C1733  C     0.92448   0.27302   0.90154   0.00000  Uiso   1.00
C1734  C     0.94878   0.24992   0.93859   0.00000  Uiso   1.00
C1735  C     0.93334   0.24114   0.98260   0.00000  Uiso   1.00
C1736  C     0.89410   0.25662   0.98997   0.00000  Uiso   1.00
C1737  C     0.86970   0.27906   0.95273   0.00000  Uiso   1.00
H1738  H     0.93697   0.28191   0.86847   0.00000  Uiso   1.00
H1739  H     0.97950   0.23872   0.93355   0.00000  Uiso   1.00
H1740  H     0.95199   0.22286   0.67770   0.00000  Uiso   1.00
H1741  H     0.88221   0.25032   0.69075   0.00000  Uiso   1.00
H1742  H     0.83945   0.29117   0.95857   0.00000  Uiso   1.00
C1743  C     0.88377   0.04864   0.90716   0.00000  Uiso   1.00
C1744  C     0.92447   0.06033   0.90154   0.00000  Uiso   1.00
C1745  C     0.94877   0.08343   0.93860   0.00000  Uiso   1.00
C1746  C     0.93333   0.09221   0.98260   0.00000  Uiso   1.00
C1747  C     0.89410   0.07671   0.98998   0.00000  Uiso   1.00
C1748  C     0.86970   0.05427   0.95273   0.00000  Uiso   1.00
H1749  H     0.93696   0.05144   0.86848   0.00000  Uiso   1.00
H1750  H     0.97949   0.09465   0.93355   0.00000  Uiso   1.00
H1751  H     0.95197   0.11048   0.67770   0.00000  Uiso   1.00
H1752  H     0.88220   0.08301   0.69076   0.00000  Uiso   1.00
H1753  H     0.83945   0.04215   0.95857   0.00000  Uiso   1.00
C1754  C     0.78290   0.28470   0.75951   0.00000  Uiso   1.00
C1755  C     0.79697   0.27906   0.71394   0.00000  Uiso   1.00
C1756  C     0.77257   0.25662   0.67669   0.00000  Uiso   1.00
C1757  C     0.73333   0.24113   0.68407   0.00000  Uiso   1.00
C1758  C     0.71789   0.24991   0.72807   0.00000  Uiso   1.00
C1759  C     0.74219   0.27301   0.76512   0.00000  Uiso   1.00
H1760  H     0.82722   0.29118   0.70810   0.00000  Uiso   1.00
H1761  H     0.78447   0.25032   0.97591   0.00000  Uiso   1.00
H1762  H     0.71469   0.22285   0.98897   0.00000  Uiso   1.00
H1763  H     0.68717   0.23870   0.73312   0.00000  Uiso   1.00
H1764  H     0.72970   0.28190   0.79819   0.00000  Uiso   1.00
O1765  O     0.10655   0.53958   0.83333   0.00000  Uiso   1.00
O1766  O     0.22679   0.46042   0.83334   0.00000  Uiso   1.00
O1767  O     0.22679   0.53958   0.83334   0.00000  Uiso   1.00
O1768  O     0.10655   0.46042   0.83333   0.00000  Uiso   1.00
C1769  C     0.08774   0.50000   0.83752   0.00000  Uiso   1.00
C1770  C     0.24559   0.50000   0.82915   0.00000  Uiso   1.00
O1771  O     0.16667   0.53959   0.76280   0.00000  Uiso   1.00
O1772  O     0.16667   0.46041   0.90387   0.00000  Uiso   1.00
O1773  O     0.16667   0.53959   0.90387   0.00000  Uiso   1.00
O1774  O     0.16667   0.46041   0.76280   0.00000  Uiso   1.00
C1775  C     0.16655   0.50000   0.74024   0.00000  Uiso   1.00
C1776  C     0.16678   0.50000   0.92642   0.00000  Uiso   1.00
Cu1777 Cu    0.16667   0.54689   0.83333   0.00000  Uiso   1.00
Cu1778 Cu    0.16667   0.45311   0.83333   0.00000  Uiso   1.00
C1779  C     0.16666   0.50000   0.68844   0.00000  Uiso   1.00
C1780  C     0.16667   0.50000   0.97823   0.00000  Uiso   1.00
C1781  C     0.02094   0.45797   0.84275   0.00000  Uiso   1.00
C1782  C     0.31239   0.54203   0.82392   0.00000  Uiso   1.00
C1783  C     0.31239   0.45797   0.82392   0.00000  Uiso   1.00
C1784  C     0.02094   0.54203   0.84275   0.00000  Uiso   1.00
C1785  C     0.29045   0.50000   0.82363   0.00000  Uiso   1.00
C1786  C     0.04288   0.50000   0.84304   0.00000  Uiso   1.00
C1787  C     0.14231   0.35798   0.79872   0.00000  Uiso   1.00
C1788  C     0.19102   0.64202   0.86795   0.00000  Uiso   1.00
C1789  C     0.19102   0.35798   0.86795   0.00000  Uiso   1.00
C1790  C     0.14231   0.64202   0.79872   0.00000  Uiso   1.00
N1791  N     0.16667   0.61736   0.83333   0.00000  Uiso   1.00
N1792  N     0.16667   0.38264   0.83333   0.00000  Uiso   1.00
N1793  N     0.03845   0.41923   0.87094   0.00000  Uiso   1.00
O1794  O     0.01747   0.38176   0.87555   0.00000  Uiso   1.00
O1795  O     0.07095   0.42522   0.90158   0.00000  Uiso   1.00
N1796  N     0.29488   0.58077   0.79573   0.00000  Uiso   1.00
O1797  O     0.26239   0.57477   0.76508   0.00000  Uiso   1.00
O1798  O     0.31585   0.61824   0.79112   0.00000  Uiso   1.00
N1799  N     0.29488   0.41923   0.79573   0.00000  Uiso   1.00
O1800  O     0.26239   0.42522   0.76508   0.00000  Uiso   1.00
O1801  O     0.31586   0.38176   0.79113   0.00000  Uiso   1.00
N1802  N     0.03845   0.58077   0.87093   0.00000  Uiso   1.00
O1803  O     0.07094   0.57477   0.90159   0.00000  Uiso   1.00
O1804  O     0.01748   0.61825   0.87553   0.00000  Uiso   1.00
C1805  C     0.11623   0.38197   0.75951   0.00000  Uiso   1.00
C1806  C     0.13030   0.38760   0.71394   0.00000  Uiso   1.00
C1807  C     0.10590   0.41005   0.67669   0.00000  Uiso   1.00
C1808  C     0.06666   0.42553   0.68407   0.00000  Uiso   1.00
C1809  C     0.05122   0.41676   0.72807   0.00000  Uiso   1.00
C1810  C     0.07552   0.39366   0.76513   0.00000  Uiso   1.00
H1811  H     0.16055   0.37548   0.70810   0.00000  Uiso   1.00
H1812  H     0.11780   0.41634   0.97591   0.00000  Uiso   1.00
H1813  H     0.04802   0.44381   0.98897   0.00000  Uiso   1.00
H1814  H     0.02050   0.42797   0.73312   0.00000  Uiso   1.00
H1815  H     0.06304   0.38476   0.79819   0.00000  Uiso   1.00
C1816  C     0.21710   0.61803   0.90716   0.00000  Uiso   1.00
C1817  C     0.25781   0.60635   0.90154   0.00000  Uiso   1.00
C1818  C     0.28211   0.58325   0.93859   0.00000  Uiso   1.00
C1819  C     0.26668   0.57447   0.98260   0.00000  Uiso   1.00
C1820  C     0.22744   0.58995   0.98997   0.00000  Uiso   1.00
C1821  C     0.20304   0.61240   0.95273   0.00000  Uiso   1.00
H1822  H     0.27030   0.61524   0.86847   0.00000  Uiso   1.00
H1823  H     0.31284   0.57205   0.93355   0.00000  Uiso   1.00
H1824  H     0.28532   0.55620   0.67770   0.00000  Uiso   1.00
H1825  H     0.21554   0.58365   0.69075   0.00000  Uiso   1.00
H1826  H     0.17278   0.62451   0.95857   0.00000  Uiso   1.00
C1827  C     0.21710   0.38197   0.90716   0.00000  Uiso   1.00
C1828  C     0.25781   0.39366   0.90154   0.00000  Uiso   1.00
C1829  C     0.28210   0.41676   0.93860   0.00000  Uiso   1.00
C1830  C     0.26667   0.42554   0.98260   0.00000  Uiso   1.00
C1831  C     0.22743   0.41005   0.98998   0.00000  Uiso   1.00
C1832  C     0.20303   0.38760   0.95273   0.00000  Uiso   1.00
H1833  H     0.27030   0.38477   0.86848   0.00000  Uiso   1.00
H1834  H     0.31282   0.42798   0.93355   0.00000  Uiso   1.00
H1835  H     0.28531   0.44382   0.67770   0.00000  Uiso   1.00
H1836  H     0.21553   0.41634   0.69076   0.00000  Uiso   1.00
H1837  H     0.17278   0.37548   0.95857   0.00000  Uiso   1.00
C1838  C     0.11623   0.61803   0.75951   0.00000  Uiso   1.00
C1839  C     0.13030   0.61240   0.71394   0.00000  Uiso   1.00
C1840  C     0.10590   0.58995   0.67669   0.00000  Uiso   1.00
C1841  C     0.06666   0.57446   0.68407   0.00000  Uiso   1.00
C1842  C     0.05123   0.58324   0.72807   0.00000  Uiso   1.00
C1843  C     0.07552   0.60634   0.76512   0.00000  Uiso   1.00
H1844  H     0.16055   0.62451   0.70810   0.00000  Uiso   1.00
H1845  H     0.11780   0.58365   0.97591   0.00000  Uiso   1.00
H1846  H     0.04802   0.55618   0.98897   0.00000  Uiso   1.00
H1847  H     0.02051   0.57203   0.73312   0.00000  Uiso   1.00
H1848  H     0.06304   0.61524   0.79819   0.00000  Uiso   1.00
O1849  O     0.43988   0.53958   0.83333   0.00000  Uiso   1.00
O1850  O     0.56012   0.46042   0.83334   0.00000  Uiso   1.00
O1851  O     0.56012   0.53958   0.83334   0.00000  Uiso   1.00
O1852  O     0.43988   0.46042   0.83333   0.00000  Uiso   1.00
C1853  C     0.42107   0.50000   0.83752   0.00000  Uiso   1.00
C1854  C     0.57893   0.50000   0.82915   0.00000  Uiso   1.00
O1855  O     0.50000   0.53959   0.76280   0.00000  Uiso   1.00
O1856  O     0.50000   0.46041   0.90387   0.00000  Uiso   1.00
O1857  O     0.50000   0.53959   0.90387   0.00000  Uiso   1.00
O1858  O     0.50000   0.46041   0.76280   0.00000  Uiso   1.00
C1859  C     0.49988   0.50000   0.74024   0.00000  Uiso   1.00
C1860  C     0.50012   0.50000   0.92642   0.00000  Uiso   1.00
Cu1861 Cu    0.50000   0.54689   0.83333   0.00000  Uiso   1.00
Cu1862 Cu    0.50000   0.45311   0.83333   0.00000  Uiso   1.00
C1863  C     0.50000   0.50000   0.68844   0.00000  Uiso   1.00
C1864  C     0.50000   0.50000   0.97823   0.00000  Uiso   1.00
C1865  C     0.35428   0.45797   0.84275   0.00000  Uiso   1.00
C1866  C     0.64572   0.54203   0.82392   0.00000  Uiso   1.00
C1867  C     0.64572   0.45797   0.82392   0.00000  Uiso   1.00
C1868  C     0.35428   0.54203   0.84275   0.00000  Uiso   1.00
C1869  C     0.62378   0.50000   0.82363   0.00000  Uiso   1.00
C1870  C     0.37622   0.50000   0.84304   0.00000  Uiso   1.00
C1871  C     0.47564   0.35798   0.79872   0.00000  Uiso   1.00
C1872  C     0.52436   0.64202   0.86795   0.00000  Uiso   1.00
C1873  C     0.52436   0.35798   0.86795   0.00000  Uiso   1.00
C1874  C     0.47564   0.64202   0.79872   0.00000  Uiso   1.00
N1875  N     0.50000   0.61736   0.83333   0.00000  Uiso   1.00
N1876  N     0.50000   0.38264   0.83333   0.00000  Uiso   1.00
N1877  N     0.37179   0.41923   0.87094   0.00000  Uiso   1.00
O1878  O     0.35081   0.38176   0.87555   0.00000  Uiso   1.00
O1879  O     0.40428   0.42522   0.90158   0.00000  Uiso   1.00
N1880  N     0.62821   0.58077   0.79573   0.00000  Uiso   1.00
O1881  O     0.59572   0.57477   0.76508   0.00000  Uiso   1.00
O1882  O     0.64919   0.61824   0.79112   0.00000  Uiso   1.00
N1883  N     0.62821   0.41923   0.79573   0.00000  Uiso   1.00
O1884  O     0.59573   0.42522   0.76508   0.00000  Uiso   1.00
O1885  O     0.64919   0.38176   0.79113   0.00000  Uiso   1.00
N1886  N     0.37179   0.58077   0.87093   0.00000  Uiso   1.00
O1887  O     0.40427   0.57477   0.90159   0.00000  Uiso   1.00
O1888  O     0.35082   0.61825   0.87553   0.00000  Uiso   1.00
C1889  C     0.44956   0.38197   0.75951   0.00000  Uiso   1.00
C1890  C     0.46363   0.38760   0.71394   0.00000  Uiso   1.00
C1891  C     0.43923   0.41005   0.67669   0.00000  Uiso   1.00
C1892  C     0.39999   0.42553   0.68407   0.00000  Uiso   1.00
C1893  C     0.38456   0.41676   0.72807   0.00000  Uiso   1.00
C1894  C     0.40886   0.39366   0.76513   0.00000  Uiso   1.00
H1895  H     0.49388   0.37548   0.70810   0.00000  Uiso   1.00
H1896  H     0.45113   0.41634   0.97591   0.00000  Uiso   1.00
H1897  H     0.38135   0.44381   0.98897   0.00000  Uiso   1.00
H1898  H     0.35384   0.42797   0.73312   0.00000  Uiso   1.00
H1899  H     0.39637   0.38476   0.79819   0.00000  Uiso   1.00
C1900  C     0.55044   0.61803   0.90716   0.00000  Uiso   1.00
C1901  C     0.59115   0.60635   0.90154   0.00000  Uiso   1.00
C1902  C     0.61545   0.58325   0.93859   0.00000  Uiso   1.00
C1903  C     0.60001   0.57447   0.98260   0.00000  Uiso   1.00
C1904  C     0.56077   0.58995   0.98997   0.00000  Uiso   1.00
C1905  C     0.53637   0.61240   0.95273   0.00000  Uiso   1.00
H1906  H     0.60363   0.61524   0.86847   0.00000  Uiso   1.00
H1907  H     0.64617   0.57205   0.93355   0.00000  Uiso   1.00
H1908  H     0.61865   0.55620   0.67770   0.00000  Uiso   1.00
H1909  H     0.54887   0.58365   0.69075   0.00000  Uiso   1.00
H1910  H     0.50612   0.62451   0.95857   0.00000  Uiso   1.00
C1911  C     0.55043   0.38197   0.90716   0.00000  Uiso   1.00
C1912  C     0.59114   0.39366   0.90154   0.00000  Uiso   1.00
C1913  C     0.61544   0.41676   0.93860   0.00000  Uiso   1.00
C1914  C     0.60000   0.42554   0.98260   0.00000  Uiso   1.00
C1915  C     0.56076   0.41005   0.98998   0.00000  Uiso   1.00
C1916  C     0.53637   0.38760   0.95273   0.00000  Uiso   1.00
H1917  H     0.60363   0.38477   0.86848   0.00000  Uiso   1.00
H1918  H     0.64615   0.42798   0.93355   0.00000  Uiso   1.00
H1919  H     0.61864   0.44382   0.67770   0.00000  Uiso   1.00
H1920  H     0.54887   0.41634   0.69076   0.00000  Uiso   1.00
H1921  H     0.50612   0.37548   0.95857   0.00000  Uiso   1.00
C1922  C     0.44957   0.61803   0.75951   0.00000  Uiso   1.00
C1923  C     0.46363   0.61240   0.71394   0.00000  Uiso   1.00
C1924  C     0.43923   0.58995   0.67669   0.00000  Uiso   1.00
C1925  C     0.40000   0.57446   0.68407   0.00000  Uiso   1.00
C1926  C     0.38456   0.58324   0.72807   0.00000  Uiso   1.00
C1927  C     0.40886   0.60634   0.76512   0.00000  Uiso   1.00
H1928  H     0.49388   0.62451   0.70810   0.00000  Uiso   1.00
H1929  H     0.45113   0.58365   0.97591   0.00000  Uiso   1.00
H1930  H     0.38136   0.55618   0.98897   0.00000  Uiso   1.00
H1931  H     0.35384   0.57203   0.73312   0.00000  Uiso   1.00
H1932  H     0.39637   0.61524   0.79819   0.00000  Uiso   1.00
O1933  O     0.77321   0.53958   0.83333   0.00000  Uiso   1.00
O1934  O     0.89345   0.46042   0.83334   0.00000  Uiso   1.00
O1935  O     0.89345   0.53958   0.83334   0.00000  Uiso   1.00
O1936  O     0.77321   0.46042   0.83333   0.00000  Uiso   1.00
C1937  C     0.75441   0.50000   0.83752   0.00000  Uiso   1.00
C1938  C     0.91226   0.50000   0.82915   0.00000  Uiso   1.00
O1939  O     0.83333   0.53959   0.76280   0.00000  Uiso   1.00
O1940  O     0.83333   0.46041   0.90387   0.00000  Uiso   1.00
O1941  O     0.83333   0.53959   0.90387   0.00000  Uiso   1.00
O1942  O     0.83333   0.46041   0.76280   0.00000  Uiso   1.00
C1943  C     0.83322   0.50000   0.74024   0.00000  Uiso   1.00
C1944  C     0.83345   0.50000   0.92642   0.00000  Uiso   1.00
Cu1945 Cu    0.83333   0.54689   0.83333   0.00000  Uiso   1.00
Cu1946 Cu    0.83333   0.45311   0.83333   0.00000  Uiso   1.00
C1947  C     0.83333   0.50000   0.68844   0.00000  Uiso   1.00
C1948  C     0.83334   0.50000   0.97823   0.00000  Uiso   1.00
C1949  C     0.68761   0.45797   0.84275   0.00000  Uiso   1.00
C1950  C     0.97906   0.54203   0.82392   0.00000  Uiso   1.00
C1951  C     0.97906   0.45797   0.82392   0.00000  Uiso   1.00
C1952  C     0.68761   0.54203   0.84275   0.00000  Uiso   1.00
C1953  C     0.95712   0.50000   0.82363   0.00000  Uiso   1.00
C1954  C     0.70955   0.50000   0.84304   0.00000  Uiso   1.00
C1955  C     0.80898   0.35798   0.79872   0.00000  Uiso   1.00
C1956  C     0.85769   0.64202   0.86795   0.00000  Uiso   1.00
C1957  C     0.85769   0.35798   0.86795   0.00000  Uiso   1.00
C1958  C     0.80898   0.64202   0.79872   0.00000  Uiso   1.00
N1959  N     0.83333   0.61736   0.83333   0.00000  Uiso   1.00
N1960  N     0.83333   0.38264   0.83333   0.00000  Uiso   1.00
N1961  N     0.70512   0.41923   0.87094   0.00000  Uiso   1.00
O1962  O     0.68414   0.38176   0.87555   0.00000  Uiso   1.00
O1963  O     0.73761   0.42522   0.90158   0.00000  Uiso   1.00
N1964  N     0.96154   0.58077   0.79573   0.00000  Uiso   1.00
O1965  O     0.92906   0.57477   0.76508   0.00000  Uiso   1.00
O1966  O     0.98252   0.61824   0.79112   0.00000  Uiso   1.00
N1967  N     0.96155   0.41923   0.79573   0.00000  Uiso   1.00
O1968  O     0.92906   0.42522   0.76508   0.00000  Uiso   1.00
O1969  O     0.98252   0.38176   0.79113   0.00000  Uiso   1.00
N1970  N     0.70512   0.58077   0.87093   0.00000  Uiso   1.00
O1971  O     0.73761   0.57477   0.90159   0.00000  Uiso   1.00
O1972  O     0.68415   0.61825   0.87553   0.00000  Uiso   1.00
C1973  C     0.78290   0.38197   0.75951   0.00000  Uiso   1.00
C1974  C     0.79696   0.38760   0.71394   0.00000  Uiso   1.00
C1975  C     0.77256   0.41005   0.67669   0.00000  Uiso   1.00
C1976  C     0.73333   0.42553   0.68407   0.00000  Uiso   1.00
C1977  C     0.71789   0.41676   0.72807   0.00000  Uiso   1.00
C1978  C     0.74219   0.39366   0.76513   0.00000  Uiso   1.00
H1979  H     0.82721   0.37548   0.70810   0.00000  Uiso   1.00
H1980  H     0.78446   0.41634   0.97591   0.00000  Uiso   1.00
H1981  H     0.71469   0.44381   0.98897   0.00000  Uiso   1.00
H1982  H     0.68717   0.42797   0.73312   0.00000  Uiso   1.00
H1983  H     0.72970   0.38476   0.79819   0.00000  Uiso   1.00
C1984  C     0.88377   0.61803   0.90716   0.00000  Uiso   1.00
C1985  C     0.92448   0.60635   0.90154   0.00000  Uiso   1.00
C1986  C     0.94878   0.58325   0.93859   0.00000  Uiso   1.00
C1987  C     0.93334   0.57447   0.98260   0.00000  Uiso   1.00
C1988  C     0.89410   0.58995   0.98997   0.00000  Uiso   1.00
C1989  C     0.86970   0.61240   0.95273   0.00000  Uiso   1.00
H1990  H     0.93697   0.61524   0.86847   0.00000  Uiso   1.00
H1991  H     0.97950   0.57205   0.93355   0.00000  Uiso   1.00
H1992  H     0.95199   0.55620   0.67770   0.00000  Uiso   1.00
H1993  H     0.88221   0.58365   0.69075   0.00000  Uiso   1.00
H1994  H     0.83945   0.62451   0.95857   0.00000  Uiso   1.00
C1995  C     0.88377   0.38197   0.90716   0.00000  Uiso   1.00
C1996  C     0.92447   0.39366   0.90154   0.00000  Uiso   1.00
C1997  C     0.94877   0.41676   0.93860   0.00000  Uiso   1.00
C1998  C     0.93333   0.42554   0.98260   0.00000  Uiso   1.00
C1999  C     0.89410   0.41005   0.98998   0.00000  Uiso   1.00
C2000  C     0.86970   0.38760   0.95273   0.00000  Uiso   1.00
H2001  H     0.93696   0.38477   0.86848   0.00000  Uiso   1.00
H2002  H     0.97949   0.42798   0.93355   0.00000  Uiso   1.00
H2003  H     0.95197   0.44382   0.67770   0.00000  Uiso   1.00
H2004  H     0.88220   0.41634   0.69076   0.00000  Uiso   1.00
H2005  H     0.83945   0.37548   0.95857   0.00000  Uiso   1.00
C2006  C     0.78290   0.61803   0.75951   0.00000  Uiso   1.00
C2007  C     0.79697   0.61240   0.71394   0.00000  Uiso   1.00
C2008  C     0.77257   0.58995   0.67669   0.00000  Uiso   1.00
C2009  C     0.73333   0.57446   0.68407   0.00000  Uiso   1.00
C2010  C     0.71789   0.58324   0.72807   0.00000  Uiso   1.00
C2011  C     0.74219   0.60634   0.76512   0.00000  Uiso   1.00
H2012  H     0.82722   0.62451   0.70810   0.00000  Uiso   1.00
H2013  H     0.78447   0.58365   0.97591   0.00000  Uiso   1.00
H2014  H     0.71469   0.55618   0.98897   0.00000  Uiso   1.00
H2015  H     0.68717   0.57203   0.73312   0.00000  Uiso   1.00
H2016  H     0.72970   0.61524   0.79819   0.00000  Uiso   1.00
O2017  O     0.10655   0.87291   0.83333   0.00000  Uiso   1.00
O2018  O     0.22679   0.79375   0.83334   0.00000  Uiso   1.00
O2019  O     0.22679   0.87291   0.83334   0.00000  Uiso   1.00
O2020  O     0.10655   0.79375   0.83333   0.00000  Uiso   1.00
C2021  C     0.08774   0.83333   0.83752   0.00000  Uiso   1.00
C2022  C     0.24559   0.83333   0.82915   0.00000  Uiso   1.00
O2023  O     0.16667   0.87292   0.76280   0.00000  Uiso   1.00
O2024  O     0.16667   0.79375   0.90387   0.00000  Uiso   1.00
O2025  O     0.16667   0.87292   0.90387   0.00000  Uiso   1.00
O2026  O     0.16667   0.79375   0.76280   0.00000  Uiso   1.00
C2027  C     0.16655   0.83333   0.74024   0.00000  Uiso   1.00
C2028  C     0.16678   0.83333   0.92642   0.00000  Uiso   1.00
Cu2029 Cu    0.16667   0.88022   0.83333   0.00000  Uiso   1.00
Cu2030 Cu    0.16667   0.78645   0.83333   0.00000  Uiso   1.00
C2031  C     0.16666   0.83333   0.68844   0.00000  Uiso   1.00
C2032  C     0.16667   0.83333   0.97823   0.00000  Uiso   1.00
C2033  C     0.02094   0.79131   0.84275   0.00000  Uiso   1.00
C2034  C     0.31239   0.87536   0.82392   0.00000  Uiso   1.00
C2035  C     0.31239   0.79131   0.82392   0.00000  Uiso   1.00
C2036  C     0.02094   0.87536   0.84275   0.00000  Uiso   1.00
C2037  C     0.29045   0.83333   0.82363   0.00000  Uiso   1.00
C2038  C     0.04288   0.83333   0.84304   0.00000  Uiso   1.00
C2039  C     0.14231   0.69131   0.79872   0.00000  Uiso   1.00
C2040  C     0.19102   0.97535   0.86795   0.00000  Uiso   1.00
C2041  C     0.19102   0.69131   0.86795   0.00000  Uiso   1.00
C2042  C     0.14231   0.97535   0.79872   0.00000  Uiso   1.00
N2043  N     0.16667   0.95069   0.83333   0.00000  Uiso   1.00
N2044  N     0.16667   0.71598   0.83333   0.00000  Uiso   1.00
N2045  N     0.03845   0.75256   0.87094   0.00000  Uiso   1.00
O2046  O     0.01747   0.71510   0.87555   0.00000  Uiso   1.00
O2047  O     0.07095   0.75856   0.90158   0.00000  Uiso   1.00
N2048  N     0.29488   0.91410   0.79573   0.00000  Uiso   1.00
O2049  O     0.26239   0.90810   0.76508   0.00000  Uiso   1.00
O2050  O     0.31585   0.95157   0.79112   0.00000  Uiso   1.00
N2051  N     0.29488   0.75256   0.79573   0.00000  Uiso   1.00
O2052  O     0.26239   0.75855   0.76508   0.00000  Uiso   1.00
O2053  O     0.31586   0.71509   0.79113   0.00000  Uiso   1.00
N2054  N     0.03845   0.91410   0.87093   0.00000  Uiso   1.00
O2055  O     0.07094   0.90811   0.90159   0.00000  Uiso   1.00
O2056  O     0.01748   0.95158   0.87553   0.00000  Uiso   1.00
C2057  C     0.11623   0.71530   0.75951   0.00000  Uiso   1.00
C2058  C     0.13030   0.72093   0.71394   0.00000  Uiso   1.00
C2059  C     0.10590   0.74338   0.67669   0.00000  Uiso   1.00
C2060  C     0.06666   0.75887   0.68407   0.00000  Uiso   1.00
C2061  C     0.05122   0.75009   0.72807   0.00000  Uiso   1.00
C2062  C     0.07552   0.72699   0.76513   0.00000  Uiso   1.00
H2063  H     0.16055   0.70882   0.70810   0.00000  Uiso   1.00
H2064  H     0.11780   0.74967   0.97591   0.00000  Uiso   1.00
H2065  H     0.04802   0.77714   0.98897   0.00000  Uiso   1.00
H2066  H     0.02050   0.76130   0.73312   0.00000  Uiso   1.00
H2067  H     0.06304   0.71810   0.79819   0.00000  Uiso   1.00
C2068  C     0.21710   0.95136   0.90716   0.00000  Uiso   1.00
C2069  C     0.25781   0.93968   0.90154   0.00000  Uiso   1.00
C2070  C     0.28211   0.91659   0.93859   0.00000  Uiso   1.00
C2071  C     0.26668   0.90780   0.98260   0.00000  Uiso   1.00
C2072  C     0.22744   0.92329   0.98997   0.00000  Uiso   1.00
C2073  C     0.20304   0.94573   0.95273   0.00000  Uiso   1.00
H2074  H     0.27030   0.94858   0.86847   0.00000  Uiso   1.00
H2075  H     0.31284   0.90538   0.93355   0.00000  Uiso   1.00
H2076  H     0.28532   0.88953   0.67770   0.00000  Uiso   1.00
H2077  H     0.21554   0.91699   0.69075   0.00000  Uiso   1.00
H2078  H     0.17278   0.95784   0.95857   0.00000  Uiso   1.00
C2079  C     0.21710   0.71530   0.90716   0.00000  Uiso   1.00
C2080  C     0.25781   0.72699   0.90154   0.00000  Uiso   1.00
C2081  C     0.28210   0.75010   0.93860   0.00000  Uiso   1.00
C2082  C     0.26667   0.75887   0.98260   0.00000  Uiso   1.00
C2083  C     0.22743   0.74338   0.98998   0.00000  Uiso   1.00
C2084  C     0.20303   0.72093   0.95273   0.00000  Uiso   1.00
H2085  H     0.27030   0.71810   0.86848   0.00000  Uiso   1.00
H2086  H     0.31282   0.76131   0.93355   0.00000  Uiso   1.00
H2087  H     0.28531   0.77715   0.67770   0.00000  Uiso   1.00
H2088  H     0.21553   0.74967   0.69076   0.00000  Uiso   1.00
H2089  H     0.17278   0.70881   0.95857   0.00000  Uiso   1.00
C2090  C     0.11623   0.95136   0.75951   0.00000  Uiso   1.00
C2091  C     0.13030   0.94573   0.71394   0.00000  Uiso   1.00
C2092  C     0.10590   0.92328   0.67669   0.00000  Uiso   1.00
C2093  C     0.06666   0.90779   0.68407   0.00000  Uiso   1.00
C2094  C     0.05123   0.91657   0.72807   0.00000  Uiso   1.00
C2095  C     0.07552   0.93968   0.76512   0.00000  Uiso   1.00
H2096  H     0.16055   0.95785   0.70810   0.00000  Uiso   1.00
H2097  H     0.11780   0.91699   0.97591   0.00000  Uiso   1.00
H2098  H     0.04802   0.88952   0.98897   0.00000  Uiso   1.00
H2099  H     0.02051   0.90536   0.73312   0.00000  Uiso   1.00
H2100  H     0.06304   0.94857   0.79819   0.00000  Uiso   1.00
O2101  O     0.43988   0.87291   0.83333   0.00000  Uiso   1.00
O2102  O     0.56012   0.79375   0.83334   0.00000  Uiso   1.00
O2103  O     0.56012   0.87291   0.83334   0.00000  Uiso   1.00
O2104  O     0.43988   0.79375   0.83333   0.00000  Uiso   1.00
C2105  C     0.42107   0.83333   0.83752   0.00000  Uiso   1.00
C2106  C     0.57893   0.83333   0.82915   0.00000  Uiso   1.00
O2107  O     0.50000   0.87292   0.76280   0.00000  Uiso   1.00
O2108  O     0.50000   0.79375   0.90387   0.00000  Uiso   1.00
O2109  O     0.50000   0.87292   0.90387   0.00000  Uiso   1.00
O2110  O     0.50000   0.79375   0.76280   0.00000  Uiso   1.00
C2111  C     0.49988   0.83333   0.74024   0.00000  Uiso   1.00
C2112  C     0.50012   0.83333   0.92642   0.00000  Uiso   1.00
Cu2113 Cu    0.50000   0.88022   0.83333   0.00000  Uiso   1.00
Cu2114 Cu    0.50000   0.78645   0.83333   0.00000  Uiso   1.00
C2115  C     0.50000   0.83333   0.68844   0.00000  Uiso   1.00
C2116  C     0.50000   0.83333   0.97823   0.00000  Uiso   1.00
C2117  C     0.35428   0.79131   0.84275   0.00000  Uiso   1.00
C2118  C     0.64572   0.87536   0.82392   0.00000  Uiso   1.00
C2119  C     0.64572   0.79131   0.82392   0.00000  Uiso   1.00
C2120  C     0.35428   0.87536   0.84275   0.00000  Uiso   1.00
C2121  C     0.62378   0.83333   0.82363   0.00000  Uiso   1.00
C2122  C     0.37622   0.83333   0.84304   0.00000  Uiso   1.00
C2123  C     0.47564   0.69131   0.79872   0.00000  Uiso   1.00
C2124  C     0.52436   0.97535   0.86795   0.00000  Uiso   1.00
C2125  C     0.52436   0.69131   0.86795   0.00000  Uiso   1.00
C2126  C     0.47564   0.97535   0.79872   0.00000  Uiso   1.00
N2127  N     0.50000   0.95069   0.83333   0.00000  Uiso   1.00
N2128  N     0.50000   0.71598   0.83333   0.00000  Uiso   1.00
N2129  N     0.37179   0.75256   0.87094   0.00000  Uiso   1.00
O2130  O     0.35081   0.71510   0.87555   0.00000  Uiso   1.00
O2131  O     0.40428   0.75856   0.90158   0.00000  Uiso   1.00
N2132  N     0.62821   0.91410   0.79573   0.00000  Uiso   1.00
O2133  O     0.59572   0.90810   0.76508   0.00000  Uiso   1.00
O2134  O     0.64919   0.95157   0.79112   0.00000  Uiso   1.00
N2135  N     0.62821   0.75256   0.79573   0.00000  Uiso   1.00
O2136  O     0.59573   0.75855   0.76508   0.00000  Uiso   1.00
O2137  O     0.64919   0.71509   0.79113   0.00000  Uiso   1.00
N2138  N     0.37179   0.91410   0.87093   0.00000  Uiso   1.00
O2139  O     0.40427   0.90811   0.90159   0.00000  Uiso   1.00
O2140  O     0.35082   0.95158   0.87553   0.00000  Uiso   1.00
C2141  C     0.44956   0.71530   0.75951   0.00000  Uiso   1.00
C2142  C     0.46363   0.72093   0.71394   0.00000  Uiso   1.00
C2143  C     0.43923   0.74338   0.67669   0.00000  Uiso   1.00
C2144  C     0.39999   0.75887   0.68407   0.00000  Uiso   1.00
C2145  C     0.38456   0.75009   0.72807   0.00000  Uiso   1.00
C2146  C     0.40886   0.72699   0.76513   0.00000  Uiso   1.00
H2147  H     0.49388   0.70882   0.70810   0.00000  Uiso   1.00
H2148  H     0.45113   0.74967   0.97591   0.00000  Uiso   1.00
H2149  H     0.38135   0.77714   0.98897   0.00000  Uiso   1.00
H2150  H     0.35384   0.76130   0.73312   0.00000  Uiso   1.00
H2151  H     0.39637   0.71810   0.79819   0.00000  Uiso   1.00
C2152  C     0.55044   0.95136   0.90716   0.00000  Uiso   1.00
C2153  C     0.59115   0.93968   0.90154   0.00000  Uiso   1.00
C2154  C     0.61545   0.91659   0.93859   0.00000  Uiso   1.00
C2155  C     0.60001   0.90780   0.98260   0.00000  Uiso   1.00
C2156  C     0.56077   0.92329   0.98997   0.00000  Uiso   1.00
C2157  C     0.53637   0.94573   0.95273   0.00000  Uiso   1.00
H2158  H     0.60363   0.94858   0.86847   0.00000  Uiso   1.00
H2159  H     0.64617   0.90538   0.93355   0.00000  Uiso   1.00
H2160  H     0.61865   0.88953   0.67770   0.00000  Uiso   1.00
H2161  H     0.54887   0.91699   0.69075   0.00000  Uiso   1.00
H2162  H     0.50612   0.95784   0.95857   0.00000  Uiso   1.00
C2163  C     0.55043   0.71530   0.90716   0.00000  Uiso   1.00
C2164  C     0.59114   0.72699   0.90154   0.00000  Uiso   1.00
C2165  C     0.61544   0.75010   0.93860   0.00000  Uiso   1.00
C2166  C     0.60000   0.75887   0.98260   0.00000  Uiso   1.00
C2167  C     0.56076   0.74338   0.98998   0.00000  Uiso   1.00
C2168  C     0.53637   0.72093   0.95273   0.00000  Uiso   1.00
H2169  H     0.60363   0.71810   0.86848   0.00000  Uiso   1.00
H2170  H     0.64615   0.76131   0.93355   0.00000  Uiso   1.00
H2171  H     0.61864   0.77715   0.67770   0.00000  Uiso   1.00
H2172  H     0.54887   0.74967   0.69076   0.00000  Uiso   1.00
H2173  H     0.50612   0.70881   0.95857   0.00000  Uiso   1.00
C2174  C     0.44957   0.95136   0.75951   0.00000  Uiso   1.00
C2175  C     0.46363   0.94573   0.71394   0.00000  Uiso   1.00
C2176  C     0.43923   0.92328   0.67669   0.00000  Uiso   1.00
C2177  C     0.40000   0.90779   0.68407   0.00000  Uiso   1.00
C2178  C     0.38456   0.91657   0.72807   0.00000  Uiso   1.00
C2179  C     0.40886   0.93968   0.76512   0.00000  Uiso   1.00
H2180  H     0.49388   0.95785   0.70810   0.00000  Uiso   1.00
H2181  H     0.45113   0.91699   0.97591   0.00000  Uiso   1.00
H2182  H     0.38136   0.88952   0.98897   0.00000  Uiso   1.00
H2183  H     0.35384   0.90536   0.73312   0.00000  Uiso   1.00
H2184  H     0.39637   0.94857   0.79819   0.00000  Uiso   1.00
O2185  O     0.77321   0.87291   0.83333   0.00000  Uiso   1.00
O2186  O     0.89345   0.79375   0.83334   0.00000  Uiso   1.00
O2187  O     0.89345   0.87291   0.83334   0.00000  Uiso   1.00
O2188  O     0.77321   0.79375   0.83333   0.00000  Uiso   1.00
C2189  C     0.75441   0.83333   0.83752   0.00000  Uiso   1.00
C2190  C     0.91226   0.83333   0.82915   0.00000  Uiso   1.00
O2191  O     0.83333   0.87292   0.76280   0.00000  Uiso   1.00
O2192  O     0.83333   0.79375   0.90387   0.00000  Uiso   1.00
O2193  O     0.83333   0.87292   0.90387   0.00000  Uiso   1.00
O2194  O     0.83333   0.79375   0.76280   0.00000  Uiso   1.00
C2195  C     0.83322   0.83333   0.74024   0.00000  Uiso   1.00
C2196  C     0.83345   0.83333   0.92642   0.00000  Uiso   1.00
Cu2197 Cu    0.83333   0.88022   0.83333   0.00000  Uiso   1.00
Cu2198 Cu    0.83333   0.78645   0.83333   0.00000  Uiso   1.00
C2199  C     0.83333   0.83333   0.68844   0.00000  Uiso   1.00
C2200  C     0.83334   0.83333   0.97823   0.00000  Uiso   1.00
C2201  C     0.68761   0.79131   0.84275   0.00000  Uiso   1.00
C2202  C     0.97906   0.87536   0.82392   0.00000  Uiso   1.00
C2203  C     0.97906   0.79131   0.82392   0.00000  Uiso   1.00
C2204  C     0.68761   0.87536   0.84275   0.00000  Uiso   1.00
C2205  C     0.95712   0.83333   0.82363   0.00000  Uiso   1.00
C2206  C     0.70955   0.83333   0.84304   0.00000  Uiso   1.00
C2207  C     0.80898   0.69131   0.79872   0.00000  Uiso   1.00
C2208  C     0.85769   0.97535   0.86795   0.00000  Uiso   1.00
C2209  C     0.85769   0.69131   0.86795   0.00000  Uiso   1.00
C2210  C     0.80898   0.97535   0.79872   0.00000  Uiso   1.00
N2211  N     0.83333   0.95069   0.83333   0.00000  Uiso   1.00
N2212  N     0.83333   0.71598   0.83333   0.00000  Uiso   1.00
N2213  N     0.70512   0.75256   0.87094   0.00000  Uiso   1.00
O2214  O     0.68414   0.71510   0.87555   0.00000  Uiso   1.00
O2215  O     0.73761   0.75856   0.90158   0.00000  Uiso   1.00
N2216  N     0.96154   0.91410   0.79573   0.00000  Uiso   1.00
O2217  O     0.92906   0.90810   0.76508   0.00000  Uiso   1.00
O2218  O     0.98252   0.95157   0.79112   0.00000  Uiso   1.00
N2219  N     0.96155   0.75256   0.79573   0.00000  Uiso   1.00
O2220  O     0.92906   0.75855   0.76508   0.00000  Uiso   1.00
O2221  O     0.98252   0.71509   0.79113   0.00000  Uiso   1.00
N2222  N     0.70512   0.91410   0.87093   0.00000  Uiso   1.00
O2223  O     0.73761   0.90811   0.90159   0.00000  Uiso   1.00
O2224  O     0.68415   0.95158   0.87553   0.00000  Uiso   1.00
C2225  C     0.78290   0.71530   0.75951   0.00000  Uiso   1.00
C2226  C     0.79696   0.72093   0.71394   0.00000  Uiso   1.00
C2227  C     0.77256   0.74338   0.67669   0.00000  Uiso   1.00
C2228  C     0.73333   0.75887   0.68407   0.00000  Uiso   1.00
C2229  C     0.71789   0.75009   0.72807   0.00000  Uiso   1.00
C2230  C     0.74219   0.72699   0.76513   0.00000  Uiso   1.00
H2231  H     0.82721   0.70882   0.70810   0.00000  Uiso   1.00
H2232  H     0.78446   0.74967   0.97591   0.00000  Uiso   1.00
H2233  H     0.71469   0.77714   0.98897   0.00000  Uiso   1.00
H2234  H     0.68717   0.76130   0.73312   0.00000  Uiso   1.00
H2235  H     0.72970   0.71810   0.79819   0.00000  Uiso   1.00
C2236  C     0.88377   0.95136   0.90716   0.00000  Uiso   1.00
C2237  C     0.92448   0.93968   0.90154   0.00000  Uiso   1.00
C2238  C     0.94878   0.91659   0.93859   0.00000  Uiso   1.00
C2239  C     0.93334   0.90780   0.98260   0.00000  Uiso   1.00
C2240  C     0.89410   0.92329   0.98997   0.00000  Uiso   1.00
C2241  C     0.86970   0.94573   0.95273   0.00000  Uiso   1.00
H2242  H     0.93697   0.94858   0.86847   0.00000  Uiso   1.00
H2243  H     0.97950   0.90538   0.93355   0.00000  Uiso   1.00
H2244  H     0.95199   0.88953   0.67770   0.00000  Uiso   1.00
H2245  H     0.88221   0.91699   0.69075   0.00000  Uiso   1.00
H2246  H     0.83945   0.95784   0.95857   0.00000  Uiso   1.00
C2247  C     0.88377   0.71530   0.90716   0.00000  Uiso   1.00
C2248  C     0.92447   0.72699   0.90154   0.00000  Uiso   1.00
C2249  C     0.94877   0.75010   0.93860   0.00000  Uiso   1.00
C2250  C     0.93333   0.75887   0.98260   0.00000  Uiso   1.00
C2251  C     0.89410   0.74338   0.98998   0.00000  Uiso   1.00
C2252  C     0.86970   0.72093   0.95273   0.00000  Uiso   1.00
H2253  H     0.93696   0.71810   0.86848   0.00000  Uiso   1.00
H2254  H     0.97949   0.76131   0.93355   0.00000  Uiso   1.00
H2255  H     0.95197   0.77715   0.67770   0.00000  Uiso   1.00
H2256  H     0.88220   0.74967   0.69076   0.00000  Uiso   1.00
H2257  H     0.83945   0.70881   0.95857   0.00000  Uiso   1.00
C2258  C     0.78290   0.95136   0.75951   0.00000  Uiso   1.00
C2259  C     0.79697   0.94573   0.71394   0.00000  Uiso   1.00
C2260  C     0.77257   0.92328   0.67669   0.00000  Uiso   1.00
C2261  C     0.73333   0.90779   0.68407   0.00000  Uiso   1.00
C2262  C     0.71789   0.91657   0.72807   0.00000  Uiso   1.00
C2263  C     0.74219   0.93968   0.76512   0.00000  Uiso   1.00
H2264  H     0.82722   0.95785   0.70810   0.00000  Uiso   1.00
H2265  H     0.78447   0.91699   0.97591   0.00000  Uiso   1.00
H2266  H     0.71469   0.88952   0.98897   0.00000  Uiso   1.00
H2267  H     0.68717   0.90536   0.73312   0.00000  Uiso   1.00
H2268  H     0.72970   0.94857   0.79819   0.00000  Uiso   1.00
loop_
_geom_bond_atom_site_label_1
_geom_bond_atom_site_label_2
_geom_bond_distance
_geom_bond_site_symmetry_2
_ccdc_geom_bond_type
O1     C5      1.313   .     A
O1     Cu13    1.977   .     S
O2     C6      1.313   .     A
O2     Cu14    1.977   .     S
O3     C6      1.313   .     A
O3     Cu13    1.977   .     S
O4     C5      1.313   .     A
O4     Cu14    1.977   .     S
C5     C22     1.491   .     S
C6     C21     1.491   .     S
O7     C11     1.307   .     A
O7     Cu13    1.967   .     S
O8     C12     1.307   .     A
O8     Cu14    1.967   .     S
O9     Cu13    1.967   .     S
O9     C12     1.307   .     A
O10    C11     1.307   .     A
O10    Cu14    1.967   .     S
C11    C15     1.436   .     S
C12    C16     1.436   .     S
Cu13   Cu14    2.720   .     S
Cu13   N27     2.044   .     S
Cu14   N28     2.044   .     S
C15    C1528   1.207   1_554 S
C16    C771    1.207   .     S
C17    N29     1.451   .     S
C17    C22     1.414   .     A
C17    C187    1.412   1_455 S
C18    C21     1.414   .     A
C18    N32     1.451   .     S
C18    C104    1.412   .     S
C19    C21     1.414   .     A
C19    N35     1.451   .     S
C19    C101    1.412   .     S
C20    N38     1.451   .     S
C20    C22     1.414   .     A
C20    C186    1.412   1_455 S
C23    N28     1.379   .     A
C23    C41     1.481   .     S
C23    C530    1.430   1_545 S
C24    C52     1.481   .     S
C24    N27     1.379   .     A
C24    C277    1.430   .     S
C25    N28     1.379   .     A
C25    C63     1.481   .     S
C25    C528    1.430   1_545 S
C26    N27     1.379   .     A
C26    C74     1.481   .     S
C26    C275    1.430   .     S
N29    O30     1.299   .     A
N29    O31     1.298   .     A
N32    O34     1.299   .     A
N32    O33     1.299   .     A
N35    O36     1.299   .     A
N35    O37     1.299   .     A
N38    O39     1.298   .     A
N38    O40     1.299   .     A
C41    C42     1.399   .     A
C41    C46     1.398   .     A
C42    C43     1.396   .     A
C42    H47     1.078   .     S
C43    C44     1.395   .     A
C43    H1560   1.076   1_554 S
C44    C45     1.393   .     A
C44    H1561   1.082   1_554 S
C45    H50     1.079   .     S
C45    C46     1.400   .     A
C46    H51     1.074   .     S
H48    C799    1.076   .     S
H49    C800    1.082   .     S
C52    C53     1.398   .     A
C52    C57     1.399   .     A
C53    H58     1.074   .     S
C53    C54     1.400   .     A
C54    C55     1.393   .     A
C54    H59     1.079   .     S
C55    C56     1.395   .     A
C55    H816    1.082   .     S
C56    C57     1.396   .     A
C56    H817    1.076   .     S
C57    H62     1.078   .     S
H60    C1567   1.082   1_554 S
H61    C1568   1.076   1_554 S
C63    C68     1.399   .     A
C63    C64     1.398   .     A
C64    H69     1.074   .     S
C64    C65     1.400   .     A
C65    C66     1.393   .     A
C65    H70     1.079   .     S
C66    C67     1.395   .     A
C66    H827    1.082   .     S
C67    C68     1.396   .     A
C67    H828    1.076   .     S
C68    H73     1.078   .     S
H71    C1578   1.082   1_554 S
H72    C1579   1.076   1_554 S
C74    C75     1.399   .     A
C74    C79     1.398   .     A
C75    C76     1.396   .     A
C75    H80     1.078   .     S
C76    C77     1.395   .     A
C76    H1593   1.076   1_554 S
C77    C78     1.393   .     A
C77    H1594   1.082   1_554 S
C78    H83     1.079   .     S
C78    C79     1.400   .     A
C79    H84     1.074   .     S
H81    C832    1.076   .     S
H82    C833    1.082   .     S
O85    C89     1.313   .     A
O85    Cu97    1.977   .     S
O86    C90     1.313   .     A
O86    Cu98    1.977   .     S
O87    C90     1.313   .     A
O87    Cu97    1.977   .     S
O88    C89     1.313   .     A
O88    Cu98    1.977   .     S
C89    C106    1.491   .     S
C90    C105    1.491   .     S
O91    C95     1.307   .     A
O91    Cu97    1.967   .     S
O92    C96     1.307   .     A
O92    Cu98    1.967   .     S
O93    Cu97    1.967   .     S
O93    C96     1.307   .     A
O94    C95     1.307   .     A
O94    Cu98    1.967   .     S
C95    C99     1.436   .     S
C96    C100    1.436   .     S
Cu97   Cu98    2.720   .     S
Cu97   N111    2.044   .     S
Cu98   N112    2.044   .     S
C99    C1612   1.207   1_554 S
C100   C855    1.207   .     S
C101   N113    1.451   .     S
C101   C106    1.414   .     A
C102   C105    1.414   .     A
C102   N116    1.451   .     S
C102   C188    1.412   .     S
C103   C105    1.414   .     A
C103   N119    1.451   .     S
C103   C185    1.412   .     S
C104   N122    1.451   .     S
C104   C106    1.414   .     A
C107   N112    1.379   .     A
C107   C125    1.481   .     S
C107   C614    1.430   1_545 S
C108   C136    1.481   .     S
C108   N111    1.379   .     A
C108   C361    1.430   .     S
C109   N112    1.379   .     A
C109   C147    1.481   .     S
C109   C612    1.430   1_545 S
C110   N111    1.379   .     A
C110   C158    1.481   .     S
C110   C359    1.430   .     S
N113   O114    1.299   .     A
N113   O115    1.298   .     A
N116   O118    1.299   .     A
N116   O117    1.299   .     A
N119   O120    1.299   .     A
N119   O121    1.299   .     A
N122   O123    1.298   .     A
N122   O124    1.299   .     A
C125   C126    1.399   .     A
C125   C130    1.398   .     A
C126   C127    1.396   .     A
C126   H131    1.078   .     S
C127   C128    1.395   .     A
C127   H1644   1.076   1_554 S
C128   C129    1.393   .     A
C128   H1645   1.082   1_554 S
C129   H134    1.079   .     S
C129   C130    1.400   .     A
C130   H135    1.074   .     S
H132   C883    1.076   .     S
H133   C884    1.082   .     S
C136   C137    1.398   .     A
C136   C141    1.399   .     A
C137   H142    1.074   .     S
C137   C138    1.400   .     A
C138   C139    1.393   .     A
C138   H143    1.079   .     S
C139   C140    1.395   .     A
C139   H900    1.082   .     S
C140   C141    1.396   .     A
C140   H901    1.076   .     S
C141   H146    1.078   .     S
H144   C1651   1.082   1_554 S
H145   C1652   1.076   1_554 S
C147   C152    1.399   .     A
C147   C148    1.398   .     A
C148   H153    1.074   .     S
C148   C149    1.400   .     A
C149   C150    1.393   .     A
C149   H154    1.079   .     S
C150   C151    1.395   .     A
C150   H911    1.082   .     S
C151   C152    1.396   .     A
C151   H912    1.076   .     S
C152   H157    1.078   .     S
H155   C1662   1.082   1_554 S
H156   C1663   1.076   1_554 S
C158   C159    1.399   .     A
C158   C163    1.398   .     A
C159   C160    1.396   .     A
C159   H164    1.078   .     S
C160   C161    1.395   .     A
C160   H1677   1.076   1_554 S
C161   C162    1.393   .     A
C161   H1678   1.082   1_554 S
C162   H167    1.079   .     S
C162   C163    1.400   .     A
C163   H168    1.074   .     S
H165   C916    1.076   .     S
H166   C917    1.082   .     S
O169   C173    1.313   .     A
O169   Cu181   1.977   .     S
O170   C174    1.313   .     A
O170   Cu182   1.977   .     S
O171   C174    1.313   .     A
O171   Cu181   1.977   .     S
O172   C173    1.313   .     A
O172   Cu182   1.977   .     S
C173   C190    1.491   .     S
C174   C189    1.491   .     S
O175   C179    1.307   .     A
O175   Cu181   1.967   .     S
O176   C180    1.307   .     A
O176   Cu182   1.967   .     S
O177   Cu181   1.967   .     S
O177   C180    1.307   .     A
O178   C179    1.307   .     A
O178   Cu182   1.967   .     S
C179   C183    1.436   .     S
C180   C184    1.436   .     S
Cu181  Cu182   2.720   .     S
Cu181  N195    2.044   .     S
Cu182  N196    2.044   .     S
C183   C1696   1.207   1_554 S
C184   C939    1.207   .     S
C185   N197    1.451   .     S
C185   C190    1.414   .     A
C186   C189    1.414   .     A
C186   N200    1.451   .     S
C186   C20     1.412   1_655 S
C187   C189    1.414   .     A
C187   N203    1.451   .     S
C187   C17     1.412   1_655 S
C188   N206    1.451   .     S
C188   C190    1.414   .     A
C191   N196    1.379   .     A
C191   C209    1.481   .     S
C191   C698    1.430   1_545 S
C192   C220    1.481   .     S
C192   N195    1.379   .     A
C192   C445    1.430   .     S
C193   N196    1.379   .     A
C193   C231    1.481   .     S
C193   C696    1.430   1_545 S
C194   N195    1.379   .     A
C194   C242    1.481   .     S
C194   C443    1.430   .     S
N197   O198    1.299   .     A
N197   O199    1.298   .     A
N200   O202    1.299   .     A
N200   O201    1.299   .     A
N203   O204    1.299   .     A
N203   O205    1.299   .     A
N206   O207    1.298   .     A
N206   O208    1.299   .     A
C209   C210    1.399   .     A
C209   C214    1.398   .     A
C210   C211    1.396   .     A
C210   H215    1.078   .     S
C211   C212    1.395   .     A
C211   H1728   1.076   1_554 S
C212   C213    1.393   .     A
C212   H1729   1.082   1_554 S
C213   H218    1.079   .     S
C213   C214    1.400   .     A
C214   H219    1.074   .     S
H216   C967    1.076   .     S
H217   C968    1.082   .     S
C220   C221    1.398   .     A
C220   C225    1.399   .     A
C221   H226    1.074   .     S
C221   C222    1.400   .     A
C222   C223    1.393   .     A
C222   H227    1.079   .     S
C223   C224    1.395   .     A
C223   H984    1.082   .     S
C224   C225    1.396   .     A
C224   H985    1.076   .     S
C225   H230    1.078   .     S
H228   C1735   1.082   1_554 S
H229   C1736   1.076   1_554 S
C231   C236    1.399   .     A
C231   C232    1.398   .     A
C232   H237    1.074   .     S
C232   C233    1.400   .     A
C233   C234    1.393   .     A
C233   H238    1.079   .     S
C234   C235    1.395   .     A
C234   H995    1.082   .     S
C235   C236    1.396   .     A
C235   H996    1.076   .     S
C236   H241    1.078   .     S
H239   C1746   1.082   1_554 S
H240   C1747   1.076   1_554 S
C242   C243    1.399   .     A
C242   C247    1.398   .     A
C243   C244    1.396   .     A
C243   H248    1.078   .     S
C244   C245    1.395   .     A
C244   H1761   1.076   1_554 S
C245   C246    1.393   .     A
C245   H1762   1.082   1_554 S
C246   H251    1.079   .     S
C246   C247    1.400   .     A
C247   H252    1.074   .     S
H249   C1000   1.076   .     S
H250   C1001   1.082   .     S
O253   C257    1.313   .     A
O253   Cu265   1.977   .     S
O254   C258    1.313   .     A
O254   Cu266   1.977   .     S
O255   C258    1.313   .     A
O255   Cu265   1.977   .     S
O256   C257    1.313   .     A
O256   Cu266   1.977   .     S
C257   C274    1.491   .     S
C258   C273    1.491   .     S
O259   C263    1.307   .     A
O259   Cu265   1.967   .     S
O260   C264    1.307   .     A
O260   Cu266   1.967   .     S
O261   Cu265   1.967   .     S
O261   C264    1.307   .     A
O262   C263    1.307   .     A
O262   Cu266   1.967   .     S
C263   C267    1.436   .     S
C264   C268    1.436   .     S
Cu265  Cu266   2.720   .     S
Cu265  N279    2.044   .     S
Cu266  N280    2.044   .     S
C267   C1780   1.207   1_554 S
C268   C1023   1.207   .     S
C269   N281    1.451   .     S
C269   C274    1.414   .     A
C269   C439    1.412   1_455 S
C270   C273    1.414   .     A
C270   N284    1.451   .     S
C270   C356    1.412   .     S
C271   C273    1.414   .     A
C271   N287    1.451   .     S
C271   C353    1.412   .     S
C272   N290    1.451   .     S
C272   C274    1.414   .     A
C272   C438    1.412   1_455 S
C275   N280    1.379   .     A
C275   C293    1.481   .     S
C276   C304    1.481   .     S
C276   N279    1.379   .     A
C276   C529    1.430   .     S
C277   N280    1.379   .     A
C277   C315    1.481   .     S
C278   N279    1.379   .     A
C278   C326    1.481   .     S
C278   C527    1.430   .     S
N281   O282    1.299   .     A
N281   O283    1.298   .     A
N284   O286    1.299   .     A
N284   O285    1.299   .     A
N287   O288    1.299   .     A
N287   O289    1.299   .     A
N290   O291    1.298   .     A
N290   O292    1.299   .     A
C293   C294    1.399   .     A
C293   C298    1.398   .     A
C294   C295    1.396   .     A
C294   H299    1.078   .     S
C295   C296    1.395   .     A
C295   H1812   1.076   1_554 S
C296   C297    1.393   .     A
C296   H1813   1.082   1_554 S
C297   H302    1.079   .     S
C297   C298    1.400   .     A
C298   H303    1.074   .     S
H300   C1051   1.076   .     S
H301   C1052   1.082   .     S
C304   C305    1.398   .     A
C304   C309    1.399   .     A
C305   H310    1.074   .     S
C305   C306    1.400   .     A
C306   C307    1.393   .     A
C306   H311    1.079   .     S
C307   C308    1.395   .     A
C307   H1068   1.082   .     S
C308   C309    1.396   .     A
C308   H1069   1.076   .     S
C309   H314    1.078   .     S
H312   C1819   1.082   1_554 S
H313   C1820   1.076   1_554 S
C315   C320    1.399   .     A
C315   C316    1.398   .     A
C316   H321    1.074   .     S
C316   C317    1.400   .     A
C317   C318    1.393   .     A
C317   H322    1.079   .     S
C318   C319    1.395   .     A
C318   H1079   1.082   .     S
C319   C320    1.396   .     A
C319   H1080   1.076   .     S
C320   H325    1.078   .     S
H323   C1830   1.082   1_554 S
H324   C1831   1.076   1_554 S
C326   C327    1.399   .     A
C326   C331    1.398   .     A
C327   C328    1.396   .     A
C327   H332    1.078   .     S
C328   C329    1.395   .     A
C328   H1845   1.076   1_554 S
C329   C330    1.393   .     A
C329   H1846   1.082   1_554 S
C330   H335    1.079   .     S
C330   C331    1.400   .     A
C331   H336    1.074   .     S
H333   C1084   1.076   .     S
H334   C1085   1.082   .     S
O337   C341    1.313   .     A
O337   Cu349   1.977   .     S
O338   C342    1.313   .     A
O338   Cu350   1.977   .     S
O339   C342    1.313   .     A
O339   Cu349   1.977   .     S
O340   C341    1.313   .     A
O340   Cu350   1.977   .     S
C341   C358    1.491   .     S
C342   C357    1.491   .     S
O343   C347    1.307   .     A
O343   Cu349   1.967   .     S
O344   C348    1.307   .     A
O344   Cu350   1.967   .     S
O345   Cu349   1.967   .     S
O345   C348    1.307   .     A
O346   C347    1.307   .     A
O346   Cu350   1.967   .     S
C347   C351    1.436   .     S
C348   C352    1.436   .     S
Cu349  Cu350   2.720   .     S
Cu349  N363    2.044   .     S
Cu350  N364    2.044   .     S
C351   C1864   1.207   1_554 S
C352   C1107   1.207   .     S
C353   N365    1.451   .     S
C353   C358    1.414   .     A
C354   C357    1.414   .     A
C354   N368    1.451   .     S
C354   C440    1.412   .     S
C355   C357    1.414   .     A
C355   N371    1.451   .     S
C355   C437    1.412   .     S
C356   N374    1.451   .     S
C356   C358    1.414   .     A
C359   N364    1.379   .     A
C359   C377    1.481   .     S
C360   C388    1.481   .     S
C360   N363    1.379   .     A
C360   C613    1.430   .     S
C361   N364    1.379   .     A
C361   C399    1.481   .     S
C362   N363    1.379   .     A
C362   C410    1.481   .     S
C362   C611    1.430   .     S
N365   O366    1.299   .     A
N365   O367    1.298   .     A
N368   O370    1.299   .     A
N368   O369    1.299   .     A
N371   O372    1.299   .     A
N371   O373    1.299   .     A
N374   O375    1.298   .     A
N374   O376    1.299   .     A
C377   C378    1.399   .     A
C377   C382    1.398   .     A
C378   C379    1.396   .     A
C378   H383    1.078   .     S
C379   C380    1.395   .     A
C379   H1896   1.076   1_554 S
C380   C381    1.393   .     A
C380   H1897   1.082   1_554 S
C381   H386    1.079   .     S
C381   C382    1.400   .     A
C382   H387    1.074   .     S
H384   C1135   1.076   .     S
H385   C1136   1.082   .     S
C388   C389    1.398   .     A
C388   C393    1.399   .     A
C389   H394    1.074   .     S
C389   C390    1.400   .     A
C390   C391    1.393   .     A
C390   H395    1.079   .     S
C391   C392    1.395   .     A
C391   H1152   1.082   .     S
C392   C393    1.396   .     A
C392   H1153   1.076   .     S
C393   H398    1.078   .     S
H396   C1903   1.082   1_554 S
H397   C1904   1.076   1_554 S
C399   C404    1.399   .     A
C399   C400    1.398   .     A
C400   H405    1.074   .     S
C400   C401    1.400   .     A
C401   C402    1.393   .     A
C401   H406    1.079   .     S
C402   C403    1.395   .     A
C402   H1163   1.082   .     S
C403   C404    1.396   .     A
C403   H1164   1.076   .     S
C404   H409    1.078   .     S
H407   C1914   1.082   1_554 S
H408   C1915   1.076   1_554 S
C410   C411    1.399   .     A
C410   C415    1.398   .     A
C411   C412    1.396   .     A
C411   H416    1.078   .     S
C412   C413    1.395   .     A
C412   H1929   1.076   1_554 S
C413   C414    1.393   .     A
C413   H1930   1.082   1_554 S
C414   H419    1.079   .     S
C414   C415    1.400   .     A
C415   H420    1.074   .     S
H417   C1168   1.076   .     S
H418   C1169   1.082   .     S
O421   C425    1.313   .     A
O421   Cu433   1.977   .     S
O422   C426    1.313   .     A
O422   Cu434   1.977   .     S
O423   C426    1.313   .     A
O423   Cu433   1.977   .     S
O424   C425    1.313   .     A
O424   Cu434   1.977   .     S
C425   C442    1.491   .     S
C426   C441    1.491   .     S
O427   C431    1.307   .     A
O427   Cu433   1.967   .     S
O428   C432    1.307   .     A
O428   Cu434   1.967   .     S
O429   Cu433   1.967   .     S
O429   C432    1.307   .     A
O430   C431    1.307   .     A
O430   Cu434   1.967   .     S
C431   C435    1.436   .     S
C432   C436    1.436   .     S
Cu433  Cu434   2.720   .     S
Cu433  N447    2.044   .     S
Cu434  N448    2.044   .     S
C435   C1948   1.207   1_554 S
C436   C1191   1.207   .     S
C437   N449    1.451   .     S
C437   C442    1.414   .     A
C438   C441    1.414   .     A
C438   N452    1.451   .     S
C438   C272    1.412   1_655 S
C439   C441    1.414   .     A
C439   N455    1.451   .     S
C439   C269    1.412   1_655 S
C440   N458    1.451   .     S
C440   C442    1.414   .     A
C443   N448    1.379   .     A
C443   C461    1.481   .     S
C444   C472    1.481   .     S
C444   N447    1.379   .     A
C444   C697    1.430   .     S
C445   N448    1.379   .     A
C445   C483    1.481   .     S
C446   N447    1.379   .     A
C446   C494    1.481   .     S
C446   C695    1.430   .     S
N449   O450    1.299   .     A
N449   O451    1.298   .     A
N452   O454    1.299   .     A
N452   O453    1.299   .     A
N455   O456    1.299   .     A
N455   O457    1.299   .     A
N458   O459    1.298   .     A
N458   O460    1.299   .     A
C461   C462    1.399   .     A
C461   C466    1.398   .     A
C462   C463    1.396   .     A
C462   H467    1.078   .     S
C463   C464    1.395   .     A
C463   H1980   1.076   1_554 S
C464   C465    1.393   .     A
C464   H1981   1.082   1_554 S
C465   H470    1.079   .     S
C465   C466    1.400   .     A
C466   H471    1.074   .     S
H468   C1219   1.076   .     S
H469   C1220   1.082   .     S
C472   C473    1.398   .     A
C472   C477    1.399   .     A
C473   H478    1.074   .     S
C473   C474    1.400   .     A
C474   C475    1.393   .     A
C474   H479    1.079   .     S
C475   C476    1.395   .     A
C475   H1236   1.082   .     S
C476   C477    1.396   .     A
C476   H1237   1.076   .     S
C477   H482    1.078   .     S
H480   C1987   1.082   1_554 S
H481   C1988   1.076   1_554 S
C483   C488    1.399   .     A
C483   C484    1.398   .     A
C484   H489    1.074   .     S
C484   C485    1.400   .     A
C485   C486    1.393   .     A
C485   H490    1.079   .     S
C486   C487    1.395   .     A
C486   H1247   1.082   .     S
C487   C488    1.396   .     A
C487   H1248   1.076   .     S
C488   H493    1.078   .     S
H491   C1998   1.082   1_554 S
H492   C1999   1.076   1_554 S
C494   C495    1.399   .     A
C494   C499    1.398   .     A
C495   C496    1.396   .     A
C495   H500    1.078   .     S
C496   C497    1.395   .     A
C496   H2013   1.076   1_554 S
C497   C498    1.393   .     A
C497   H2014   1.082   1_554 S
C498   H503    1.079   .     S
C498   C499    1.400   .     A
C499   H504    1.074   .     S
H501   C1252   1.076   .     S
H502   C1253   1.082   .     S
O505   C509    1.313   .     A
O505   Cu517   1.977   .     S
O506   C510    1.313   .     A
O506   Cu518   1.977   .     S
O507   C510    1.313   .     A
O507   Cu517   1.977   .     S
O508   C509    1.313   .     A
O508   Cu518   1.977   .     S
C509   C526    1.491   .     S
C510   C525    1.491   .     S
O511   C515    1.307   .     A
O511   Cu517   1.967   .     S
O512   C516    1.307   .     A
O512   Cu518   1.967   .     S
O513   Cu517   1.967   .     S
O513   C516    1.307   .     A
O514   C515    1.307   .     A
O514   Cu518   1.967   .     S
C515   C519    1.436   .     S
C516   C520    1.436   .     S
Cu517  Cu518   2.720   .     S
Cu517  N531    2.044   .     S
Cu518  N532    2.044   .     S
C519   C2032   1.207   1_554 S
C520   C1275   1.207   .     S
C521   N533    1.451   .     S
C521   C526    1.414   .     A
C521   C691    1.412   1_455 S
C522   C525    1.414   .     A
C522   N536    1.451   .     S
C522   C608    1.412   .     S
C523   C525    1.414   .     A
C523   N539    1.451   .     S
C523   C605    1.412   .     S
C524   N542    1.451   .     S
C524   C526    1.414   .     A
C524   C690    1.412   1_455 S
C527   N532    1.379   .     A
C527   C545    1.481   .     S
C528   C556    1.481   .     S
C528   N531    1.379   .     A
C528   C25     1.430   1_565 S
C529   N532    1.379   .     A
C529   C567    1.481   .     S
C530   N531    1.379   .     A
C530   C578    1.481   .     S
C530   C23     1.430   1_565 S
N533   O534    1.299   .     A
N533   O535    1.298   .     A
N536   O538    1.299   .     A
N536   O537    1.299   .     A
N539   O540    1.299   .     A
N539   O541    1.299   .     A
N542   O543    1.298   .     A
N542   O544    1.299   .     A
C545   C546    1.399   .     A
C545   C550    1.398   .     A
C546   C547    1.396   .     A
C546   H551    1.078   .     S
C547   C548    1.395   .     A
C547   H2064   1.076   1_554 S
C548   C549    1.393   .     A
C548   H2065   1.082   1_554 S
C549   H554    1.079   .     S
C549   C550    1.400   .     A
C550   H555    1.074   .     S
H552   C1303   1.076   .     S
H553   C1304   1.082   .     S
C556   C557    1.398   .     A
C556   C561    1.399   .     A
C557   H562    1.074   .     S
C557   C558    1.400   .     A
C558   C559    1.393   .     A
C558   H563    1.079   .     S
C559   C560    1.395   .     A
C559   H1320   1.082   .     S
C560   C561    1.396   .     A
C560   H1321   1.076   .     S
C561   H566    1.078   .     S
H564   C2071   1.082   1_554 S
H565   C2072   1.076   1_554 S
C567   C572    1.399   .     A
C567   C568    1.398   .     A
C568   H573    1.074   .     S
C568   C569    1.400   .     A
C569   C570    1.393   .     A
C569   H574    1.079   .     S
C570   C571    1.395   .     A
C570   H1331   1.082   .     S
C571   C572    1.396   .     A
C571   H1332   1.076   .     S
C572   H577    1.078   .     S
H575   C2082   1.082   1_554 S
H576   C2083   1.076   1_554 S
C578   C579    1.399   .     A
C578   C583    1.398   .     A
C579   C580    1.396   .     A
C579   H584    1.078   .     S
C580   C581    1.395   .     A
C580   H2097   1.076   1_554 S
C581   C582    1.393   .     A
C581   H2098   1.082   1_554 S
C582   H587    1.079   .     S
C582   C583    1.400   .     A
C583   H588    1.074   .     S
H585   C1336   1.076   .     S
H586   C1337   1.082   .     S
O589   C593    1.313   .     A
O589   Cu601   1.977   .     S
O590   C594    1.313   .     A
O590   Cu602   1.977   .     S
O591   C594    1.313   .     A
O591   Cu601   1.977   .     S
O592   C593    1.313   .     A
O592   Cu602   1.977   .     S
C593   C610    1.491   .     S
C594   C609    1.491   .     S
O595   C599    1.307   .     A
O595   Cu601   1.967   .     S
O596   C600    1.307   .     A
O596   Cu602   1.967   .     S
O597   Cu601   1.967   .     S
O597   C600    1.307   .     A
O598   C599    1.307   .     A
O598   Cu602   1.967   .     S
C599   C603    1.436   .     S
C600   C604    1.436   .     S
Cu601  Cu602   2.720   .     S
Cu601  N615    2.044   .     S
Cu602  N616    2.044   .     S
C603   C2116   1.207   1_554 S
C604   C1359   1.207   .     S
C605   N617    1.451   .     S
C605   C610    1.414   .     A
C606   C609    1.414   .     A
C606   N620    1.451   .     S
C606   C692    1.412   .     S
C607   C609    1.414   .     A
C607   N623    1.451   .     S
C607   C689    1.412   .     S
C608   N626    1.451   .     S
C608   C610    1.414   .     A
C611   N616    1.379   .     A
C611   C629    1.481   .     S
C612   C640    1.481   .     S
C612   N615    1.379   .     A
C612   C109    1.430   1_565 S
C613   N616    1.379   .     A
C613   C651    1.481   .     S
C614   N615    1.379   .     A
C614   C662    1.481   .     S
C614   C107    1.430   1_565 S
N617   O618    1.299   .     A
N617   O619    1.298   .     A
N620   O622    1.299   .     A
N620   O621    1.299   .     A
N623   O624    1.299   .     A
N623   O625    1.299   .     A
N626   O627    1.298   .     A
N626   O628    1.299   .     A
C629   C630    1.399   .     A
C629   C634    1.398   .     A
C630   C631    1.396   .     A
C630   H635    1.078   .     S
C631   C632    1.395   .     A
C631   H2148   1.076   1_554 S
C632   C633    1.393   .     A
C632   H2149   1.082   1_554 S
C633   H638    1.079   .     S
C633   C634    1.400   .     A
C634   H639    1.074   .     S
H636   C1387   1.076   .     S
H637   C1388   1.082   .     S
C640   C641    1.398   .     A
C640   C645    1.399   .     A
C641   H646    1.074   .     S
C641   C642    1.400   .     A
C642   C643    1.393   .     A
C642   H647    1.079   .     S
C643   C644    1.395   .     A
C643   H1404   1.082   .     S
C644   C645    1.396   .     A
C644   H1405   1.076   .     S
C645   H650    1.078   .     S
H648   C2155   1.082   1_554 S
H649   C2156   1.076   1_554 S
C651   C656    1.399   .     A
C651   C652    1.398   .     A
C652   H657    1.074   .     S
C652   C653    1.400   .     A
C653   C654    1.393   .     A
C653   H658    1.079   .     S
C654   C655    1.395   .     A
C654   H1415   1.082   .     S
C655   C656    1.396   .     A
C655   H1416   1.076   .     S
C656   H661    1.078   .     S
H659   C2166   1.082   1_554 S
H660   C2167   1.076   1_554 S
C662   C663    1.399   .     A
C662   C667    1.398   .     A
C663   C664    1.396   .     A
C663   H668    1.078   .     S
C664   C665    1.395   .     A
C664   H2181   1.076   1_554 S
C665   C666    1.393   .     A
C665   H2182   1.082   1_554 S
C666   H671    1.079   .     S
C666   C667    1.400   .     A
C667   H672    1.074   .     S
H669   C1420   1.076   .     S
H670   C1421   1.082   .     S
O673   C677    1.313   .     A
O673   Cu685   1.977   .     S
O674   C678    1.313   .     A
O674   Cu686   1.977   .     S
O675   C678    1.313   .     A
O675   Cu685   1.977   .     S
O676   C677    1.313   .     A
O676   Cu686   1.977   .     S
C677   C694    1.491   .     S
C678   C693    1.491   .     S
O679   C683    1.307   .     A
O679   Cu685   1.967   .     S
O680   C684    1.307   .     A
O680   Cu686   1.967   .     S
O681   Cu685   1.967   .     S
O681   C684    1.307   .     A
O682   C683    1.307   .     A
O682   Cu686   1.967   .     S
C683   C687    1.436   .     S
C684   C688    1.436   .     S
Cu685  Cu686   2.720   .     S
Cu685  N699    2.044   .     S
Cu686  N700    2.044   .     S
C687   C2200   1.207   1_554 S
C688   C1443   1.207   .     S
C689   N701    1.451   .     S
C689   C694    1.414   .     A
C690   C693    1.414   .     A
C690   N704    1.451   .     S
C690   C524    1.412   1_655 S
C691   C693    1.414   .     A
C691   N707    1.451   .     S
C691   C521    1.412   1_655 S
C692   N710    1.451   .     S
C692   C694    1.414   .     A
C695   N700    1.379   .     A
C695   C713    1.481   .     S
C696   C724    1.481   .     S
C696   N699    1.379   .     A
C696   C193    1.430   1_565 S
C697   N700    1.379   .     A
C697   C735    1.481   .     S
C698   N699    1.379   .     A
C698   C746    1.481   .     S
C698   C191    1.430   1_565 S
N701   O702    1.299   .     A
N701   O703    1.298   .     A
N704   O706    1.299   .     A
N704   O705    1.299   .     A
N707   O708    1.299   .     A
N707   O709    1.299   .     A
N710   O711    1.298   .     A
N710   O712    1.299   .     A
C713   C714    1.399   .     A
C713   C718    1.398   .     A
C714   C715    1.396   .     A
C714   H719    1.078   .     S
C715   C716    1.395   .     A
C715   H2232   1.076   1_554 S
C716   C717    1.393   .     A
C716   H2233   1.082   1_554 S
C717   H722    1.079   .     S
C717   C718    1.400   .     A
C718   H723    1.074   .     S
H720   C1471   1.076   .     S
H721   C1472   1.082   .     S
C724   C725    1.398   .     A
C724   C729    1.399   .     A
C725   H730    1.074   .     S
C725   C726    1.400   .     A
C726   C727    1.393   .     A
C726   H731    1.079   .     S
C727   C728    1.395   .     A
C727   H1488   1.082   .     S
C728   C729    1.396   .     A
C728   H1489   1.076   .     S
C729   H734    1.078   .     S
H732   C2239   1.082   1_554 S
H733   C2240   1.076   1_554 S
C735   C740    1.399   .     A
C735   C736    1.398   .     A
C736   H741    1.074   .     S
C736   C737    1.400   .     A
C737   C738    1.393   .     A
C737   H742    1.079   .     S
C738   C739    1.395   .     A
C738   H1499   1.082   .     S
C739   C740    1.396   .     A
C739   H1500   1.076   .     S
C740   H745    1.078   .     S
H743   C2250   1.082   1_554 S
H744   C2251   1.076   1_554 S
C746   C747    1.399   .     A
C746   C751    1.398   .     A
C747   C748    1.396   .     A
C747   H752    1.078   .     S
C748   C749    1.395   .     A
C748   H2265   1.076   1_554 S
C749   C750    1.393   .     A
C749   H2266   1.082   1_554 S
C750   H755    1.079   .     S
C750   C751    1.400   .     A
C751   H756    1.074   .     S
H753   C1504   1.076   .     S
H754   C1505   1.082   .     S
O757   C761    1.313   .     A
O757   Cu769   1.977   .     S
O758   C762    1.313   .     A
O758   Cu770   1.977   .     S
O759   C762    1.313   .     A
O759   Cu769   1.977   .     S
O760   C761    1.313   .     A
O760   Cu770   1.977   .     S
C761   C778    1.491   .     S
C762   C777    1.491   .     S
O763   C767    1.307   .     A
O763   Cu769   1.967   .     S
O764   C768    1.307   .     A
O764   Cu770   1.967   .     S
O765   Cu769   1.967   .     S
O765   C768    1.307   .     A
O766   C767    1.307   .     A
O766   Cu770   1.967   .     S
C767   C771    1.436   .     S
C768   C772    1.436   .     S
Cu769  Cu770   2.720   .     S
Cu769  N783    2.044   .     S
Cu770  N784    2.044   .     S
C772   C1527   1.207   .     S
C773   N785    1.451   .     S
C773   C778    1.414   .     A
C773   C943    1.412   1_455 S
C774   C777    1.414   .     A
C774   N788    1.451   .     S
C774   C860    1.412   .     S
C775   C777    1.414   .     A
C775   N791    1.451   .     S
C775   C857    1.412   .     S
C776   N794    1.451   .     S
C776   C778    1.414   .     A
C776   C942    1.412   1_455 S
C779   N784    1.379   .     A
C779   C797    1.481   .     S
C779   C1286   1.430   1_545 S
C780   C808    1.481   .     S
C780   N783    1.379   .     A
C780   C1033   1.430   .     S
C781   N784    1.379   .     A
C781   C819    1.481   .     S
C781   C1284   1.430   1_545 S
C782   N783    1.379   .     A
C782   C830    1.481   .     S
C782   C1031   1.430   .     S
N785   O786    1.299   .     A
N785   O787    1.298   .     A
N788   O790    1.299   .     A
N788   O789    1.299   .     A
N791   O792    1.299   .     A
N791   O793    1.299   .     A
N794   O795    1.298   .     A
N794   O796    1.299   .     A
C797   C798    1.399   .     A
C797   C802    1.398   .     A
C798   C799    1.396   .     A
C798   H803    1.078   .     S
C799   C800    1.395   .     A
C800   C801    1.393   .     A
C801   H806    1.079   .     S
C801   C802    1.400   .     A
C802   H807    1.074   .     S
H804   C1555   1.076   .     S
H805   C1556   1.082   .     S
C808   C809    1.398   .     A
C808   C813    1.399   .     A
C809   H814    1.074   .     S
C809   C810    1.400   .     A
C810   C811    1.393   .     A
C810   H815    1.079   .     S
C811   C812    1.395   .     A
C811   H1572   1.082   .     S
C812   C813    1.396   .     A
C812   H1573   1.076   .     S
C813   H818    1.078   .     S
C819   C824    1.399   .     A
C819   C820    1.398   .     A
C820   H825    1.074   .     S
C820   C821    1.400   .     A
C821   C822    1.393   .     A
C821   H826    1.079   .     S
C822   C823    1.395   .     A
C822   H1583   1.082   .     S
C823   C824    1.396   .     A
C823   H1584   1.076   .     S
C824   H829    1.078   .     S
C830   C831    1.399   .     A
C830   C835    1.398   .     A
C831   C832    1.396   .     A
C831   H836    1.078   .     S
C832   C833    1.395   .     A
C833   C834    1.393   .     A
C834   H839    1.079   .     S
C834   C835    1.400   .     A
C835   H840    1.074   .     S
H837   C1588   1.076   .     S
H838   C1589   1.082   .     S
O841   C845    1.313   .     A
O841   Cu853   1.977   .     S
O842   C846    1.313   .     A
O842   Cu854   1.977   .     S
O843   C846    1.313   .     A
O843   Cu853   1.977   .     S
O844   C845    1.313   .     A
O844   Cu854   1.977   .     S
C845   C862    1.491   .     S
C846   C861    1.491   .     S
O847   C851    1.307   .     A
O847   Cu853   1.967   .     S
O848   C852    1.307   .     A
O848   Cu854   1.967   .     S
O849   Cu853   1.967   .     S
O849   C852    1.307   .     A
O850   C851    1.307   .     A
O850   Cu854   1.967   .     S
C851   C855    1.436   .     S
C852   C856    1.436   .     S
Cu853  Cu854   2.720   .     S
Cu853  N867    2.044   .     S
Cu854  N868    2.044   .     S
C856   C1611   1.207   .     S
C857   N869    1.451   .     S
C857   C862    1.414   .     A
C858   C861    1.414   .     A
C858   N872    1.451   .     S
C858   C944    1.412   .     S
C859   C861    1.414   .     A
C859   N875    1.451   .     S
C859   C941    1.412   .     S
C860   N878    1.451   .     S
C860   C862    1.414   .     A
C863   N868    1.379   .     A
C863   C881    1.481   .     S
C863   C1370   1.430   1_545 S
C864   C892    1.481   .     S
C864   N867    1.379   .     A
C864   C1117   1.430   .     S
C865   N868    1.379   .     A
C865   C903    1.481   .     S
C865   C1368   1.430   1_545 S
C866   N867    1.379   .     A
C866   C914    1.481   .     S
C866   C1115   1.430   .     S
N869   O870    1.299   .     A
N869   O871    1.298   .     A
N872   O874    1.299   .     A
N872   O873    1.299   .     A
N875   O876    1.299   .     A
N875   O877    1.299   .     A
N878   O879    1.298   .     A
N878   O880    1.299   .     A
C881   C882    1.399   .     A
C881   C886    1.398   .     A
C882   C883    1.396   .     A
C882   H887    1.078   .     S
C883   C884    1.395   .     A
C884   C885    1.393   .     A
C885   H890    1.079   .     S
C885   C886    1.400   .     A
C886   H891    1.074   .     S
H888   C1639   1.076   .     S
H889   C1640   1.082   .     S
C892   C893    1.398   .     A
C892   C897    1.399   .     A
C893   H898    1.074   .     S
C893   C894    1.400   .     A
C894   C895    1.393   .     A
C894   H899    1.079   .     S
C895   C896    1.395   .     A
C895   H1656   1.082   .     S
C896   C897    1.396   .     A
C896   H1657   1.076   .     S
C897   H902    1.078   .     S
C903   C908    1.399   .     A
C903   C904    1.398   .     A
C904   H909    1.074   .     S
C904   C905    1.400   .     A
C905   C906    1.393   .     A
C905   H910    1.079   .     S
C906   C907    1.395   .     A
C906   H1667   1.082   .     S
C907   C908    1.396   .     A
C907   H1668   1.076   .     S
C908   H913    1.078   .     S
C914   C915    1.399   .     A
C914   C919    1.398   .     A
C915   C916    1.396   .     A
C915   H920    1.078   .     S
C916   C917    1.395   .     A
C917   C918    1.393   .     A
C918   H923    1.079   .     S
C918   C919    1.400   .     A
C919   H924    1.074   .     S
H921   C1672   1.076   .     S
H922   C1673   1.082   .     S
O925   C929    1.313   .     A
O925   Cu937   1.977   .     S
O926   C930    1.313   .     A
O926   Cu938   1.977   .     S
O927   C930    1.313   .     A
O927   Cu937   1.977   .     S
O928   C929    1.313   .     A
O928   Cu938   1.977   .     S
C929   C946    1.491   .     S
C930   C945    1.491   .     S
O931   C935    1.307   .     A
O931   Cu937   1.967   .     S
O932   C936    1.307   .     A
O932   Cu938   1.967   .     S
O933   Cu937   1.967   .     S
O933   C936    1.307   .     A
O934   C935    1.307   .     A
O934   Cu938   1.967   .     S
C935   C939    1.436   .     S
C936   C940    1.436   .     S
Cu937  Cu938   2.720   .     S
Cu937  N951    2.044   .     S
Cu938  N952    2.044   .     S
C940   C1695   1.207   .     S
C941   N953    1.451   .     S
C941   C946    1.414   .     A
C942   C945    1.414   .     A
C942   N956    1.451   .     S
C942   C776    1.412   1_655 S
C943   C945    1.414   .     A
C943   N959    1.451   .     S
C943   C773    1.412   1_655 S
C944   N962    1.451   .     S
C944   C946    1.414   .     A
C947   N952    1.379   .     A
C947   C965    1.481   .     S
C947   C1454   1.430   1_545 S
C948   C976    1.481   .     S
C948   N951    1.379   .     A
C948   C1201   1.430   .     S
C949   N952    1.379   .     A
C949   C987    1.481   .     S
C949   C1452   1.430   1_545 S
C950   N951    1.379   .     A
C950   C998    1.481   .     S
C950   C1199   1.430   .     S
N953   O954    1.299   .     A
N953   O955    1.298   .     A
N956   O958    1.299   .     A
N956   O957    1.299   .     A
N959   O960    1.299   .     A
N959   O961    1.299   .     A
N962   O963    1.298   .     A
N962   O964    1.299   .     A
C965   C966    1.399   .     A
C965   C970    1.398   .     A
C966   C967    1.396   .     A
C966   H971    1.078   .     S
C967   C968    1.395   .     A
C968   C969    1.393   .     A
C969   H974    1.079   .     S
C969   C970    1.400   .     A
C970   H975    1.074   .     S
H972   C1723   1.076   .     S
H973   C1724   1.082   .     S
C976   C977    1.398   .     A
C976   C981    1.399   .     A
C977   H982    1.074   .     S
C977   C978    1.400   .     A
C978   C979    1.393   .     A
C978   H983    1.079   .     S
C979   C980    1.395   .     A
C979   H1740   1.082   .     S
C980   C981    1.396   .     A
C980   H1741   1.076   .     S
C981   H986    1.078   .     S
C987   C992    1.399   .     A
C987   C988    1.398   .     A
C988   H993    1.074   .     S
C988   C989    1.400   .     A
C989   C990    1.393   .     A
C989   H994    1.079   .     S
C990   C991    1.395   .     A
C990   H1751   1.082   .     S
C991   C992    1.396   .     A
C991   H1752   1.076   .     S
C992   H997    1.078   .     S
C998   C999    1.399   .     A
C998   C1003   1.398   .     A
C999   C1000   1.396   .     A
C999   H1004   1.078   .     S
C1000  C1001   1.395   .     A
C1001  C1002   1.393   .     A
C1002  H1007   1.079   .     S
C1002  C1003   1.400   .     A
C1003  H1008   1.074   .     S
H1005  C1756   1.076   .     S
H1006  C1757   1.082   .     S
O1009  C1013   1.313   .     A
O1009  Cu1021  1.977   .     S
O1010  C1014   1.313   .     A
O1010  Cu1022  1.977   .     S
O1011  C1014   1.313   .     A
O1011  Cu1021  1.977   .     S
O1012  C1013   1.313   .     A
O1012  Cu1022  1.977   .     S
C1013  C1030   1.491   .     S
C1014  C1029   1.491   .     S
O1015  C1019   1.307   .     A
O1015  Cu1021  1.967   .     S
O1016  C1020   1.307   .     A
O1016  Cu1022  1.967   .     S
O1017  Cu1021  1.967   .     S
O1017  C1020   1.307   .     A
O1018  C1019   1.307   .     A
O1018  Cu1022  1.967   .     S
C1019  C1023   1.436   .     S
C1020  C1024   1.436   .     S
Cu1021 Cu1022  2.720   .     S
Cu1021 N1035   2.044   .     S
Cu1022 N1036   2.044   .     S
C1024  C1779   1.207   .     S
C1025  N1037   1.451   .     S
C1025  C1030   1.414   .     A
C1025  C1195   1.412   1_455 S
C1026  C1029   1.414   .     A
C1026  N1040   1.451   .     S
C1026  C1112   1.412   .     S
C1027  C1029   1.414   .     A
C1027  N1043   1.451   .     S
C1027  C1109   1.412   .     S
C1028  N1046   1.451   .     S
C1028  C1030   1.414   .     A
C1028  C1194   1.412   1_455 S
C1031  N1036   1.379   .     A
C1031  C1049   1.481   .     S
C1032  C1060   1.481   .     S
C1032  N1035   1.379   .     A
C1032  C1285   1.430   .     S
C1033  N1036   1.379   .     A
C1033  C1071   1.481   .     S
C1034  N1035   1.379   .     A
C1034  C1082   1.481   .     S
C1034  C1283   1.430   .     S
N1037  O1038   1.299   .     A
N1037  O1039   1.298   .     A
N1040  O1042   1.299   .     A
N1040  O1041   1.299   .     A
N1043  O1044   1.299   .     A
N1043  O1045   1.299   .     A
N1046  O1047   1.298   .     A
N1046  O1048   1.299   .     A
C1049  C1050   1.399   .     A
C1049  C1054   1.398   .     A
C1050  C1051   1.396   .     A
C1050  H1055   1.078   .     S
C1051  C1052   1.395   .     A
C1052  C1053   1.393   .     A
C1053  H1058   1.079   .     S
C1053  C1054   1.400   .     A
C1054  H1059   1.074   .     S
H1056  C1807   1.076   .     S
H1057  C1808   1.082   .     S
C1060  C1061   1.398   .     A
C1060  C1065   1.399   .     A
C1061  H1066   1.074   .     S
C1061  C1062   1.400   .     A
C1062  C1063   1.393   .     A
C1062  H1067   1.079   .     S
C1063  C1064   1.395   .     A
C1063  H1824   1.082   .     S
C1064  C1065   1.396   .     A
C1064  H1825   1.076   .     S
C1065  H1070   1.078   .     S
C1071  C1076   1.399   .     A
C1071  C1072   1.398   .     A
C1072  H1077   1.074   .     S
C1072  C1073   1.400   .     A
C1073  C1074   1.393   .     A
C1073  H1078   1.079   .     S
C1074  C1075   1.395   .     A
C1074  H1835   1.082   .     S
C1075  C1076   1.396   .     A
C1075  H1836   1.076   .     S
C1076  H1081   1.078   .     S
C1082  C1083   1.399   .     A
C1082  C1087   1.398   .     A
C1083  C1084   1.396   .     A
C1083  H1088   1.078   .     S
C1084  C1085   1.395   .     A
C1085  C1086   1.393   .     A
C1086  H1091   1.079   .     S
C1086  C1087   1.400   .     A
C1087  H1092   1.074   .     S
H1089  C1840   1.076   .     S
H1090  C1841   1.082   .     S
O1093  C1097   1.313   .     A
O1093  Cu1105  1.977   .     S
O1094  C1098   1.313   .     A
O1094  Cu1106  1.977   .     S
O1095  C1098   1.313   .     A
O1095  Cu1105  1.977   .     S
O1096  C1097   1.313   .     A
O1096  Cu1106  1.977   .     S
C1097  C1114   1.491   .     S
C1098  C1113   1.491   .     S
O1099  C1103   1.307   .     A
O1099  Cu1105  1.967   .     S
O1100  C1104   1.307   .     A
O1100  Cu1106  1.967   .     S
O1101  Cu1105  1.967   .     S
O1101  C1104   1.307   .     A
O1102  C1103   1.307   .     A
O1102  Cu1106  1.967   .     S
C1103  C1107   1.436   .     S
C1104  C1108   1.436   .     S
Cu1105 Cu1106  2.720   .     S
Cu1105 N1119   2.044   .     S
Cu1106 N1120   2.044   .     S
C1108  C1863   1.207   .     S
C1109  N1121   1.451   .     S
C1109  C1114   1.414   .     A
C1110  C1113   1.414   .     A
C1110  N1124   1.451   .     S
C1110  C1196   1.412   .     S
C1111  C1113   1.414   .     A
C1111  N1127   1.451   .     S
C1111  C1193   1.412   .     S
C1112  N1130   1.451   .     S
C1112  C1114   1.414   .     A
C1115  N1120   1.379   .     A
C1115  C1133   1.481   .     S
C1116  C1144   1.481   .     S
C1116  N1119   1.379   .     A
C1116  C1369   1.430   .     S
C1117  N1120   1.379   .     A
C1117  C1155   1.481   .     S
C1118  N1119   1.379   .     A
C1118  C1166   1.481   .     S
C1118  C1367   1.430   .     S
N1121  O1122   1.299   .     A
N1121  O1123   1.298   .     A
N1124  O1126   1.299   .     A
N1124  O1125   1.299   .     A
N1127  O1128   1.299   .     A
N1127  O1129   1.299   .     A
N1130  O1131   1.298   .     A
N1130  O1132   1.299   .     A
C1133  C1134   1.399   .     A
C1133  C1138   1.398   .     A
C1134  C1135   1.396   .     A
C1134  H1139   1.078   .     S
C1135  C1136   1.395   .     A
C1136  C1137   1.393   .     A
C1137  H1142   1.079   .     S
C1137  C1138   1.400   .     A
C1138  H1143   1.074   .     S
H1140  C1891   1.076   .     S
H1141  C1892   1.082   .     S
C1144  C1145   1.398   .     A
C1144  C1149   1.399   .     A
C1145  H1150   1.074   .     S
C1145  C1146   1.400   .     A
C1146  C1147   1.393   .     A
C1146  H1151   1.079   .     S
C1147  C1148   1.395   .     A
C1147  H1908   1.082   .     S
C1148  C1149   1.396   .     A
C1148  H1909   1.076   .     S
C1149  H1154   1.078   .     S
C1155  C1160   1.399   .     A
C1155  C1156   1.398   .     A
C1156  H1161   1.074   .     S
C1156  C1157   1.400   .     A
C1157  C1158   1.393   .     A
C1157  H1162   1.079   .     S
C1158  C1159   1.395   .     A
C1158  H1919   1.082   .     S
C1159  C1160   1.396   .     A
C1159  H1920   1.076   .     S
C1160  H1165   1.078   .     S
C1166  C1167   1.399   .     A
C1166  C1171   1.398   .     A
C1167  C1168   1.396   .     A
C1167  H1172   1.078   .     S
C1168  C1169   1.395   .     A
C1169  C1170   1.393   .     A
C1170  H1175   1.079   .     S
C1170  C1171   1.400   .     A
C1171  H1176   1.074   .     S
H1173  C1924   1.076   .     S
H1174  C1925   1.082   .     S
O1177  C1181   1.313   .     A
O1177  Cu1189  1.977   .     S
O1178  C1182   1.313   .     A
O1178  Cu1190  1.977   .     S
O1179  C1182   1.313   .     A
O1179  Cu1189  1.977   .     S
O1180  C1181   1.313   .     A
O1180  Cu1190  1.977   .     S
C1181  C1198   1.491   .     S
C1182  C1197   1.491   .     S
O1183  C1187   1.307   .     A
O1183  Cu1189  1.967   .     S
O1184  C1188   1.307   .     A
O1184  Cu1190  1.967   .     S
O1185  Cu1189  1.967   .     S
O1185  C1188   1.307   .     A
O1186  C1187   1.307   .     A
O1186  Cu1190  1.967   .     S
C1187  C1191   1.436   .     S
C1188  C1192   1.436   .     S
Cu1189 Cu1190  2.720   .     S
Cu1189 N1203   2.044   .     S
Cu1190 N1204   2.044   .     S
C1192  C1947   1.207   .     S
C1193  N1205   1.451   .     S
C1193  C1198   1.414   .     A
C1194  C1197   1.414   .     A
C1194  N1208   1.451   .     S
C1194  C1028   1.412   1_655 S
C1195  C1197   1.414   .     A
C1195  N1211   1.451   .     S
C1195  C1025   1.412   1_655 S
C1196  N1214   1.451   .     S
C1196  C1198   1.414   .     A
C1199  N1204   1.379   .     A
C1199  C1217   1.481   .     S
C1200  C1228   1.481   .     S
C1200  N1203   1.379   .     A
C1200  C1453   1.430   .     S
C1201  N1204   1.379   .     A
C1201  C1239   1.481   .     S
C1202  N1203   1.379   .     A
C1202  C1250   1.481   .     S
C1202  C1451   1.430   .     S
N1205  O1206   1.299   .     A
N1205  O1207   1.298   .     A
N1208  O1210   1.299   .     A
N1208  O1209   1.299   .     A
N1211  O1212   1.299   .     A
N1211  O1213   1.299   .     A
N1214  O1215   1.298   .     A
N1214  O1216   1.299   .     A
C1217  C1218   1.399   .     A
C1217  C1222   1.398   .     A
C1218  C1219   1.396   .     A
C1218  H1223   1.078   .     S
C1219  C1220   1.395   .     A
C1220  C1221   1.393   .     A
C1221  H1226   1.079   .     S
C1221  C1222   1.400   .     A
C1222  H1227   1.074   .     S
H1224  C1975   1.076   .     S
H1225  C1976   1.082   .     S
C1228  C1229   1.398   .     A
C1228  C1233   1.399   .     A
C1229  H1234   1.074   .     S
C1229  C1230   1.400   .     A
C1230  C1231   1.393   .     A
C1230  H1235   1.079   .     S
C1231  C1232   1.395   .     A
C1231  H1992   1.082   .     S
C1232  C1233   1.396   .     A
C1232  H1993   1.076   .     S
C1233  H1238   1.078   .     S
C1239  C1244   1.399   .     A
C1239  C1240   1.398   .     A
C1240  H1245   1.074   .     S
C1240  C1241   1.400   .     A
C1241  C1242   1.393   .     A
C1241  H1246   1.079   .     S
C1242  C1243   1.395   .     A
C1242  H2003   1.082   .     S
C1243  C1244   1.396   .     A
C1243  H2004   1.076   .     S
C1244  H1249   1.078   .     S
C1250  C1251   1.399   .     A
C1250  C1255   1.398   .     A
C1251  C1252   1.396   .     A
C1251  H1256   1.078   .     S
C1252  C1253   1.395   .     A
C1253  C1254   1.393   .     A
C1254  H1259   1.079   .     S
C1254  C1255   1.400   .     A
C1255  H1260   1.074   .     S
H1257  C2008   1.076   .     S
H1258  C2009   1.082   .     S
O1261  C1265   1.313   .     A
O1261  Cu1273  1.977   .     S
O1262  C1266   1.313   .     A
O1262  Cu1274  1.977   .     S
O1263  C1266   1.313   .     A
O1263  Cu1273  1.977   .     S
O1264  C1265   1.313   .     A
O1264  Cu1274  1.977   .     S
C1265  C1282   1.491   .     S
C1266  C1281   1.491   .     S
O1267  C1271   1.307   .     A
O1267  Cu1273  1.967   .     S
O1268  C1272   1.307   .     A
O1268  Cu1274  1.967   .     S
O1269  Cu1273  1.967   .     S
O1269  C1272   1.307   .     A
O1270  C1271   1.307   .     A
O1270  Cu1274  1.967   .     S
C1271  C1275   1.436   .     S
C1272  C1276   1.436   .     S
Cu1273 Cu1274  2.720   .     S
Cu1273 N1287   2.044   .     S
Cu1274 N1288   2.044   .     S
C1276  C2031   1.207   .     S
C1277  N1289   1.451   .     S
C1277  C1282   1.414   .     A
C1277  C1447   1.412   1_455 S
C1278  C1281   1.414   .     A
C1278  N1292   1.451   .     S
C1278  C1364   1.412   .     S
C1279  C1281   1.414   .     A
C1279  N1295   1.451   .     S
C1279  C1361   1.412   .     S
C1280  N1298   1.451   .     S
C1280  C1282   1.414   .     A
C1280  C1446   1.412   1_455 S
C1283  N1288   1.379   .     A
C1283  C1301   1.481   .     S
C1284  C1312   1.481   .     S
C1284  N1287   1.379   .     A
C1284  C781    1.430   1_565 S
C1285  N1288   1.379   .     A
C1285  C1323   1.481   .     S
C1286  N1287   1.379   .     A
C1286  C1334   1.481   .     S
C1286  C779    1.430   1_565 S
N1289  O1290   1.299   .     A
N1289  O1291   1.298   .     A
N1292  O1294   1.299   .     A
N1292  O1293   1.299   .     A
N1295  O1296   1.299   .     A
N1295  O1297   1.299   .     A
N1298  O1299   1.298   .     A
N1298  O1300   1.299   .     A
C1301  C1302   1.399   .     A
C1301  C1306   1.398   .     A
C1302  C1303   1.396   .     A
C1302  H1307   1.078   .     S
C1303  C1304   1.395   .     A
C1304  C1305   1.393   .     A
C1305  H1310   1.079   .     S
C1305  C1306   1.400   .     A
C1306  H1311   1.074   .     S
H1308  C2059   1.076   .     S
H1309  C2060   1.082   .     S
C1312  C1313   1.398   .     A
C1312  C1317   1.399   .     A
C1313  H1318   1.074   .     S
C1313  C1314   1.400   .     A
C1314  C1315   1.393   .     A
C1314  H1319   1.079   .     S
C1315  C1316   1.395   .     A
C1315  H2076   1.082   .     S
C1316  C1317   1.396   .     A
C1316  H2077   1.076   .     S
C1317  H1322   1.078   .     S
C1323  C1328   1.399   .     A
C1323  C1324   1.398   .     A
C1324  H1329   1.074   .     S
C1324  C1325   1.400   .     A
C1325  C1326   1.393   .     A
C1325  H1330   1.079   .     S
C1326  C1327   1.395   .     A
C1326  H2087   1.082   .     S
C1327  C1328   1.396   .     A
C1327  H2088   1.076   .     S
C1328  H1333   1.078   .     S
C1334  C1335   1.399   .     A
C1334  C1339   1.398   .     A
C1335  C1336   1.396   .     A
C1335  H1340   1.078   .     S
C1336  C1337   1.395   .     A
C1337  C1338   1.393   .     A
C1338  H1343   1.079   .     S
C1338  C1339   1.400   .     A
C1339  H1344   1.074   .     S
H1341  C2092   1.076   .     S
H1342  C2093   1.082   .     S
O1345  C1349   1.313   .     A
O1345  Cu1357  1.977   .     S
O1346  C1350   1.313   .     A
O1346  Cu1358  1.977   .     S
O1347  C1350   1.313   .     A
O1347  Cu1357  1.977   .     S
O1348  C1349   1.313   .     A
O1348  Cu1358  1.977   .     S
C1349  C1366   1.491   .     S
C1350  C1365   1.491   .     S
O1351  C1355   1.307   .     A
O1351  Cu1357  1.967   .     S
O1352  C1356   1.307   .     A
O1352  Cu1358  1.967   .     S
O1353  Cu1357  1.967   .     S
O1353  C1356   1.307   .     A
O1354  C1355   1.307   .     A
O1354  Cu1358  1.967   .     S
C1355  C1359   1.436   .     S
C1356  C1360   1.436   .     S
Cu1357 Cu1358  2.720   .     S
Cu1357 N1371   2.044   .     S
Cu1358 N1372   2.044   .     S
C1360  C2115   1.207   .     S
C1361  N1373   1.451   .     S
C1361  C1366   1.414   .     A
C1362  C1365   1.414   .     A
C1362  N1376   1.451   .     S
C1362  C1448   1.412   .     S
C1363  C1365   1.414   .     A
C1363  N1379   1.451   .     S
C1363  C1445   1.412   .     S
C1364  N1382   1.451   .     S
C1364  C1366   1.414   .     A
C1367  N1372   1.379   .     A
C1367  C1385   1.481   .     S
C1368  C1396   1.481   .     S
C1368  N1371   1.379   .     A
C1368  C865    1.430   1_565 S
C1369  N1372   1.379   .     A
C1369  C1407   1.481   .     S
C1370  N1371   1.379   .     A
C1370  C1418   1.481   .     S
C1370  C863    1.430   1_565 S
N1373  O1374   1.299   .     A
N1373  O1375   1.298   .     A
N1376  O1378   1.299   .     A
N1376  O1377   1.299   .     A
N1379  O1380   1.299   .     A
N1379  O1381   1.299   .     A
N1382  O1383   1.298   .     A
N1382  O1384   1.299   .     A
C1385  C1386   1.399   .     A
C1385  C1390   1.398   .     A
C1386  C1387   1.396   .     A
C1386  H1391   1.078   .     S
C1387  C1388   1.395   .     A
C1388  C1389   1.393   .     A
C1389  H1394   1.079   .     S
C1389  C1390   1.400   .     A
C1390  H1395   1.074   .     S
H1392  C2143   1.076   .     S
H1393  C2144   1.082   .     S
C1396  C1397   1.398   .     A
C1396  C1401   1.399   .     A
C1397  H1402   1.074   .     S
C1397  C1398   1.400   .     A
C1398  C1399   1.393   .     A
C1398  H1403   1.079   .     S
C1399  C1400   1.395   .     A
C1399  H2160   1.082   .     S
C1400  C1401   1.396   .     A
C1400  H2161   1.076   .     S
C1401  H1406   1.078   .     S
C1407  C1412   1.399   .     A
C1407  C1408   1.398   .     A
C1408  H1413   1.074   .     S
C1408  C1409   1.400   .     A
C1409  C1410   1.393   .     A
C1409  H1414   1.079   .     S
C1410  C1411   1.395   .     A
C1410  H2171   1.082   .     S
C1411  C1412   1.396   .     A
C1411  H2172   1.076   .     S
C1412  H1417   1.078   .     S
C1418  C1419   1.399   .     A
C1418  C1423   1.398   .     A
C1419  C1420   1.396   .     A
C1419  H1424   1.078   .     S
C1420  C1421   1.395   .     A
C1421  C1422   1.393   .     A
C1422  H1427   1.079   .     S
C1422  C1423   1.400   .     A
C1423  H1428   1.074   .     S
H1425  C2176   1.076   .     S
H1426  C2177   1.082   .     S
O1429  C1433   1.313   .     A
O1429  Cu1441  1.977   .     S
O1430  C1434   1.313   .     A
O1430  Cu1442  1.977   .     S
O1431  C1434   1.313   .     A
O1431  Cu1441  1.977   .     S
O1432  C1433   1.313   .     A
O1432  Cu1442  1.977   .     S
C1433  C1450   1.491   .     S
C1434  C1449   1.491   .     S
O1435  C1439   1.307   .     A
O1435  Cu1441  1.967   .     S
O1436  C1440   1.307   .     A
O1436  Cu1442  1.967   .     S
O1437  Cu1441  1.967   .     S
O1437  C1440   1.307   .     A
O1438  C1439   1.307   .     A
O1438  Cu1442  1.967   .     S
C1439  C1443   1.436   .     S
C1440  C1444   1.436   .     S
Cu1441 Cu1442  2.720   .     S
Cu1441 N1455   2.044   .     S
Cu1442 N1456   2.044   .     S
C1444  C2199   1.207   .     S
C1445  N1457   1.451   .     S
C1445  C1450   1.414   .     A
C1446  C1449   1.414   .     A
C1446  N1460   1.451   .     S
C1446  C1280   1.412   1_655 S
C1447  C1449   1.414   .     A
C1447  N1463   1.451   .     S
C1447  C1277   1.412   1_655 S
C1448  N1466   1.451   .     S
C1448  C1450   1.414   .     A
C1451  N1456   1.379   .     A
C1451  C1469   1.481   .     S
C1452  C1480   1.481   .     S
C1452  N1455   1.379   .     A
C1452  C949    1.430   1_565 S
C1453  N1456   1.379   .     A
C1453  C1491   1.481   .     S
C1454  N1455   1.379   .     A
C1454  C1502   1.481   .     S
C1454  C947    1.430   1_565 S
N1457  O1458   1.299   .     A
N1457  O1459   1.298   .     A
N1460  O1462   1.299   .     A
N1460  O1461   1.299   .     A
N1463  O1464   1.299   .     A
N1463  O1465   1.299   .     A
N1466  O1467   1.298   .     A
N1466  O1468   1.299   .     A
C1469  C1470   1.399   .     A
C1469  C1474   1.398   .     A
C1470  C1471   1.396   .     A
C1470  H1475   1.078   .     S
C1471  C1472   1.395   .     A
C1472  C1473   1.393   .     A
C1473  H1478   1.079   .     S
C1473  C1474   1.400   .     A
C1474  H1479   1.074   .     S
H1476  C2227   1.076   .     S
H1477  C2228   1.082   .     S
C1480  C1481   1.398   .     A
C1480  C1485   1.399   .     A
C1481  H1486   1.074   .     S
C1481  C1482   1.400   .     A
C1482  C1483   1.393   .     A
C1482  H1487   1.079   .     S
C1483  C1484   1.395   .     A
C1483  H2244   1.082   .     S
C1484  C1485   1.396   .     A
C1484  H2245   1.076   .     S
C1485  H1490   1.078   .     S
C1491  C1496   1.399   .     A
C1491  C1492   1.398   .     A
C1492  H1497   1.074   .     S
C1492  C1493   1.400   .     A
C1493  C1494   1.393   .     A
C1493  H1498   1.079   .     S
C1494  C1495   1.395   .     A
C1494  H2255   1.082   .     S
C1495  C1496   1.396   .     A
C1495  H2256   1.076   .     S
C1496  H1501   1.078   .     S
C1502  C1503   1.399   .     A
C1502  C1507   1.398   .     A
C1503  C1504   1.396   .     A
C1503  H1508   1.078   .     S
C1504  C1505   1.395   .     A
C1505  C1506   1.393   .     A
C1506  H1511   1.079   .     S
C1506  C1507   1.400   .     A
C1507  H1512   1.074   .     S
H1509  C2260   1.076   .     S
H1510  C2261   1.082   .     S
O1513  C1517   1.313   .     A
O1513  Cu1525  1.977   .     S
O1514  C1518   1.313   .     A
O1514  Cu1526  1.977   .     S
O1515  C1518   1.313   .     A
O1515  Cu1525  1.977   .     S
O1516  C1517   1.313   .     A
O1516  Cu1526  1.977   .     S
C1517  C1534   1.491   .     S
C1518  C1533   1.491   .     S
O1519  C1523   1.307   .     A
O1519  Cu1525  1.967   .     S
O1520  C1524   1.307   .     A
O1520  Cu1526  1.967   .     S
O1521  Cu1525  1.967   .     S
O1521  C1524   1.307   .     A
O1522  C1523   1.307   .     A
O1522  Cu1526  1.967   .     S
C1523  C1527   1.436   .     S
C1524  C1528   1.436   .     S
Cu1525 Cu1526  2.720   .     S
Cu1525 N1539   2.044   .     S
Cu1526 N1540   2.044   .     S
C1528  C15     1.207   1_556 S
C1529  N1541   1.451   .     S
C1529  C1534   1.414   .     A
C1529  C1699   1.412   1_455 S
C1530  C1533   1.414   .     A
C1530  N1544   1.451   .     S
C1530  C1616   1.412   .     S
C1531  C1533   1.414   .     A
C1531  N1547   1.451   .     S
C1531  C1613   1.412   .     S
C1532  N1550   1.451   .     S
C1532  C1534   1.414   .     A
C1532  C1698   1.412   1_455 S
C1535  N1540   1.379   .     A
C1535  C1553   1.481   .     S
C1535  C2042   1.430   1_545 S
C1536  C1564   1.481   .     S
C1536  N1539   1.379   .     A
C1536  C1789   1.430   .     S
C1537  N1540   1.379   .     A
C1537  C1575   1.481   .     S
C1537  C2040   1.430   1_545 S
C1538  N1539   1.379   .     A
C1538  C1586   1.481   .     S
C1538  C1787   1.430   .     S
N1541  O1542   1.299   .     A
N1541  O1543   1.298   .     A
N1544  O1546   1.299   .     A
N1544  O1545   1.299   .     A
N1547  O1548   1.299   .     A
N1547  O1549   1.299   .     A
N1550  O1551   1.298   .     A
N1550  O1552   1.299   .     A
C1553  C1554   1.399   .     A
C1553  C1558   1.398   .     A
C1554  C1555   1.396   .     A
C1554  H1559   1.078   .     S
C1555  C1556   1.395   .     A
C1556  C1557   1.393   .     A
C1557  H1562   1.079   .     S
C1557  C1558   1.400   .     A
C1558  H1563   1.074   .     S
H1560  C43     1.076   1_556 S
H1561  C44     1.082   1_556 S
C1564  C1565   1.398   .     A
C1564  C1569   1.399   .     A
C1565  H1570   1.074   .     S
C1565  C1566   1.400   .     A
C1566  C1567   1.393   .     A
C1566  H1571   1.079   .     S
C1567  C1568   1.395   .     A
C1567  H60     1.082   1_556 S
C1568  C1569   1.396   .     A
C1568  H61     1.076   1_556 S
C1569  H1574   1.078   .     S
C1575  C1580   1.399   .     A
C1575  C1576   1.398   .     A
C1576  H1581   1.074   .     S
C1576  C1577   1.400   .     A
C1577  C1578   1.393   .     A
C1577  H1582   1.079   .     S
C1578  C1579   1.395   .     A
C1578  H71     1.082   1_556 S
C1579  C1580   1.396   .     A
C1579  H72     1.076   1_556 S
C1580  H1585   1.078   .     S
C1586  C1587   1.399   .     A
C1586  C1591   1.398   .     A
C1587  C1588   1.396   .     A
C1587  H1592   1.078   .     S
C1588  C1589   1.395   .     A
C1589  C1590   1.393   .     A
C1590  H1595   1.079   .     S
C1590  C1591   1.400   .     A
C1591  H1596   1.074   .     S
H1593  C76     1.076   1_556 S
H1594  C77     1.082   1_556 S
O1597  C1601   1.313   .     A
O1597  Cu1609  1.977   .     S
O1598  C1602   1.313   .     A
O1598  Cu1610  1.977   .     S
O1599  C1602   1.313   .     A
O1599  Cu1609  1.977   .     S
O1600  C1601   1.313   .     A
O1600  Cu1610  1.977   .     S
C1601  C1618   1.491   .     S
C1602  C1617   1.491   .     S
O1603  C1607   1.307   .     A
O1603  Cu1609  1.967   .     S
O1604  C1608   1.307   .     A
O1604  Cu1610  1.967   .     S
O1605  Cu1609  1.967   .     S
O1605  C1608   1.307   .     A
O1606  C1607   1.307   .     A
O1606  Cu1610  1.967   .     S
C1607  C1611   1.436   .     S
C1608  C1612   1.436   .     S
Cu1609 Cu1610  2.720   .     S
Cu1609 N1623   2.044   .     S
Cu1610 N1624   2.044   .     S
C1612  C99     1.207   1_556 S
C1613  N1625   1.451   .     S
C1613  C1618   1.414   .     A
C1614  C1617   1.414   .     A
C1614  N1628   1.451   .     S
C1614  C1700   1.412   .     S
C1615  C1617   1.414   .     A
C1615  N1631   1.451   .     S
C1615  C1697   1.412   .     S
C1616  N1634   1.451   .     S
C1616  C1618   1.414   .     A
C1619  N1624   1.379   .     A
C1619  C1637   1.481   .     S
C1619  C2126   1.430   1_545 S
C1620  C1648   1.481   .     S
C1620  N1623   1.379   .     A
C1620  C1873   1.430   .     S
C1621  N1624   1.379   .     A
C1621  C1659   1.481   .     S
C1621  C2124   1.430   1_545 S
C1622  N1623   1.379   .     A
C1622  C1670   1.481   .     S
C1622  C1871   1.430   .     S
N1625  O1626   1.299   .     A
N1625  O1627   1.298   .     A
N1628  O1630   1.299   .     A
N1628  O1629   1.299   .     A
N1631  O1632   1.299   .     A
N1631  O1633   1.299   .     A
N1634  O1635   1.298   .     A
N1634  O1636   1.299   .     A
C1637  C1638   1.399   .     A
C1637  C1642   1.398   .     A
C1638  C1639   1.396   .     A
C1638  H1643   1.078   .     S
C1639  C1640   1.395   .     A
C1640  C1641   1.393   .     A
C1641  H1646   1.079   .     S
C1641  C1642   1.400   .     A
C1642  H1647   1.074   .     S
H1644  C127    1.076   1_556 S
H1645  C128    1.082   1_556 S
C1648  C1649   1.398   .     A
C1648  C1653   1.399   .     A
C1649  H1654   1.074   .     S
C1649  C1650   1.400   .     A
C1650  C1651   1.393   .     A
C1650  H1655   1.079   .     S
C1651  C1652   1.395   .     A
C1651  H144    1.082   1_556 S
C1652  C1653   1.396   .     A
C1652  H145    1.076   1_556 S
C1653  H1658   1.078   .     S
C1659  C1664   1.399   .     A
C1659  C1660   1.398   .     A
C1660  H1665   1.074   .     S
C1660  C1661   1.400   .     A
C1661  C1662   1.393   .     A
C1661  H1666   1.079   .     S
C1662  C1663   1.395   .     A
C1662  H155    1.082   1_556 S
C1663  C1664   1.396   .     A
C1663  H156    1.076   1_556 S
C1664  H1669   1.078   .     S
C1670  C1671   1.399   .     A
C1670  C1675   1.398   .     A
C1671  C1672   1.396   .     A
C1671  H1676   1.078   .     S
C1672  C1673   1.395   .     A
C1673  C1674   1.393   .     A
C1674  H1679   1.079   .     S
C1674  C1675   1.400   .     A
C1675  H1680   1.074   .     S
H1677  C160    1.076   1_556 S
H1678  C161    1.082   1_556 S
O1681  C1685   1.313   .     A
O1681  Cu1693  1.977   .     S
O1682  C1686   1.313   .     A
O1682  Cu1694  1.977   .     S
O1683  C1686   1.313   .     A
O1683  Cu1693  1.977   .     S
O1684  C1685   1.313   .     A
O1684  Cu1694  1.977   .     S
C1685  C1702   1.491   .     S
C1686  C1701   1.491   .     S
O1687  C1691   1.307   .     A
O1687  Cu1693  1.967   .     S
O1688  C1692   1.307   .     A
O1688  Cu1694  1.967   .     S
O1689  Cu1693  1.967   .     S
O1689  C1692   1.307   .     A
O1690  C1691   1.307   .     A
O1690  Cu1694  1.967   .     S
C1691  C1695   1.436   .     S
C1692  C1696   1.436   .     S
Cu1693 Cu1694  2.720   .     S
Cu1693 N1707   2.044   .     S
Cu1694 N1708   2.044   .     S
C1696  C183    1.207   1_556 S
C1697  N1709   1.451   .     S
C1697  C1702   1.414   .     A
C1698  C1701   1.414   .     A
C1698  N1712   1.451   .     S
C1698  C1532   1.412   1_655 S
C1699  C1701   1.414   .     A
C1699  N1715   1.451   .     S
C1699  C1529   1.412   1_655 S
C1700  N1718   1.451   .     S
C1700  C1702   1.414   .     A
C1703  N1708   1.379   .     A
C1703  C1721   1.481   .     S
C1703  C2210   1.430   1_545 S
C1704  C1732   1.481   .     S
C1704  N1707   1.379   .     A
C1704  C1957   1.430   .     S
C1705  N1708   1.379   .     A
C1705  C1743   1.481   .     S
C1705  C2208   1.430   1_545 S
C1706  N1707   1.379   .     A
C1706  C1754   1.481   .     S
C1706  C1955   1.430   .     S
N1709  O1710   1.299   .     A
N1709  O1711   1.298   .     A
N1712  O1714   1.299   .     A
N1712  O1713   1.299   .     A
N1715  O1716   1.299   .     A
N1715  O1717   1.299   .     A
N1718  O1719   1.298   .     A
N1718  O1720   1.299   .     A
C1721  C1722   1.399   .     A
C1721  C1726   1.398   .     A
C1722  C1723   1.396   .     A
C1722  H1727   1.078   .     S
C1723  C1724   1.395   .     A
C1724  C1725   1.393   .     A
C1725  H1730   1.079   .     S
C1725  C1726   1.400   .     A
C1726  H1731   1.074   .     S
H1728  C211    1.076   1_556 S
H1729  C212    1.082   1_556 S
C1732  C1733   1.398   .     A
C1732  C1737   1.399   .     A
C1733  H1738   1.074   .     S
C1733  C1734   1.400   .     A
C1734  C1735   1.393   .     A
C1734  H1739   1.079   .     S
C1735  C1736   1.395   .     A
C1735  H228    1.082   1_556 S
C1736  C1737   1.396   .     A
C1736  H229    1.076   1_556 S
C1737  H1742   1.078   .     S
C1743  C1748   1.399   .     A
C1743  C1744   1.398   .     A
C1744  H1749   1.074   .     S
C1744  C1745   1.400   .     A
C1745  C1746   1.393   .     A
C1745  H1750   1.079   .     S
C1746  C1747   1.395   .     A
C1746  H239    1.082   1_556 S
C1747  C1748   1.396   .     A
C1747  H240    1.076   1_556 S
C1748  H1753   1.078   .     S
C1754  C1755   1.399   .     A
C1754  C1759   1.398   .     A
C1755  C1756   1.396   .     A
C1755  H1760   1.078   .     S
C1756  C1757   1.395   .     A
C1757  C1758   1.393   .     A
C1758  H1763   1.079   .     S
C1758  C1759   1.400   .     A
C1759  H1764   1.074   .     S
H1761  C244    1.076   1_556 S
H1762  C245    1.082   1_556 S
O1765  C1769   1.313   .     A
O1765  Cu1777  1.977   .     S
O1766  C1770   1.313   .     A
O1766  Cu1778  1.977   .     S
O1767  C1770   1.313   .     A
O1767  Cu1777  1.977   .     S
O1768  C1769   1.313   .     A
O1768  Cu1778  1.977   .     S
C1769  C1786   1.491   .     S
C1770  C1785   1.491   .     S
O1771  C1775   1.307   .     A
O1771  Cu1777  1.967   .     S
O1772  C1776   1.307   .     A
O1772  Cu1778  1.967   .     S
O1773  Cu1777  1.967   .     S
O1773  C1776   1.307   .     A
O1774  C1775   1.307   .     A
O1774  Cu1778  1.967   .     S
C1775  C1779   1.436   .     S
C1776  C1780   1.436   .     S
Cu1777 Cu1778  2.720   .     S
Cu1777 N1791   2.044   .     S
Cu1778 N1792   2.044   .     S
C1780  C267    1.207   1_556 S
C1781  N1793   1.451   .     S
C1781  C1786   1.414   .     A
C1781  C1951   1.412   1_455 S
C1782  C1785   1.414   .     A
C1782  N1796   1.451   .     S
C1782  C1868   1.412   .     S
C1783  C1785   1.414   .     A
C1783  N1799   1.451   .     S
C1783  C1865   1.412   .     S
C1784  N1802   1.451   .     S
C1784  C1786   1.414   .     A
C1784  C1950   1.412   1_455 S
C1787  N1792   1.379   .     A
C1787  C1805   1.481   .     S
C1788  C1816   1.481   .     S
C1788  N1791   1.379   .     A
C1788  C2041   1.430   .     S
C1789  N1792   1.379   .     A
C1789  C1827   1.481   .     S
C1790  N1791   1.379   .     A
C1790  C1838   1.481   .     S
C1790  C2039   1.430   .     S
N1793  O1794   1.299   .     A
N1793  O1795   1.298   .     A
N1796  O1798   1.299   .     A
N1796  O1797   1.299   .     A
N1799  O1800   1.299   .     A
N1799  O1801   1.299   .     A
N1802  O1803   1.298   .     A
N1802  O1804   1.299   .     A
C1805  C1806   1.399   .     A
C1805  C1810   1.398   .     A
C1806  C1807   1.396   .     A
C1806  H1811   1.078   .     S
C1807  C1808   1.395   .     A
C1808  C1809   1.393   .     A
C1809  H1814   1.079   .     S
C1809  C1810   1.400   .     A
C1810  H1815   1.074   .     S
H1812  C295    1.076   1_556 S
H1813  C296    1.082   1_556 S
C1816  C1817   1.398   .     A
C1816  C1821   1.399   .     A
C1817  H1822   1.074   .     S
C1817  C1818   1.400   .     A
C1818  C1819   1.393   .     A
C1818  H1823   1.079   .     S
C1819  C1820   1.395   .     A
C1819  H312    1.082   1_556 S
C1820  C1821   1.396   .     A
C1820  H313    1.076   1_556 S
C1821  H1826   1.078   .     S
C1827  C1832   1.399   .     A
C1827  C1828   1.398   .     A
C1828  H1833   1.074   .     S
C1828  C1829   1.400   .     A
C1829  C1830   1.393   .     A
C1829  H1834   1.079   .     S
C1830  C1831   1.395   .     A
C1830  H323    1.082   1_556 S
C1831  C1832   1.396   .     A
C1831  H324    1.076   1_556 S
C1832  H1837   1.078   .     S
C1838  C1839   1.399   .     A
C1838  C1843   1.398   .     A
C1839  C1840   1.396   .     A
C1839  H1844   1.078   .     S
C1840  C1841   1.395   .     A
C1841  C1842   1.393   .     A
C1842  H1847   1.079   .     S
C1842  C1843   1.400   .     A
C1843  H1848   1.074   .     S
H1845  C328    1.076   1_556 S
H1846  C329    1.082   1_556 S
O1849  C1853   1.313   .     A
O1849  Cu1861  1.977   .     S
O1850  C1854   1.313   .     A
O1850  Cu1862  1.977   .     S
O1851  C1854   1.313   .     A
O1851  Cu1861  1.977   .     S
O1852  C1853   1.313   .     A
O1852  Cu1862  1.977   .     S
C1853  C1870   1.491   .     S
C1854  C1869   1.491   .     S
O1855  C1859   1.307   .     A
O1855  Cu1861  1.967   .     S
O1856  C1860   1.307   .     A
O1856  Cu1862  1.967   .     S
O1857  Cu1861  1.967   .     S
O1857  C1860   1.307   .     A
O1858  C1859   1.307   .     A
O1858  Cu1862  1.967   .     S
C1859  C1863   1.436   .     S
C1860  C1864   1.436   .     S
Cu1861 Cu1862  2.720   .     S
Cu1861 N1875   2.044   .     S
Cu1862 N1876   2.044   .     S
C1864  C351    1.207   1_556 S
C1865  N1877   1.451   .     S
C1865  C1870   1.414   .     A
C1866  C1869   1.414   .     A
C1866  N1880   1.451   .     S
C1866  C1952   1.412   .     S
C1867  C1869   1.414   .     A
C1867  N1883   1.451   .     S
C1867  C1949   1.412   .     S
C1868  N1886   1.451   .     S
C1868  C1870   1.414   .     A
C1871  N1876   1.379   .     A
C1871  C1889   1.481   .     S
C1872  C1900   1.481   .     S
C1872  N1875   1.379   .     A
C1872  C2125   1.430   .     S
C1873  N1876   1.379   .     A
C1873  C1911   1.481   .     S
C1874  N1875   1.379   .     A
C1874  C1922   1.481   .     S
C1874  C2123   1.430   .     S
N1877  O1878   1.299   .     A
N1877  O1879   1.298   .     A
N1880  O1882   1.299   .     A
N1880  O1881   1.299   .     A
N1883  O1884   1.299   .     A
N1883  O1885   1.299   .     A
N1886  O1887   1.298   .     A
N1886  O1888   1.299   .     A
C1889  C1890   1.399   .     A
C1889  C1894   1.398   .     A
C1890  C1891   1.396   .     A
C1890  H1895   1.078   .     S
C1891  C1892   1.395   .     A
C1892  C1893   1.393   .     A
C1893  H1898   1.079   .     S
C1893  C1894   1.400   .     A
C1894  H1899   1.074   .     S
H1896  C379    1.076   1_556 S
H1897  C380    1.082   1_556 S
C1900  C1901   1.398   .     A
C1900  C1905   1.399   .     A
C1901  H1906   1.074   .     S
C1901  C1902   1.400   .     A
C1902  C1903   1.393   .     A
C1902  H1907   1.079   .     S
C1903  C1904   1.395   .     A
C1903  H396    1.082   1_556 S
C1904  C1905   1.396   .     A
C1904  H397    1.076   1_556 S
C1905  H1910   1.078   .     S
C1911  C1916   1.399   .     A
C1911  C1912   1.398   .     A
C1912  H1917   1.074   .     S
C1912  C1913   1.400   .     A
C1913  C1914   1.393   .     A
C1913  H1918   1.079   .     S
C1914  C1915   1.395   .     A
C1914  H407    1.082   1_556 S
C1915  C1916   1.396   .     A
C1915  H408    1.076   1_556 S
C1916  H1921   1.078   .     S
C1922  C1923   1.399   .     A
C1922  C1927   1.398   .     A
C1923  C1924   1.396   .     A
C1923  H1928   1.078   .     S
C1924  C1925   1.395   .     A
C1925  C1926   1.393   .     A
C1926  H1931   1.079   .     S
C1926  C1927   1.400   .     A
C1927  H1932   1.074   .     S
H1929  C412    1.076   1_556 S
H1930  C413    1.082   1_556 S
O1933  C1937   1.313   .     A
O1933  Cu1945  1.977   .     S
O1934  C1938   1.313   .     A
O1934  Cu1946  1.977   .     S
O1935  C1938   1.313   .     A
O1935  Cu1945  1.977   .     S
O1936  C1937   1.313   .     A
O1936  Cu1946  1.977   .     S
C1937  C1954   1.491   .     S
C1938  C1953   1.491   .     S
O1939  C1943   1.307   .     A
O1939  Cu1945  1.967   .     S
O1940  C1944   1.307   .     A
O1940  Cu1946  1.967   .     S
O1941  Cu1945  1.967   .     S
O1941  C1944   1.307   .     A
O1942  C1943   1.307   .     A
O1942  Cu1946  1.967   .     S
C1943  C1947   1.436   .     S
C1944  C1948   1.436   .     S
Cu1945 Cu1946  2.720   .     S
Cu1945 N1959   2.044   .     S
Cu1946 N1960   2.044   .     S
C1948  C435    1.207   1_556 S
C1949  N1961   1.451   .     S
C1949  C1954   1.414   .     A
C1950  C1953   1.414   .     A
C1950  N1964   1.451   .     S
C1950  C1784   1.412   1_655 S
C1951  C1953   1.414   .     A
C1951  N1967   1.451   .     S
C1951  C1781   1.412   1_655 S
C1952  N1970   1.451   .     S
C1952  C1954   1.414   .     A
C1955  N1960   1.379   .     A
C1955  C1973   1.481   .     S
C1956  C1984   1.481   .     S
C1956  N1959   1.379   .     A
C1956  C2209   1.430   .     S
C1957  N1960   1.379   .     A
C1957  C1995   1.481   .     S
C1958  N1959   1.379   .     A
C1958  C2006   1.481   .     S
C1958  C2207   1.430   .     S
N1961  O1962   1.299   .     A
N1961  O1963   1.298   .     A
N1964  O1966   1.299   .     A
N1964  O1965   1.299   .     A
N1967  O1968   1.299   .     A
N1967  O1969   1.299   .     A
N1970  O1971   1.298   .     A
N1970  O1972   1.299   .     A
C1973  C1974   1.399   .     A
C1973  C1978   1.398   .     A
C1974  C1975   1.396   .     A
C1974  H1979   1.078   .     S
C1975  C1976   1.395   .     A
C1976  C1977   1.393   .     A
C1977  H1982   1.079   .     S
C1977  C1978   1.400   .     A
C1978  H1983   1.074   .     S
H1980  C463    1.076   1_556 S
H1981  C464    1.082   1_556 S
C1984  C1985   1.398   .     A
C1984  C1989   1.399   .     A
C1985  H1990   1.074   .     S
C1985  C1986   1.400   .     A
C1986  C1987   1.393   .     A
C1986  H1991   1.079   .     S
C1987  C1988   1.395   .     A
C1987  H480    1.082   1_556 S
C1988  C1989   1.396   .     A
C1988  H481    1.076   1_556 S
C1989  H1994   1.078   .     S
C1995  C2000   1.399   .     A
C1995  C1996   1.398   .     A
C1996  H2001   1.074   .     S
C1996  C1997   1.400   .     A
C1997  C1998   1.393   .     A
C1997  H2002   1.079   .     S
C1998  C1999   1.395   .     A
C1998  H491    1.082   1_556 S
C1999  C2000   1.396   .     A
C1999  H492    1.076   1_556 S
C2000  H2005   1.078   .     S
C2006  C2007   1.399   .     A
C2006  C2011   1.398   .     A
C2007  C2008   1.396   .     A
C2007  H2012   1.078   .     S
C2008  C2009   1.395   .     A
C2009  C2010   1.393   .     A
C2010  H2015   1.079   .     S
C2010  C2011   1.400   .     A
C2011  H2016   1.074   .     S
H2013  C496    1.076   1_556 S
H2014  C497    1.082   1_556 S
O2017  C2021   1.313   .     A
O2017  Cu2029  1.977   .     S
O2018  C2022   1.313   .     A
O2018  Cu2030  1.977   .     S
O2019  C2022   1.313   .     A
O2019  Cu2029  1.977   .     S
O2020  C2021   1.313   .     A
O2020  Cu2030  1.977   .     S
C2021  C2038   1.491   .     S
C2022  C2037   1.491   .     S
O2023  C2027   1.307   .     A
O2023  Cu2029  1.967   .     S
O2024  C2028   1.307   .     A
O2024  Cu2030  1.967   .     S
O2025  Cu2029  1.967   .     S
O2025  C2028   1.307   .     A
O2026  C2027   1.307   .     A
O2026  Cu2030  1.967   .     S
C2027  C2031   1.436   .     S
C2028  C2032   1.436   .     S
Cu2029 Cu2030  2.720   .     S
Cu2029 N2043   2.044   .     S
Cu2030 N2044   2.044   .     S
C2032  C519    1.207   1_556 S
C2033  N2045   1.451   .     S
C2033  C2038   1.414   .     A
C2033  C2203   1.412   1_455 S
C2034  C2037   1.414   .     A
C2034  N2048   1.451   .     S
C2034  C2120   1.412   .     S
C2035  C2037   1.414   .     A
C2035  N2051   1.451   .     S
C2035  C2117   1.412   .     S
C2036  N2054   1.451   .     S
C2036  C2038   1.414   .     A
C2036  C2202   1.412   1_455 S
C2039  N2044   1.379   .     A
C2039  C2057   1.481   .     S
C2040  C2068   1.481   .     S
C2040  N2043   1.379   .     A
C2040  C1537   1.430   1_565 S
C2041  N2044   1.379   .     A
C2041  C2079   1.481   .     S
C2042  N2043   1.379   .     A
C2042  C2090   1.481   .     S
C2042  C1535   1.430   1_565 S
N2045  O2046   1.299   .     A
N2045  O2047   1.298   .     A
N2048  O2050   1.299   .     A
N2048  O2049   1.299   .     A
N2051  O2052   1.299   .     A
N2051  O2053   1.299   .     A
N2054  O2055   1.298   .     A
N2054  O2056   1.299   .     A
C2057  C2058   1.399   .     A
C2057  C2062   1.398   .     A
C2058  C2059   1.396   .     A
C2058  H2063   1.078   .     S
C2059  C2060   1.395   .     A
C2060  C2061   1.393   .     A
C2061  H2066   1.079   .     S
C2061  C2062   1.400   .     A
C2062  H2067   1.074   .     S
H2064  C547    1.076   1_556 S
H2065  C548    1.082   1_556 S
C2068  C2069   1.398   .     A
C2068  C2073   1.399   .     A
C2069  H2074   1.074   .     S
C2069  C2070   1.400   .     A
C2070  C2071   1.393   .     A
C2070  H2075   1.079   .     S
C2071  C2072   1.395   .     A
C2071  H564    1.082   1_556 S
C2072  C2073   1.396   .     A
C2072  H565    1.076   1_556 S
C2073  H2078   1.078   .     S
C2079  C2084   1.399   .     A
C2079  C2080   1.398   .     A
C2080  H2085   1.074   .     S
C2080  C2081   1.400   .     A
C2081  C2082   1.393   .     A
C2081  H2086   1.079   .     S
C2082  C2083   1.395   .     A
C2082  H575    1.082   1_556 S
C2083  C2084   1.396   .     A
C2083  H576    1.076   1_556 S
C2084  H2089   1.078   .     S
C2090  C2091   1.399   .     A
C2090  C2095   1.398   .     A
C2091  C2092   1.396   .     A
C2091  H2096   1.078   .     S
C2092  C2093   1.395   .     A
C2093  C2094   1.393   .     A
C2094  H2099   1.079   .     S
C2094  C2095   1.400   .     A
C2095  H2100   1.074   .     S
H2097  C580    1.076   1_556 S
H2098  C581    1.082   1_556 S
O2101  C2105   1.313   .     A
O2101  Cu2113  1.977   .     S
O2102  C2106   1.313   .     A
O2102  Cu2114  1.977   .     S
O2103  C2106   1.313   .     A
O2103  Cu2113  1.977   .     S
O2104  C2105   1.313   .     A
O2104  Cu2114  1.977   .     S
C2105  C2122   1.491   .     S
C2106  C2121   1.491   .     S
O2107  C2111   1.307   .     A
O2107  Cu2113  1.967   .     S
O2108  C2112   1.307   .     A
O2108  Cu2114  1.967   .     S
O2109  Cu2113  1.967   .     S
O2109  C2112   1.307   .     A
O2110  C2111   1.307   .     A
O2110  Cu2114  1.967   .     S
C2111  C2115   1.436   .     S
C2112  C2116   1.436   .     S
Cu2113 Cu2114  2.720   .     S
Cu2113 N2127   2.044   .     S
Cu2114 N2128   2.044   .     S
C2116  C603    1.207   1_556 S
C2117  N2129   1.451   .     S
C2117  C2122   1.414   .     A
C2118  C2121   1.414   .     A
C2118  N2132   1.451   .     S
C2118  C2204   1.412   .     S
C2119  C2121   1.414   .     A
C2119  N2135   1.451   .     S
C2119  C2201   1.412   .     S
C2120  N2138   1.451   .     S
C2120  C2122   1.414   .     A
C2123  N2128   1.379   .     A
C2123  C2141   1.481   .     S
C2124  C2152   1.481   .     S
C2124  N2127   1.379   .     A
C2124  C1621   1.430   1_565 S
C2125  N2128   1.379   .     A
C2125  C2163   1.481   .     S
C2126  N2127   1.379   .     A
C2126  C2174   1.481   .     S
C2126  C1619   1.430   1_565 S
N2129  O2130   1.299   .     A
N2129  O2131   1.298   .     A
N2132  O2134   1.299   .     A
N2132  O2133   1.299   .     A
N2135  O2136   1.299   .     A
N2135  O2137   1.299   .     A
N2138  O2139   1.298   .     A
N2138  O2140   1.299   .     A
C2141  C2142   1.399   .     A
C2141  C2146   1.398   .     A
C2142  C2143   1.396   .     A
C2142  H2147   1.078   .     S
C2143  C2144   1.395   .     A
C2144  C2145   1.393   .     A
C2145  H2150   1.079   .     S
C2145  C2146   1.400   .     A
C2146  H2151   1.074   .     S
H2148  C631    1.076   1_556 S
H2149  C632    1.082   1_556 S
C2152  C2153   1.398   .     A
C2152  C2157   1.399   .     A
C2153  H2158   1.074   .     S
C2153  C2154   1.400   .     A
C2154  C2155   1.393   .     A
C2154  H2159   1.079   .     S
C2155  C2156   1.395   .     A
C2155  H648    1.082   1_556 S
C2156  C2157   1.396   .     A
C2156  H649    1.076   1_556 S
C2157  H2162   1.078   .     S
C2163  C2168   1.399   .     A
C2163  C2164   1.398   .     A
C2164  H2169   1.074   .     S
C2164  C2165   1.400   .     A
C2165  C2166   1.393   .     A
C2165  H2170   1.079   .     S
C2166  C2167   1.395   .     A
C2166  H659    1.082   1_556 S
C2167  C2168   1.396   .     A
C2167  H660    1.076   1_556 S
C2168  H2173   1.078   .     S
C2174  C2175   1.399   .     A
C2174  C2179   1.398   .     A
C2175  C2176   1.396   .     A
C2175  H2180   1.078   .     S
C2176  C2177   1.395   .     A
C2177  C2178   1.393   .     A
C2178  H2183   1.079   .     S
C2178  C2179   1.400   .     A
C2179  H2184   1.074   .     S
H2181  C664    1.076   1_556 S
H2182  C665    1.082   1_556 S
O2185  C2189   1.313   .     A
O2185  Cu2197  1.977   .     S
O2186  C2190   1.313   .     A
O2186  Cu2198  1.977   .     S
O2187  C2190   1.313   .     A
O2187  Cu2197  1.977   .     S
O2188  C2189   1.313   .     A
O2188  Cu2198  1.977   .     S
C2189  C2206   1.491   .     S
C2190  C2205   1.491   .     S
O2191  C2195   1.307   .     A
O2191  Cu2197  1.967   .     S
O2192  C2196   1.307   .     A
O2192  Cu2198  1.967   .     S
O2193  Cu2197  1.967   .     S
O2193  C2196   1.307   .     A
O2194  C2195   1.307   .     A
O2194  Cu2198  1.967   .     S
C2195  C2199   1.436   .     S
C2196  C2200   1.436   .     S
Cu2197 Cu2198  2.720   .     S
Cu2197 N2211   2.044   .     S
Cu2198 N2212   2.044   .     S
C2200  C687    1.207   1_556 S
C2201  N2213   1.451   .     S
C2201  C2206   1.414   .     A
C2202  C2205   1.414   .     A
C2202  N2216   1.451   .     S
C2202  C2036   1.412   1_655 S
C2203  C2205   1.414   .     A
C2203  N2219   1.451   .     S
C2203  C2033   1.412   1_655 S
C2204  N2222   1.451   .     S
C2204  C2206   1.414   .     A
C2207  N2212   1.379   .     A
C2207  C2225   1.481   .     S
C2208  C2236   1.481   .     S
C2208  N2211   1.379   .     A
C2208  C1705   1.430   1_565 S
C2209  N2212   1.379   .     A
C2209  C2247   1.481   .     S
C2210  N2211   1.379   .     A
C2210  C2258   1.481   .     S
C2210  C1703   1.430   1_565 S
N2213  O2214   1.299   .     A
N2213  O2215   1.298   .     A
N2216  O2218   1.299   .     A
N2216  O2217   1.299   .     A
N2219  O2220   1.299   .     A
N2219  O2221   1.299   .     A
N2222  O2223   1.298   .     A
N2222  O2224   1.299   .     A
C2225  C2226   1.399   .     A
C2225  C2230   1.398   .     A
C2226  C2227   1.396   .     A
C2226  H2231   1.078   .     S
C2227  C2228   1.395   .     A
C2228  C2229   1.393   .     A
C2229  H2234   1.079   .     S
C2229  C2230   1.400   .     A
C2230  H2235   1.074   .     S
H2232  C715    1.076   1_556 S
H2233  C716    1.082   1_556 S
C2236  C2237   1.398   .     A
C2236  C2241   1.399   .     A
C2237  H2242   1.074   .     S
C2237  C2238   1.400   .     A
C2238  C2239   1.393   .     A
C2238  H2243   1.079   .     S
C2239  C2240   1.395   .     A
C2239  H732    1.082   1_556 S
C2240  C2241   1.396   .     A
C2240  H733    1.076   1_556 S
C2241  H2246   1.078   .     S
C2247  C2252   1.399   .     A
C2247  C2248   1.398   .     A
C2248  H2253   1.074   .     S
C2248  C2249   1.400   .     A
C2249  C2250   1.393   .     A
C2249  H2254   1.079   .     S
C2250  C2251   1.395   .     A
C2250  H743    1.082   1_556 S
C2251  C2252   1.396   .     A
C2251  H744    1.076   1_556 S
C2252  H2257   1.078   .     S
C2258  C2259   1.399   .     A
C2258  C2263   1.398   .     A
C2259  C2260   1.396   .     A
C2259  H2264   1.078   .     S
C2260  C2261   1.395   .     A
C2261  C2262   1.393   .     A
C2262  H2267   1.079   .     S
C2262  C2263   1.400   .     A
C2263  H2268   1.074   .     S
H2265  C748    1.076   1_556 S
H2266  C749    1.082   1_556 S
