data_str_m2_o10_o17_pcu_sym.155
_audit_creation_date              2020-01-03
_audit_creation_method            'Materials Studio'
_symmetry_space_group_name_H-M    'P1'
_symmetry_Int_Tables_number       1
_symmetry_cell_setting            triclinic
loop_
_symmetry_equiv_pos_as_xyz
  x,y,z
_cell_length_a                    29.9247
_cell_length_b                    26.2390
_cell_length_c                    22.3303
_cell_angle_alpha                 102.7276
_cell_angle_beta                  93.9555
_cell_angle_gamma                 92.5018
loop_
_atom_site_label
_atom_site_type_symbol
_atom_site_fract_x
_atom_site_fract_y
_atom_site_fract_z
_atom_site_U_iso_or_equiv
_atom_site_adp_type
_atom_site_occupancy
C1     C     0.24923   0.06685   0.15135   0.00000  Uiso   1.00
C2     C     0.25077   0.26648   0.18198   0.00000  Uiso   1.00
C3     C     0.01698   0.07072   0.14202   0.00000  Uiso   1.00
C4     C     0.48303   0.26262   0.19131   0.00000  Uiso   1.00
C5     C     0.25362   0.01170   0.14328   0.00000  Uiso   1.00
C6     C     0.24638   0.32164   0.19005   0.00000  Uiso   1.00
C7     C     0.16460   0.16625   0.16755   0.00000  Uiso   1.00
C8     C     0.33540   0.16708   0.16578   0.00000  Uiso   1.00
C9     C     0.40911   0.21602   0.17704   0.00000  Uiso   1.00
C10    C     0.09089   0.11732   0.15629   0.00000  Uiso   1.00
C11    C     0.38346   0.16805   0.16393   0.00000  Uiso   1.00
C12    C     0.11654   0.16528   0.16940   0.00000  Uiso   1.00
C13    C     0.40363   0.12039   0.15130   0.00000  Uiso   1.00
C14    C     0.09637   0.21295   0.18203   0.00000  Uiso   1.00
C15    C     0.45009   0.11951   0.15236   0.00000  Uiso   1.00
C16    C     0.04991   0.21383   0.18097   0.00000  Uiso   1.00
C17    C     0.47652   0.16714   0.16591   0.00000  Uiso   1.00
C18    C     0.02348   0.16619   0.16743   0.00000  Uiso   1.00
C19    C     0.45605   0.21566   0.17804   0.00000  Uiso   1.00
C20    C     0.04395   0.11767   0.15530   0.00000  Uiso   1.00
C21    C     0.47046   0.07169   0.14057   0.00000  Uiso   1.00
C22    C     0.02954   0.26164   0.19276   0.00000  Uiso   1.00
Cu23   Cu    0.25501   0.17246   0.22813   0.00000  Uiso   1.00
Cu24   Cu    0.24500   0.16087   0.10521   0.00000  Uiso   1.00
H25    H     0.38300   0.08400   0.14155   0.00000  Uiso   1.00
H26    H     0.11700   0.24933   0.19178   0.00000  Uiso   1.00
H27    H     0.45037   0.03498   0.13022   0.00000  Uiso   1.00
H28    H     0.04963   0.29835   0.20312   0.00000  Uiso   1.00
H29    H     0.03161   0.03303   0.13253   0.00000  Uiso   1.00
H30    H     0.46839   0.30030   0.20080   0.00000  Uiso   1.00
H31    H     0.21495   0.12624   0.31626   0.00000  Uiso   1.00
H32    H     0.28505   0.20709   0.01708   0.00000  Uiso   1.00
N33    N     0.23745   0.15214   0.01284   0.00000  Uiso   1.00
N34    N     0.26256   0.18119   0.32049   0.00000  Uiso   1.00
O35    O     0.25326   0.09538   0.20659   0.00000  Uiso   1.00
O36    O     0.24675   0.23796   0.12674   0.00000  Uiso   1.00
O37    O     0.24480   0.08559   0.10279   0.00000  Uiso   1.00
O38    O     0.25520   0.24774   0.23055   0.00000  Uiso   1.00
O39    O     0.18936   0.17155   0.21857   0.00000  Uiso   1.00
O40    O     0.31065   0.16179   0.11476   0.00000  Uiso   1.00
O41    O     0.18090   0.16176   0.11477   0.00000  Uiso   1.00
O42    O     0.31910   0.17157   0.21857   0.00000  Uiso   1.00
N43    N     0.38777   0.26485   0.18935   0.00000  Uiso   1.00
H44    H     0.36930   0.26649   0.22773   0.00000  Uiso   1.00
H45    H     0.36554   0.26588   0.15146   0.00000  Uiso   1.00
N46    N     0.11223   0.06848   0.14396   0.00000  Uiso   1.00
H47    H     0.13446   0.06745   0.18186   0.00000  Uiso   1.00
H48    H     0.13069   0.06685   0.10559   0.00000  Uiso   1.00
N49    N     0.26854   0.31697   0.08588   0.00000  Uiso   1.00
H50    H     0.29889   0.00173   0.07855   0.00000  Uiso   1.00
H51    H     0.24476   0.31965   0.05032   0.00000  Uiso   1.00
N52    N     0.23146   0.01636   0.24745   0.00000  Uiso   1.00
H53    H     0.20111   0.33161   0.25478   0.00000  Uiso   1.00
H54    H     0.25524   0.01368   0.28302   0.00000  Uiso   1.00
C55    C     0.74923   0.06685   0.15135   0.00000  Uiso   1.00
C56    C     0.75077   0.26648   0.18198   0.00000  Uiso   1.00
C57    C     0.51698   0.07072   0.14202   0.00000  Uiso   1.00
C58    C     0.98303   0.26262   0.19131   0.00000  Uiso   1.00
C59    C     0.75362   0.01170   0.14328   0.00000  Uiso   1.00
C60    C     0.74638   0.32164   0.19005   0.00000  Uiso   1.00
C61    C     0.66460   0.16625   0.16755   0.00000  Uiso   1.00
C62    C     0.83540   0.16708   0.16578   0.00000  Uiso   1.00
C63    C     0.90911   0.21602   0.17704   0.00000  Uiso   1.00
C64    C     0.59089   0.11732   0.15629   0.00000  Uiso   1.00
C65    C     0.88346   0.16805   0.16393   0.00000  Uiso   1.00
C66    C     0.61654   0.16528   0.16940   0.00000  Uiso   1.00
C67    C     0.90363   0.12039   0.15130   0.00000  Uiso   1.00
C68    C     0.59637   0.21295   0.18203   0.00000  Uiso   1.00
C69    C     0.95009   0.11951   0.15236   0.00000  Uiso   1.00
C70    C     0.54991   0.21383   0.18097   0.00000  Uiso   1.00
C71    C     0.97652   0.16714   0.16591   0.00000  Uiso   1.00
C72    C     0.52348   0.16619   0.16743   0.00000  Uiso   1.00
C73    C     0.95605   0.21566   0.17804   0.00000  Uiso   1.00
C74    C     0.54395   0.11767   0.15530   0.00000  Uiso   1.00
C75    C     0.97046   0.07169   0.14057   0.00000  Uiso   1.00
C76    C     0.52954   0.26164   0.19276   0.00000  Uiso   1.00
Cu77   Cu    0.75501   0.17246   0.22813   0.00000  Uiso   1.00
Cu78   Cu    0.74500   0.16087   0.10521   0.00000  Uiso   1.00
H79    H     0.88300   0.08400   0.14155   0.00000  Uiso   1.00
H80    H     0.61700   0.24933   0.19178   0.00000  Uiso   1.00
H81    H     0.95037   0.03498   0.13022   0.00000  Uiso   1.00
H82    H     0.54963   0.29835   0.20312   0.00000  Uiso   1.00
H83    H     0.53161   0.03303   0.13253   0.00000  Uiso   1.00
H84    H     0.96839   0.30030   0.20080   0.00000  Uiso   1.00
H85    H     0.71495   0.12624   0.31626   0.00000  Uiso   1.00
H86    H     0.78505   0.20709   0.01708   0.00000  Uiso   1.00
N87    N     0.73745   0.15214   0.01284   0.00000  Uiso   1.00
N88    N     0.76256   0.18119   0.32049   0.00000  Uiso   1.00
O89    O     0.75326   0.09538   0.20659   0.00000  Uiso   1.00
O90    O     0.74675   0.23796   0.12674   0.00000  Uiso   1.00
O91    O     0.74480   0.08559   0.10279   0.00000  Uiso   1.00
O92    O     0.75520   0.24774   0.23055   0.00000  Uiso   1.00
O93    O     0.68936   0.17155   0.21857   0.00000  Uiso   1.00
O94    O     0.81065   0.16179   0.11476   0.00000  Uiso   1.00
O95    O     0.68090   0.16176   0.11477   0.00000  Uiso   1.00
O96    O     0.81910   0.17157   0.21857   0.00000  Uiso   1.00
N97    N     0.88777   0.26485   0.18935   0.00000  Uiso   1.00
H98    H     0.86930   0.26649   0.22773   0.00000  Uiso   1.00
H99    H     0.86554   0.26588   0.15146   0.00000  Uiso   1.00
N100   N     0.61223   0.06848   0.14396   0.00000  Uiso   1.00
H101   H     0.63446   0.06745   0.18186   0.00000  Uiso   1.00
H102   H     0.63069   0.06685   0.10559   0.00000  Uiso   1.00
N103   N     0.76854   0.31697   0.08588   0.00000  Uiso   1.00
H104   H     0.79889   0.00173   0.07855   0.00000  Uiso   1.00
H105   H     0.74476   0.31965   0.05032   0.00000  Uiso   1.00
N106   N     0.73146   0.01636   0.24745   0.00000  Uiso   1.00
H107   H     0.70111   0.33161   0.25478   0.00000  Uiso   1.00
H108   H     0.75524   0.01368   0.28302   0.00000  Uiso   1.00
C109   C     0.24923   0.40018   0.15135   0.00000  Uiso   1.00
C110   C     0.25077   0.59982   0.18198   0.00000  Uiso   1.00
C111   C     0.01698   0.40405   0.14202   0.00000  Uiso   1.00
C112   C     0.48303   0.59595   0.19131   0.00000  Uiso   1.00
C113   C     0.25362   0.34503   0.14328   0.00000  Uiso   1.00
C114   C     0.24638   0.65497   0.19005   0.00000  Uiso   1.00
C115   C     0.16460   0.49958   0.16755   0.00000  Uiso   1.00
C116   C     0.33540   0.50042   0.16578   0.00000  Uiso   1.00
C117   C     0.40911   0.54935   0.17704   0.00000  Uiso   1.00
C118   C     0.09089   0.45065   0.15629   0.00000  Uiso   1.00
C119   C     0.38346   0.50138   0.16393   0.00000  Uiso   1.00
C120   C     0.11654   0.49862   0.16940   0.00000  Uiso   1.00
C121   C     0.40363   0.45372   0.15130   0.00000  Uiso   1.00
C122   C     0.09637   0.54628   0.18203   0.00000  Uiso   1.00
C123   C     0.45009   0.45284   0.15236   0.00000  Uiso   1.00
C124   C     0.04991   0.54716   0.18097   0.00000  Uiso   1.00
C125   C     0.47652   0.50047   0.16591   0.00000  Uiso   1.00
C126   C     0.02348   0.49953   0.16743   0.00000  Uiso   1.00
C127   C     0.45605   0.54900   0.17804   0.00000  Uiso   1.00
C128   C     0.04395   0.45100   0.15530   0.00000  Uiso   1.00
C129   C     0.47046   0.40503   0.14057   0.00000  Uiso   1.00
C130   C     0.02954   0.59497   0.19276   0.00000  Uiso   1.00
Cu131  Cu    0.25501   0.50579   0.22813   0.00000  Uiso   1.00
Cu132  Cu    0.24500   0.49421   0.10521   0.00000  Uiso   1.00
H133   H     0.38300   0.41733   0.14155   0.00000  Uiso   1.00
H134   H     0.11700   0.58267   0.19178   0.00000  Uiso   1.00
H135   H     0.45037   0.36831   0.13022   0.00000  Uiso   1.00
H136   H     0.04963   0.63169   0.20312   0.00000  Uiso   1.00
H137   H     0.03161   0.36637   0.13253   0.00000  Uiso   1.00
H138   H     0.46839   0.63363   0.20080   0.00000  Uiso   1.00
H139   H     0.21495   0.45958   0.31626   0.00000  Uiso   1.00
H140   H     0.28505   0.54042   0.01708   0.00000  Uiso   1.00
N141   N     0.23745   0.48547   0.01284   0.00000  Uiso   1.00
N142   N     0.26256   0.51453   0.32049   0.00000  Uiso   1.00
O143   O     0.25326   0.42871   0.20659   0.00000  Uiso   1.00
O144   O     0.24675   0.57129   0.12674   0.00000  Uiso   1.00
O145   O     0.24480   0.41892   0.10279   0.00000  Uiso   1.00
O146   O     0.25520   0.58108   0.23055   0.00000  Uiso   1.00
O147   O     0.18936   0.50488   0.21857   0.00000  Uiso   1.00
O148   O     0.31065   0.49512   0.11476   0.00000  Uiso   1.00
O149   O     0.18090   0.49510   0.11477   0.00000  Uiso   1.00
O150   O     0.31910   0.50490   0.21857   0.00000  Uiso   1.00
N151   N     0.38777   0.59818   0.18935   0.00000  Uiso   1.00
H152   H     0.36930   0.59982   0.22773   0.00000  Uiso   1.00
H153   H     0.36554   0.59922   0.15146   0.00000  Uiso   1.00
N154   N     0.11223   0.40182   0.14396   0.00000  Uiso   1.00
H155   H     0.13446   0.40078   0.18186   0.00000  Uiso   1.00
H156   H     0.13069   0.40019   0.10559   0.00000  Uiso   1.00
N157   N     0.26854   0.65031   0.08588   0.00000  Uiso   1.00
H158   H     0.29889   0.33506   0.07855   0.00000  Uiso   1.00
H159   H     0.24476   0.65298   0.05032   0.00000  Uiso   1.00
N160   N     0.23146   0.34969   0.24745   0.00000  Uiso   1.00
H161   H     0.20111   0.66494   0.25478   0.00000  Uiso   1.00
H162   H     0.25524   0.34702   0.28302   0.00000  Uiso   1.00
C163   C     0.74923   0.40018   0.15135   0.00000  Uiso   1.00
C164   C     0.75077   0.59982   0.18198   0.00000  Uiso   1.00
C165   C     0.51698   0.40405   0.14202   0.00000  Uiso   1.00
C166   C     0.98303   0.59595   0.19131   0.00000  Uiso   1.00
C167   C     0.75362   0.34503   0.14328   0.00000  Uiso   1.00
C168   C     0.74638   0.65497   0.19005   0.00000  Uiso   1.00
C169   C     0.66460   0.49958   0.16755   0.00000  Uiso   1.00
C170   C     0.83540   0.50042   0.16578   0.00000  Uiso   1.00
C171   C     0.90911   0.54935   0.17704   0.00000  Uiso   1.00
C172   C     0.59089   0.45065   0.15629   0.00000  Uiso   1.00
C173   C     0.88346   0.50138   0.16393   0.00000  Uiso   1.00
C174   C     0.61654   0.49862   0.16940   0.00000  Uiso   1.00
C175   C     0.90363   0.45372   0.15130   0.00000  Uiso   1.00
C176   C     0.59637   0.54628   0.18203   0.00000  Uiso   1.00
C177   C     0.95009   0.45284   0.15236   0.00000  Uiso   1.00
C178   C     0.54991   0.54716   0.18097   0.00000  Uiso   1.00
C179   C     0.97652   0.50047   0.16591   0.00000  Uiso   1.00
C180   C     0.52348   0.49953   0.16743   0.00000  Uiso   1.00
C181   C     0.95605   0.54900   0.17804   0.00000  Uiso   1.00
C182   C     0.54395   0.45100   0.15530   0.00000  Uiso   1.00
C183   C     0.97046   0.40503   0.14057   0.00000  Uiso   1.00
C184   C     0.52954   0.59497   0.19276   0.00000  Uiso   1.00
Cu185  Cu    0.75501   0.50579   0.22813   0.00000  Uiso   1.00
Cu186  Cu    0.74500   0.49421   0.10521   0.00000  Uiso   1.00
H187   H     0.88300   0.41733   0.14155   0.00000  Uiso   1.00
H188   H     0.61700   0.58267   0.19178   0.00000  Uiso   1.00
H189   H     0.95037   0.36831   0.13022   0.00000  Uiso   1.00
H190   H     0.54963   0.63169   0.20312   0.00000  Uiso   1.00
H191   H     0.53161   0.36637   0.13253   0.00000  Uiso   1.00
H192   H     0.96839   0.63363   0.20080   0.00000  Uiso   1.00
H193   H     0.71495   0.45958   0.31626   0.00000  Uiso   1.00
H194   H     0.78505   0.54042   0.01708   0.00000  Uiso   1.00
N195   N     0.73745   0.48547   0.01284   0.00000  Uiso   1.00
N196   N     0.76256   0.51453   0.32049   0.00000  Uiso   1.00
O197   O     0.75326   0.42871   0.20659   0.00000  Uiso   1.00
O198   O     0.74675   0.57129   0.12674   0.00000  Uiso   1.00
O199   O     0.74480   0.41892   0.10279   0.00000  Uiso   1.00
O200   O     0.75520   0.58108   0.23055   0.00000  Uiso   1.00
O201   O     0.68936   0.50488   0.21857   0.00000  Uiso   1.00
O202   O     0.81065   0.49512   0.11476   0.00000  Uiso   1.00
O203   O     0.68090   0.49510   0.11477   0.00000  Uiso   1.00
O204   O     0.81910   0.50490   0.21857   0.00000  Uiso   1.00
N205   N     0.88777   0.59818   0.18935   0.00000  Uiso   1.00
H206   H     0.86930   0.59982   0.22773   0.00000  Uiso   1.00
H207   H     0.86554   0.59922   0.15146   0.00000  Uiso   1.00
N208   N     0.61223   0.40182   0.14396   0.00000  Uiso   1.00
H209   H     0.63446   0.40078   0.18186   0.00000  Uiso   1.00
H210   H     0.63069   0.40019   0.10559   0.00000  Uiso   1.00
N211   N     0.76854   0.65031   0.08588   0.00000  Uiso   1.00
H212   H     0.79889   0.33506   0.07855   0.00000  Uiso   1.00
H213   H     0.74476   0.65298   0.05032   0.00000  Uiso   1.00
N214   N     0.73146   0.34969   0.24745   0.00000  Uiso   1.00
H215   H     0.70111   0.66494   0.25478   0.00000  Uiso   1.00
H216   H     0.75524   0.34702   0.28302   0.00000  Uiso   1.00
C217   C     0.24923   0.73352   0.15135   0.00000  Uiso   1.00
C218   C     0.25077   0.93315   0.18198   0.00000  Uiso   1.00
C219   C     0.01698   0.73738   0.14202   0.00000  Uiso   1.00
C220   C     0.48303   0.92928   0.19131   0.00000  Uiso   1.00
C221   C     0.25362   0.67836   0.14328   0.00000  Uiso   1.00
C222   C     0.24638   0.98830   0.19005   0.00000  Uiso   1.00
C223   C     0.16460   0.83292   0.16755   0.00000  Uiso   1.00
C224   C     0.33540   0.83375   0.16578   0.00000  Uiso   1.00
C225   C     0.40911   0.88268   0.17704   0.00000  Uiso   1.00
C226   C     0.09089   0.78398   0.15629   0.00000  Uiso   1.00
C227   C     0.38346   0.83472   0.16393   0.00000  Uiso   1.00
C228   C     0.11654   0.83195   0.16940   0.00000  Uiso   1.00
C229   C     0.40363   0.78705   0.15130   0.00000  Uiso   1.00
C230   C     0.09637   0.87961   0.18203   0.00000  Uiso   1.00
C231   C     0.45009   0.78617   0.15236   0.00000  Uiso   1.00
C232   C     0.04991   0.88049   0.18097   0.00000  Uiso   1.00
C233   C     0.47652   0.83381   0.16591   0.00000  Uiso   1.00
C234   C     0.02348   0.83286   0.16743   0.00000  Uiso   1.00
C235   C     0.45605   0.88233   0.17804   0.00000  Uiso   1.00
C236   C     0.04395   0.78434   0.15530   0.00000  Uiso   1.00
C237   C     0.47046   0.73836   0.14057   0.00000  Uiso   1.00
C238   C     0.02954   0.92831   0.19276   0.00000  Uiso   1.00
Cu239  Cu    0.25501   0.83913   0.22813   0.00000  Uiso   1.00
Cu240  Cu    0.24500   0.82754   0.10521   0.00000  Uiso   1.00
H241   H     0.38300   0.75067   0.14155   0.00000  Uiso   1.00
H242   H     0.11700   0.91600   0.19178   0.00000  Uiso   1.00
H243   H     0.45037   0.70164   0.13022   0.00000  Uiso   1.00
H244   H     0.04963   0.96502   0.20312   0.00000  Uiso   1.00
H245   H     0.03161   0.69970   0.13253   0.00000  Uiso   1.00
H246   H     0.46839   0.96696   0.20080   0.00000  Uiso   1.00
H247   H     0.21495   0.79291   0.31626   0.00000  Uiso   1.00
H248   H     0.28505   0.87376   0.01708   0.00000  Uiso   1.00
N249   N     0.23745   0.81881   0.01284   0.00000  Uiso   1.00
N250   N     0.26256   0.84786   0.32049   0.00000  Uiso   1.00
O251   O     0.25326   0.76204   0.20659   0.00000  Uiso   1.00
O252   O     0.24675   0.90462   0.12674   0.00000  Uiso   1.00
O253   O     0.24480   0.75226   0.10279   0.00000  Uiso   1.00
O254   O     0.25520   0.91441   0.23055   0.00000  Uiso   1.00
O255   O     0.18936   0.83821   0.21857   0.00000  Uiso   1.00
O256   O     0.31065   0.82845   0.11476   0.00000  Uiso   1.00
O257   O     0.18090   0.82843   0.11477   0.00000  Uiso   1.00
O258   O     0.31910   0.83824   0.21857   0.00000  Uiso   1.00
N259   N     0.38777   0.93152   0.18935   0.00000  Uiso   1.00
H260   H     0.36930   0.93315   0.22773   0.00000  Uiso   1.00
H261   H     0.36554   0.93255   0.15146   0.00000  Uiso   1.00
N262   N     0.11223   0.73515   0.14396   0.00000  Uiso   1.00
H263   H     0.13446   0.73411   0.18186   0.00000  Uiso   1.00
H264   H     0.13069   0.73352   0.10559   0.00000  Uiso   1.00
N265   N     0.26854   0.98364   0.08588   0.00000  Uiso   1.00
H266   H     0.29889   0.66839   0.07855   0.00000  Uiso   1.00
H267   H     0.24476   0.98632   0.05032   0.00000  Uiso   1.00
N268   N     0.23146   0.68303   0.24745   0.00000  Uiso   1.00
H269   H     0.20111   0.99827   0.25478   0.00000  Uiso   1.00
H270   H     0.25524   0.68035   0.28302   0.00000  Uiso   1.00
C271   C     0.74923   0.73352   0.15135   0.00000  Uiso   1.00
C272   C     0.75077   0.93315   0.18198   0.00000  Uiso   1.00
C273   C     0.51698   0.73738   0.14202   0.00000  Uiso   1.00
C274   C     0.98303   0.92928   0.19131   0.00000  Uiso   1.00
C275   C     0.75362   0.67836   0.14328   0.00000  Uiso   1.00
C276   C     0.74638   0.98830   0.19005   0.00000  Uiso   1.00
C277   C     0.66460   0.83292   0.16755   0.00000  Uiso   1.00
C278   C     0.83540   0.83375   0.16578   0.00000  Uiso   1.00
C279   C     0.90911   0.88268   0.17704   0.00000  Uiso   1.00
C280   C     0.59089   0.78398   0.15629   0.00000  Uiso   1.00
C281   C     0.88346   0.83472   0.16393   0.00000  Uiso   1.00
C282   C     0.61654   0.83195   0.16940   0.00000  Uiso   1.00
C283   C     0.90363   0.78705   0.15130   0.00000  Uiso   1.00
C284   C     0.59637   0.87961   0.18203   0.00000  Uiso   1.00
C285   C     0.95009   0.78617   0.15236   0.00000  Uiso   1.00
C286   C     0.54991   0.88049   0.18097   0.00000  Uiso   1.00
C287   C     0.97652   0.83381   0.16591   0.00000  Uiso   1.00
C288   C     0.52348   0.83286   0.16743   0.00000  Uiso   1.00
C289   C     0.95605   0.88233   0.17804   0.00000  Uiso   1.00
C290   C     0.54395   0.78434   0.15530   0.00000  Uiso   1.00
C291   C     0.97046   0.73836   0.14057   0.00000  Uiso   1.00
C292   C     0.52954   0.92831   0.19276   0.00000  Uiso   1.00
Cu293  Cu    0.75501   0.83913   0.22813   0.00000  Uiso   1.00
Cu294  Cu    0.74500   0.82754   0.10521   0.00000  Uiso   1.00
H295   H     0.88300   0.75067   0.14155   0.00000  Uiso   1.00
H296   H     0.61700   0.91600   0.19178   0.00000  Uiso   1.00
H297   H     0.95037   0.70164   0.13022   0.00000  Uiso   1.00
H298   H     0.54963   0.96502   0.20312   0.00000  Uiso   1.00
H299   H     0.53161   0.69970   0.13253   0.00000  Uiso   1.00
H300   H     0.96839   0.96696   0.20080   0.00000  Uiso   1.00
H301   H     0.71495   0.79291   0.31626   0.00000  Uiso   1.00
H302   H     0.78505   0.87376   0.01708   0.00000  Uiso   1.00
N303   N     0.73745   0.81881   0.01284   0.00000  Uiso   1.00
N304   N     0.76256   0.84786   0.32049   0.00000  Uiso   1.00
O305   O     0.75326   0.76204   0.20659   0.00000  Uiso   1.00
O306   O     0.74675   0.90462   0.12674   0.00000  Uiso   1.00
O307   O     0.74480   0.75226   0.10279   0.00000  Uiso   1.00
O308   O     0.75520   0.91441   0.23055   0.00000  Uiso   1.00
O309   O     0.68936   0.83821   0.21857   0.00000  Uiso   1.00
O310   O     0.81065   0.82845   0.11476   0.00000  Uiso   1.00
O311   O     0.68090   0.82843   0.11477   0.00000  Uiso   1.00
O312   O     0.81910   0.83824   0.21857   0.00000  Uiso   1.00
N313   N     0.88777   0.93152   0.18935   0.00000  Uiso   1.00
H314   H     0.86930   0.93315   0.22773   0.00000  Uiso   1.00
H315   H     0.86554   0.93255   0.15146   0.00000  Uiso   1.00
N316   N     0.61223   0.73515   0.14396   0.00000  Uiso   1.00
H317   H     0.63446   0.73411   0.18186   0.00000  Uiso   1.00
H318   H     0.63069   0.73352   0.10559   0.00000  Uiso   1.00
N319   N     0.76854   0.98364   0.08588   0.00000  Uiso   1.00
H320   H     0.79889   0.66839   0.07855   0.00000  Uiso   1.00
H321   H     0.74476   0.98632   0.05032   0.00000  Uiso   1.00
N322   N     0.73146   0.68303   0.24745   0.00000  Uiso   1.00
H323   H     0.70111   0.99827   0.25478   0.00000  Uiso   1.00
H324   H     0.75524   0.68035   0.28302   0.00000  Uiso   1.00
C325   C     0.24923   0.06685   0.48469   0.00000  Uiso   1.00
C326   C     0.25077   0.26648   0.51531   0.00000  Uiso   1.00
C327   C     0.01698   0.07072   0.47535   0.00000  Uiso   1.00
C328   C     0.48303   0.26262   0.52465   0.00000  Uiso   1.00
C329   C     0.25362   0.01170   0.47662   0.00000  Uiso   1.00
C330   C     0.24638   0.32164   0.52338   0.00000  Uiso   1.00
C331   C     0.16460   0.16625   0.50089   0.00000  Uiso   1.00
C332   C     0.33540   0.16708   0.49911   0.00000  Uiso   1.00
C333   C     0.40911   0.21602   0.51037   0.00000  Uiso   1.00
C334   C     0.09089   0.11732   0.48962   0.00000  Uiso   1.00
C335   C     0.38346   0.16805   0.49727   0.00000  Uiso   1.00
C336   C     0.11654   0.16528   0.50273   0.00000  Uiso   1.00
C337   C     0.40363   0.12039   0.48464   0.00000  Uiso   1.00
C338   C     0.09637   0.21295   0.51537   0.00000  Uiso   1.00
C339   C     0.45009   0.11951   0.48570   0.00000  Uiso   1.00
C340   C     0.04991   0.21383   0.51431   0.00000  Uiso   1.00
C341   C     0.47652   0.16714   0.49924   0.00000  Uiso   1.00
C342   C     0.02348   0.16619   0.50076   0.00000  Uiso   1.00
C343   C     0.45605   0.21566   0.51137   0.00000  Uiso   1.00
C344   C     0.04395   0.11767   0.48863   0.00000  Uiso   1.00
C345   C     0.47046   0.07169   0.47391   0.00000  Uiso   1.00
C346   C     0.02954   0.26164   0.52610   0.00000  Uiso   1.00
Cu347  Cu    0.25501   0.17246   0.56146   0.00000  Uiso   1.00
Cu348  Cu    0.24500   0.16087   0.43854   0.00000  Uiso   1.00
H349   H     0.38300   0.08400   0.47489   0.00000  Uiso   1.00
H350   H     0.11700   0.24933   0.52512   0.00000  Uiso   1.00
H351   H     0.45037   0.03498   0.46355   0.00000  Uiso   1.00
H352   H     0.04963   0.29835   0.53646   0.00000  Uiso   1.00
H353   H     0.03161   0.03303   0.46587   0.00000  Uiso   1.00
H354   H     0.46839   0.30030   0.53413   0.00000  Uiso   1.00
H355   H     0.21495   0.12624   0.64959   0.00000  Uiso   1.00
H356   H     0.28505   0.20709   0.35041   0.00000  Uiso   1.00
N357   N     0.23745   0.15214   0.34617   0.00000  Uiso   1.00
N358   N     0.26256   0.18119   0.65383   0.00000  Uiso   1.00
O359   O     0.25326   0.09538   0.53992   0.00000  Uiso   1.00
O360   O     0.24675   0.23796   0.46008   0.00000  Uiso   1.00
O361   O     0.24480   0.08559   0.43612   0.00000  Uiso   1.00
O362   O     0.25520   0.24774   0.56388   0.00000  Uiso   1.00
O363   O     0.18936   0.17155   0.55191   0.00000  Uiso   1.00
O364   O     0.31065   0.16179   0.44809   0.00000  Uiso   1.00
O365   O     0.18090   0.16176   0.44810   0.00000  Uiso   1.00
O366   O     0.31910   0.17157   0.55190   0.00000  Uiso   1.00
N367   N     0.38777   0.26485   0.52269   0.00000  Uiso   1.00
H368   H     0.36930   0.26649   0.56106   0.00000  Uiso   1.00
H369   H     0.36554   0.26588   0.48479   0.00000  Uiso   1.00
N370   N     0.11223   0.06848   0.47730   0.00000  Uiso   1.00
H371   H     0.13446   0.06745   0.51519   0.00000  Uiso   1.00
H372   H     0.13069   0.06685   0.43892   0.00000  Uiso   1.00
N373   N     0.26854   0.31697   0.41921   0.00000  Uiso   1.00
H374   H     0.29889   0.00173   0.41188   0.00000  Uiso   1.00
H375   H     0.24476   0.31965   0.38365   0.00000  Uiso   1.00
N376   N     0.23146   0.01636   0.58079   0.00000  Uiso   1.00
H377   H     0.20111   0.33161   0.58812   0.00000  Uiso   1.00
H378   H     0.25524   0.01368   0.61635   0.00000  Uiso   1.00
C379   C     0.74923   0.06685   0.48469   0.00000  Uiso   1.00
C380   C     0.75077   0.26648   0.51531   0.00000  Uiso   1.00
C381   C     0.51698   0.07072   0.47535   0.00000  Uiso   1.00
C382   C     0.98303   0.26262   0.52465   0.00000  Uiso   1.00
C383   C     0.75362   0.01170   0.47662   0.00000  Uiso   1.00
C384   C     0.74638   0.32164   0.52338   0.00000  Uiso   1.00
C385   C     0.66460   0.16625   0.50089   0.00000  Uiso   1.00
C386   C     0.83540   0.16708   0.49911   0.00000  Uiso   1.00
C387   C     0.90911   0.21602   0.51037   0.00000  Uiso   1.00
C388   C     0.59089   0.11732   0.48962   0.00000  Uiso   1.00
C389   C     0.88346   0.16805   0.49727   0.00000  Uiso   1.00
C390   C     0.61654   0.16528   0.50273   0.00000  Uiso   1.00
C391   C     0.90363   0.12039   0.48464   0.00000  Uiso   1.00
C392   C     0.59637   0.21295   0.51537   0.00000  Uiso   1.00
C393   C     0.95009   0.11951   0.48570   0.00000  Uiso   1.00
C394   C     0.54991   0.21383   0.51431   0.00000  Uiso   1.00
C395   C     0.97652   0.16714   0.49924   0.00000  Uiso   1.00
C396   C     0.52348   0.16619   0.50076   0.00000  Uiso   1.00
C397   C     0.95605   0.21566   0.51137   0.00000  Uiso   1.00
C398   C     0.54395   0.11767   0.48863   0.00000  Uiso   1.00
C399   C     0.97046   0.07169   0.47391   0.00000  Uiso   1.00
C400   C     0.52954   0.26164   0.52610   0.00000  Uiso   1.00
Cu401  Cu    0.75501   0.17246   0.56146   0.00000  Uiso   1.00
Cu402  Cu    0.74500   0.16087   0.43854   0.00000  Uiso   1.00
H403   H     0.88300   0.08400   0.47489   0.00000  Uiso   1.00
H404   H     0.61700   0.24933   0.52512   0.00000  Uiso   1.00
H405   H     0.95037   0.03498   0.46355   0.00000  Uiso   1.00
H406   H     0.54963   0.29835   0.53646   0.00000  Uiso   1.00
H407   H     0.53161   0.03303   0.46587   0.00000  Uiso   1.00
H408   H     0.96839   0.30030   0.53413   0.00000  Uiso   1.00
H409   H     0.71495   0.12624   0.64959   0.00000  Uiso   1.00
H410   H     0.78505   0.20709   0.35041   0.00000  Uiso   1.00
N411   N     0.73745   0.15214   0.34617   0.00000  Uiso   1.00
N412   N     0.76256   0.18119   0.65383   0.00000  Uiso   1.00
O413   O     0.75326   0.09538   0.53992   0.00000  Uiso   1.00
O414   O     0.74675   0.23796   0.46008   0.00000  Uiso   1.00
O415   O     0.74480   0.08559   0.43612   0.00000  Uiso   1.00
O416   O     0.75520   0.24774   0.56388   0.00000  Uiso   1.00
O417   O     0.68936   0.17155   0.55191   0.00000  Uiso   1.00
O418   O     0.81065   0.16179   0.44809   0.00000  Uiso   1.00
O419   O     0.68090   0.16176   0.44810   0.00000  Uiso   1.00
O420   O     0.81910   0.17157   0.55190   0.00000  Uiso   1.00
N421   N     0.88777   0.26485   0.52269   0.00000  Uiso   1.00
H422   H     0.86930   0.26649   0.56106   0.00000  Uiso   1.00
H423   H     0.86554   0.26588   0.48479   0.00000  Uiso   1.00
N424   N     0.61223   0.06848   0.47730   0.00000  Uiso   1.00
H425   H     0.63446   0.06745   0.51519   0.00000  Uiso   1.00
H426   H     0.63069   0.06685   0.43892   0.00000  Uiso   1.00
N427   N     0.76854   0.31697   0.41921   0.00000  Uiso   1.00
H428   H     0.79889   0.00173   0.41188   0.00000  Uiso   1.00
H429   H     0.74476   0.31965   0.38365   0.00000  Uiso   1.00
N430   N     0.73146   0.01636   0.58079   0.00000  Uiso   1.00
H431   H     0.70111   0.33161   0.58812   0.00000  Uiso   1.00
H432   H     0.75524   0.01368   0.61635   0.00000  Uiso   1.00
C433   C     0.24923   0.40018   0.48469   0.00000  Uiso   1.00
C434   C     0.25077   0.59982   0.51531   0.00000  Uiso   1.00
C435   C     0.01698   0.40405   0.47535   0.00000  Uiso   1.00
C436   C     0.48303   0.59595   0.52465   0.00000  Uiso   1.00
C437   C     0.25362   0.34503   0.47662   0.00000  Uiso   1.00
C438   C     0.24638   0.65497   0.52338   0.00000  Uiso   1.00
C439   C     0.16460   0.49958   0.50089   0.00000  Uiso   1.00
C440   C     0.33540   0.50042   0.49911   0.00000  Uiso   1.00
C441   C     0.40911   0.54935   0.51037   0.00000  Uiso   1.00
C442   C     0.09089   0.45065   0.48962   0.00000  Uiso   1.00
C443   C     0.38346   0.50138   0.49727   0.00000  Uiso   1.00
C444   C     0.11654   0.49862   0.50273   0.00000  Uiso   1.00
C445   C     0.40363   0.45372   0.48464   0.00000  Uiso   1.00
C446   C     0.09637   0.54628   0.51537   0.00000  Uiso   1.00
C447   C     0.45009   0.45284   0.48570   0.00000  Uiso   1.00
C448   C     0.04991   0.54716   0.51431   0.00000  Uiso   1.00
C449   C     0.47652   0.50047   0.49924   0.00000  Uiso   1.00
C450   C     0.02348   0.49953   0.50076   0.00000  Uiso   1.00
C451   C     0.45605   0.54900   0.51137   0.00000  Uiso   1.00
C452   C     0.04395   0.45100   0.48863   0.00000  Uiso   1.00
C453   C     0.47046   0.40503   0.47391   0.00000  Uiso   1.00
C454   C     0.02954   0.59497   0.52610   0.00000  Uiso   1.00
Cu455  Cu    0.25501   0.50579   0.56146   0.00000  Uiso   1.00
Cu456  Cu    0.24500   0.49421   0.43854   0.00000  Uiso   1.00
H457   H     0.38300   0.41733   0.47489   0.00000  Uiso   1.00
H458   H     0.11700   0.58267   0.52512   0.00000  Uiso   1.00
H459   H     0.45037   0.36831   0.46355   0.00000  Uiso   1.00
H460   H     0.04963   0.63169   0.53646   0.00000  Uiso   1.00
H461   H     0.03161   0.36637   0.46587   0.00000  Uiso   1.00
H462   H     0.46839   0.63363   0.53413   0.00000  Uiso   1.00
H463   H     0.21495   0.45958   0.64959   0.00000  Uiso   1.00
H464   H     0.28505   0.54042   0.35041   0.00000  Uiso   1.00
N465   N     0.23745   0.48547   0.34617   0.00000  Uiso   1.00
N466   N     0.26256   0.51453   0.65383   0.00000  Uiso   1.00
O467   O     0.25326   0.42871   0.53992   0.00000  Uiso   1.00
O468   O     0.24675   0.57129   0.46008   0.00000  Uiso   1.00
O469   O     0.24480   0.41892   0.43612   0.00000  Uiso   1.00
O470   O     0.25520   0.58108   0.56388   0.00000  Uiso   1.00
O471   O     0.18936   0.50488   0.55191   0.00000  Uiso   1.00
O472   O     0.31065   0.49512   0.44809   0.00000  Uiso   1.00
O473   O     0.18090   0.49510   0.44810   0.00000  Uiso   1.00
O474   O     0.31910   0.50490   0.55190   0.00000  Uiso   1.00
N475   N     0.38777   0.59818   0.52269   0.00000  Uiso   1.00
H476   H     0.36930   0.59982   0.56106   0.00000  Uiso   1.00
H477   H     0.36554   0.59922   0.48479   0.00000  Uiso   1.00
N478   N     0.11223   0.40182   0.47730   0.00000  Uiso   1.00
H479   H     0.13446   0.40078   0.51519   0.00000  Uiso   1.00
H480   H     0.13069   0.40019   0.43892   0.00000  Uiso   1.00
N481   N     0.26854   0.65031   0.41921   0.00000  Uiso   1.00
H482   H     0.29889   0.33506   0.41188   0.00000  Uiso   1.00
H483   H     0.24476   0.65298   0.38365   0.00000  Uiso   1.00
N484   N     0.23146   0.34969   0.58079   0.00000  Uiso   1.00
H485   H     0.20111   0.66494   0.58812   0.00000  Uiso   1.00
H486   H     0.25524   0.34702   0.61635   0.00000  Uiso   1.00
C487   C     0.74923   0.40018   0.48469   0.00000  Uiso   1.00
C488   C     0.75077   0.59982   0.51531   0.00000  Uiso   1.00
C489   C     0.51698   0.40405   0.47535   0.00000  Uiso   1.00
C490   C     0.98303   0.59595   0.52465   0.00000  Uiso   1.00
C491   C     0.75362   0.34503   0.47662   0.00000  Uiso   1.00
C492   C     0.74638   0.65497   0.52338   0.00000  Uiso   1.00
C493   C     0.66460   0.49958   0.50089   0.00000  Uiso   1.00
C494   C     0.83540   0.50042   0.49911   0.00000  Uiso   1.00
C495   C     0.90911   0.54935   0.51037   0.00000  Uiso   1.00
C496   C     0.59089   0.45065   0.48962   0.00000  Uiso   1.00
C497   C     0.88346   0.50138   0.49727   0.00000  Uiso   1.00
C498   C     0.61654   0.49862   0.50273   0.00000  Uiso   1.00
C499   C     0.90363   0.45372   0.48464   0.00000  Uiso   1.00
C500   C     0.59637   0.54628   0.51537   0.00000  Uiso   1.00
C501   C     0.95009   0.45284   0.48570   0.00000  Uiso   1.00
C502   C     0.54991   0.54716   0.51431   0.00000  Uiso   1.00
C503   C     0.97652   0.50047   0.49924   0.00000  Uiso   1.00
C504   C     0.52348   0.49953   0.50076   0.00000  Uiso   1.00
C505   C     0.95605   0.54900   0.51137   0.00000  Uiso   1.00
C506   C     0.54395   0.45100   0.48863   0.00000  Uiso   1.00
C507   C     0.97046   0.40503   0.47391   0.00000  Uiso   1.00
C508   C     0.52954   0.59497   0.52610   0.00000  Uiso   1.00
Cu509  Cu    0.75501   0.50579   0.56146   0.00000  Uiso   1.00
Cu510  Cu    0.74500   0.49421   0.43854   0.00000  Uiso   1.00
H511   H     0.88300   0.41733   0.47489   0.00000  Uiso   1.00
H512   H     0.61700   0.58267   0.52512   0.00000  Uiso   1.00
H513   H     0.95037   0.36831   0.46355   0.00000  Uiso   1.00
H514   H     0.54963   0.63169   0.53646   0.00000  Uiso   1.00
H515   H     0.53161   0.36637   0.46587   0.00000  Uiso   1.00
H516   H     0.96839   0.63363   0.53413   0.00000  Uiso   1.00
H517   H     0.71495   0.45958   0.64959   0.00000  Uiso   1.00
H518   H     0.78505   0.54042   0.35041   0.00000  Uiso   1.00
N519   N     0.73745   0.48547   0.34617   0.00000  Uiso   1.00
N520   N     0.76256   0.51453   0.65383   0.00000  Uiso   1.00
O521   O     0.75326   0.42871   0.53992   0.00000  Uiso   1.00
O522   O     0.74675   0.57129   0.46008   0.00000  Uiso   1.00
O523   O     0.74480   0.41892   0.43612   0.00000  Uiso   1.00
O524   O     0.75520   0.58108   0.56388   0.00000  Uiso   1.00
O525   O     0.68936   0.50488   0.55191   0.00000  Uiso   1.00
O526   O     0.81065   0.49512   0.44809   0.00000  Uiso   1.00
O527   O     0.68090   0.49510   0.44810   0.00000  Uiso   1.00
O528   O     0.81910   0.50490   0.55190   0.00000  Uiso   1.00
N529   N     0.88777   0.59818   0.52269   0.00000  Uiso   1.00
H530   H     0.86930   0.59982   0.56106   0.00000  Uiso   1.00
H531   H     0.86554   0.59922   0.48479   0.00000  Uiso   1.00
N532   N     0.61223   0.40182   0.47730   0.00000  Uiso   1.00
H533   H     0.63446   0.40078   0.51519   0.00000  Uiso   1.00
H534   H     0.63069   0.40019   0.43892   0.00000  Uiso   1.00
N535   N     0.76854   0.65031   0.41921   0.00000  Uiso   1.00
H536   H     0.79889   0.33506   0.41188   0.00000  Uiso   1.00
H537   H     0.74476   0.65298   0.38365   0.00000  Uiso   1.00
N538   N     0.73146   0.34969   0.58079   0.00000  Uiso   1.00
H539   H     0.70111   0.66494   0.58812   0.00000  Uiso   1.00
H540   H     0.75524   0.34702   0.61635   0.00000  Uiso   1.00
C541   C     0.24923   0.73352   0.48469   0.00000  Uiso   1.00
C542   C     0.25077   0.93315   0.51531   0.00000  Uiso   1.00
C543   C     0.01698   0.73738   0.47535   0.00000  Uiso   1.00
C544   C     0.48303   0.92928   0.52465   0.00000  Uiso   1.00
C545   C     0.25362   0.67836   0.47662   0.00000  Uiso   1.00
C546   C     0.24638   0.98830   0.52338   0.00000  Uiso   1.00
C547   C     0.16460   0.83292   0.50089   0.00000  Uiso   1.00
C548   C     0.33540   0.83375   0.49911   0.00000  Uiso   1.00
C549   C     0.40911   0.88268   0.51037   0.00000  Uiso   1.00
C550   C     0.09089   0.78398   0.48962   0.00000  Uiso   1.00
C551   C     0.38346   0.83472   0.49727   0.00000  Uiso   1.00
C552   C     0.11654   0.83195   0.50273   0.00000  Uiso   1.00
C553   C     0.40363   0.78705   0.48464   0.00000  Uiso   1.00
C554   C     0.09637   0.87961   0.51537   0.00000  Uiso   1.00
C555   C     0.45009   0.78617   0.48570   0.00000  Uiso   1.00
C556   C     0.04991   0.88049   0.51431   0.00000  Uiso   1.00
C557   C     0.47652   0.83381   0.49924   0.00000  Uiso   1.00
C558   C     0.02348   0.83286   0.50076   0.00000  Uiso   1.00
C559   C     0.45605   0.88233   0.51137   0.00000  Uiso   1.00
C560   C     0.04395   0.78434   0.48863   0.00000  Uiso   1.00
C561   C     0.47046   0.73836   0.47391   0.00000  Uiso   1.00
C562   C     0.02954   0.92831   0.52610   0.00000  Uiso   1.00
Cu563  Cu    0.25501   0.83913   0.56146   0.00000  Uiso   1.00
Cu564  Cu    0.24500   0.82754   0.43854   0.00000  Uiso   1.00
H565   H     0.38300   0.75067   0.47489   0.00000  Uiso   1.00
H566   H     0.11700   0.91600   0.52512   0.00000  Uiso   1.00
H567   H     0.45037   0.70164   0.46355   0.00000  Uiso   1.00
H568   H     0.04963   0.96502   0.53646   0.00000  Uiso   1.00
H569   H     0.03161   0.69970   0.46587   0.00000  Uiso   1.00
H570   H     0.46839   0.96696   0.53413   0.00000  Uiso   1.00
H571   H     0.21495   0.79291   0.64959   0.00000  Uiso   1.00
H572   H     0.28505   0.87376   0.35041   0.00000  Uiso   1.00
N573   N     0.23745   0.81881   0.34617   0.00000  Uiso   1.00
N574   N     0.26256   0.84786   0.65383   0.00000  Uiso   1.00
O575   O     0.25326   0.76204   0.53992   0.00000  Uiso   1.00
O576   O     0.24675   0.90462   0.46008   0.00000  Uiso   1.00
O577   O     0.24480   0.75226   0.43612   0.00000  Uiso   1.00
O578   O     0.25520   0.91441   0.56388   0.00000  Uiso   1.00
O579   O     0.18936   0.83821   0.55191   0.00000  Uiso   1.00
O580   O     0.31065   0.82845   0.44809   0.00000  Uiso   1.00
O581   O     0.18090   0.82843   0.44810   0.00000  Uiso   1.00
O582   O     0.31910   0.83824   0.55190   0.00000  Uiso   1.00
N583   N     0.38777   0.93152   0.52269   0.00000  Uiso   1.00
H584   H     0.36930   0.93315   0.56106   0.00000  Uiso   1.00
H585   H     0.36554   0.93255   0.48479   0.00000  Uiso   1.00
N586   N     0.11223   0.73515   0.47730   0.00000  Uiso   1.00
H587   H     0.13446   0.73411   0.51519   0.00000  Uiso   1.00
H588   H     0.13069   0.73352   0.43892   0.00000  Uiso   1.00
N589   N     0.26854   0.98364   0.41921   0.00000  Uiso   1.00
H590   H     0.29889   0.66839   0.41188   0.00000  Uiso   1.00
H591   H     0.24476   0.98632   0.38365   0.00000  Uiso   1.00
N592   N     0.23146   0.68303   0.58079   0.00000  Uiso   1.00
H593   H     0.20111   0.99827   0.58812   0.00000  Uiso   1.00
H594   H     0.25524   0.68035   0.61635   0.00000  Uiso   1.00
C595   C     0.74923   0.73352   0.48469   0.00000  Uiso   1.00
C596   C     0.75077   0.93315   0.51531   0.00000  Uiso   1.00
C597   C     0.51698   0.73738   0.47535   0.00000  Uiso   1.00
C598   C     0.98303   0.92928   0.52465   0.00000  Uiso   1.00
C599   C     0.75362   0.67836   0.47662   0.00000  Uiso   1.00
C600   C     0.74638   0.98830   0.52338   0.00000  Uiso   1.00
C601   C     0.66460   0.83292   0.50089   0.00000  Uiso   1.00
C602   C     0.83540   0.83375   0.49911   0.00000  Uiso   1.00
C603   C     0.90911   0.88268   0.51037   0.00000  Uiso   1.00
C604   C     0.59089   0.78398   0.48962   0.00000  Uiso   1.00
C605   C     0.88346   0.83472   0.49727   0.00000  Uiso   1.00
C606   C     0.61654   0.83195   0.50273   0.00000  Uiso   1.00
C607   C     0.90363   0.78705   0.48464   0.00000  Uiso   1.00
C608   C     0.59637   0.87961   0.51537   0.00000  Uiso   1.00
C609   C     0.95009   0.78617   0.48570   0.00000  Uiso   1.00
C610   C     0.54991   0.88049   0.51431   0.00000  Uiso   1.00
C611   C     0.97652   0.83381   0.49924   0.00000  Uiso   1.00
C612   C     0.52348   0.83286   0.50076   0.00000  Uiso   1.00
C613   C     0.95605   0.88233   0.51137   0.00000  Uiso   1.00
C614   C     0.54395   0.78434   0.48863   0.00000  Uiso   1.00
C615   C     0.97046   0.73836   0.47391   0.00000  Uiso   1.00
C616   C     0.52954   0.92831   0.52610   0.00000  Uiso   1.00
Cu617  Cu    0.75501   0.83913   0.56146   0.00000  Uiso   1.00
Cu618  Cu    0.74500   0.82754   0.43854   0.00000  Uiso   1.00
H619   H     0.88300   0.75067   0.47489   0.00000  Uiso   1.00
H620   H     0.61700   0.91600   0.52512   0.00000  Uiso   1.00
H621   H     0.95037   0.70164   0.46355   0.00000  Uiso   1.00
H622   H     0.54963   0.96502   0.53646   0.00000  Uiso   1.00
H623   H     0.53161   0.69970   0.46587   0.00000  Uiso   1.00
H624   H     0.96839   0.96696   0.53413   0.00000  Uiso   1.00
H625   H     0.71495   0.79291   0.64959   0.00000  Uiso   1.00
H626   H     0.78505   0.87376   0.35041   0.00000  Uiso   1.00
N627   N     0.73745   0.81881   0.34617   0.00000  Uiso   1.00
N628   N     0.76256   0.84786   0.65383   0.00000  Uiso   1.00
O629   O     0.75326   0.76204   0.53992   0.00000  Uiso   1.00
O630   O     0.74675   0.90462   0.46008   0.00000  Uiso   1.00
O631   O     0.74480   0.75226   0.43612   0.00000  Uiso   1.00
O632   O     0.75520   0.91441   0.56388   0.00000  Uiso   1.00
O633   O     0.68936   0.83821   0.55191   0.00000  Uiso   1.00
O634   O     0.81065   0.82845   0.44809   0.00000  Uiso   1.00
O635   O     0.68090   0.82843   0.44810   0.00000  Uiso   1.00
O636   O     0.81910   0.83824   0.55190   0.00000  Uiso   1.00
N637   N     0.88777   0.93152   0.52269   0.00000  Uiso   1.00
H638   H     0.86930   0.93315   0.56106   0.00000  Uiso   1.00
H639   H     0.86554   0.93255   0.48479   0.00000  Uiso   1.00
N640   N     0.61223   0.73515   0.47730   0.00000  Uiso   1.00
H641   H     0.63446   0.73411   0.51519   0.00000  Uiso   1.00
H642   H     0.63069   0.73352   0.43892   0.00000  Uiso   1.00
N643   N     0.76854   0.98364   0.41921   0.00000  Uiso   1.00
H644   H     0.79889   0.66839   0.41188   0.00000  Uiso   1.00
H645   H     0.74476   0.98632   0.38365   0.00000  Uiso   1.00
N646   N     0.73146   0.68303   0.58079   0.00000  Uiso   1.00
H647   H     0.70111   0.99827   0.58812   0.00000  Uiso   1.00
H648   H     0.75524   0.68035   0.61635   0.00000  Uiso   1.00
C649   C     0.24923   0.06685   0.81802   0.00000  Uiso   1.00
C650   C     0.25077   0.26648   0.84865   0.00000  Uiso   1.00
C651   C     0.01698   0.07072   0.80869   0.00000  Uiso   1.00
C652   C     0.48303   0.26262   0.85798   0.00000  Uiso   1.00
C653   C     0.25362   0.01170   0.80995   0.00000  Uiso   1.00
C654   C     0.24638   0.32164   0.85672   0.00000  Uiso   1.00
C655   C     0.16460   0.16625   0.83422   0.00000  Uiso   1.00
C656   C     0.33540   0.16708   0.83245   0.00000  Uiso   1.00
C657   C     0.40911   0.21602   0.84371   0.00000  Uiso   1.00
C658   C     0.09089   0.11732   0.82296   0.00000  Uiso   1.00
C659   C     0.38346   0.16805   0.83060   0.00000  Uiso   1.00
C660   C     0.11654   0.16528   0.83607   0.00000  Uiso   1.00
C661   C     0.40363   0.12039   0.81797   0.00000  Uiso   1.00
C662   C     0.09637   0.21295   0.84870   0.00000  Uiso   1.00
C663   C     0.45009   0.11951   0.81903   0.00000  Uiso   1.00
C664   C     0.04991   0.21383   0.84764   0.00000  Uiso   1.00
C665   C     0.47652   0.16714   0.83257   0.00000  Uiso   1.00
C666   C     0.02348   0.16619   0.83410   0.00000  Uiso   1.00
C667   C     0.45605   0.21566   0.84470   0.00000  Uiso   1.00
C668   C     0.04395   0.11767   0.82197   0.00000  Uiso   1.00
C669   C     0.47046   0.07169   0.80724   0.00000  Uiso   1.00
C670   C     0.02954   0.26164   0.85943   0.00000  Uiso   1.00
Cu671  Cu    0.25501   0.17246   0.89479   0.00000  Uiso   1.00
Cu672  Cu    0.24500   0.16087   0.77187   0.00000  Uiso   1.00
H673   H     0.38300   0.08400   0.80822   0.00000  Uiso   1.00
H674   H     0.11700   0.24933   0.85845   0.00000  Uiso   1.00
H675   H     0.45037   0.03498   0.79688   0.00000  Uiso   1.00
H676   H     0.04963   0.29835   0.86979   0.00000  Uiso   1.00
H677   H     0.03161   0.03303   0.79920   0.00000  Uiso   1.00
H678   H     0.46839   0.30030   0.86747   0.00000  Uiso   1.00
H679   H     0.21495   0.12624   0.98292   0.00000  Uiso   1.00
H680   H     0.28505   0.20709   0.68375   0.00000  Uiso   1.00
N681   N     0.23745   0.15214   0.67951   0.00000  Uiso   1.00
N682   N     0.26256   0.18119   0.98716   0.00000  Uiso   1.00
O683   O     0.25326   0.09538   0.87326   0.00000  Uiso   1.00
O684   O     0.24675   0.23796   0.79341   0.00000  Uiso   1.00
O685   O     0.24480   0.08559   0.76945   0.00000  Uiso   1.00
O686   O     0.25520   0.24774   0.89721   0.00000  Uiso   1.00
O687   O     0.18936   0.17155   0.88524   0.00000  Uiso   1.00
O688   O     0.31065   0.16179   0.78143   0.00000  Uiso   1.00
O689   O     0.18090   0.16176   0.78143   0.00000  Uiso   1.00
O690   O     0.31910   0.17157   0.88523   0.00000  Uiso   1.00
N691   N     0.38777   0.26485   0.85602   0.00000  Uiso   1.00
H692   H     0.36930   0.26649   0.89439   0.00000  Uiso   1.00
H693   H     0.36554   0.26588   0.81812   0.00000  Uiso   1.00
N694   N     0.11223   0.06848   0.81063   0.00000  Uiso   1.00
H695   H     0.13446   0.06745   0.84852   0.00000  Uiso   1.00
H696   H     0.13069   0.06685   0.77225   0.00000  Uiso   1.00
N697   N     0.26854   0.31697   0.75255   0.00000  Uiso   1.00
H698   H     0.29889   0.00173   0.74522   0.00000  Uiso   1.00
H699   H     0.24476   0.31965   0.71698   0.00000  Uiso   1.00
N700   N     0.23146   0.01636   0.91412   0.00000  Uiso   1.00
H701   H     0.20111   0.33161   0.92145   0.00000  Uiso   1.00
H702   H     0.25524   0.01368   0.94968   0.00000  Uiso   1.00
C703   C     0.74923   0.06685   0.81802   0.00000  Uiso   1.00
C704   C     0.75077   0.26648   0.84865   0.00000  Uiso   1.00
C705   C     0.51698   0.07072   0.80869   0.00000  Uiso   1.00
C706   C     0.98303   0.26262   0.85798   0.00000  Uiso   1.00
C707   C     0.75362   0.01170   0.80995   0.00000  Uiso   1.00
C708   C     0.74638   0.32164   0.85672   0.00000  Uiso   1.00
C709   C     0.66460   0.16625   0.83422   0.00000  Uiso   1.00
C710   C     0.83540   0.16708   0.83245   0.00000  Uiso   1.00
C711   C     0.90911   0.21602   0.84371   0.00000  Uiso   1.00
C712   C     0.59089   0.11732   0.82296   0.00000  Uiso   1.00
C713   C     0.88346   0.16805   0.83060   0.00000  Uiso   1.00
C714   C     0.61654   0.16528   0.83607   0.00000  Uiso   1.00
C715   C     0.90363   0.12039   0.81797   0.00000  Uiso   1.00
C716   C     0.59637   0.21295   0.84870   0.00000  Uiso   1.00
C717   C     0.95009   0.11951   0.81903   0.00000  Uiso   1.00
C718   C     0.54991   0.21383   0.84764   0.00000  Uiso   1.00
C719   C     0.97652   0.16714   0.83257   0.00000  Uiso   1.00
C720   C     0.52348   0.16619   0.83410   0.00000  Uiso   1.00
C721   C     0.95605   0.21566   0.84470   0.00000  Uiso   1.00
C722   C     0.54395   0.11767   0.82197   0.00000  Uiso   1.00
C723   C     0.97046   0.07169   0.80724   0.00000  Uiso   1.00
C724   C     0.52954   0.26164   0.85943   0.00000  Uiso   1.00
Cu725  Cu    0.75501   0.17246   0.89479   0.00000  Uiso   1.00
Cu726  Cu    0.74500   0.16087   0.77187   0.00000  Uiso   1.00
H727   H     0.88300   0.08400   0.80822   0.00000  Uiso   1.00
H728   H     0.61700   0.24933   0.85845   0.00000  Uiso   1.00
H729   H     0.95037   0.03498   0.79688   0.00000  Uiso   1.00
H730   H     0.54963   0.29835   0.86979   0.00000  Uiso   1.00
H731   H     0.53161   0.03303   0.79920   0.00000  Uiso   1.00
H732   H     0.96839   0.30030   0.86747   0.00000  Uiso   1.00
H733   H     0.71495   0.12624   0.98292   0.00000  Uiso   1.00
H734   H     0.78505   0.20709   0.68375   0.00000  Uiso   1.00
N735   N     0.73745   0.15214   0.67951   0.00000  Uiso   1.00
N736   N     0.76256   0.18119   0.98716   0.00000  Uiso   1.00
O737   O     0.75326   0.09538   0.87326   0.00000  Uiso   1.00
O738   O     0.74675   0.23796   0.79341   0.00000  Uiso   1.00
O739   O     0.74480   0.08559   0.76945   0.00000  Uiso   1.00
O740   O     0.75520   0.24774   0.89721   0.00000  Uiso   1.00
O741   O     0.68936   0.17155   0.88524   0.00000  Uiso   1.00
O742   O     0.81065   0.16179   0.78143   0.00000  Uiso   1.00
O743   O     0.68090   0.16176   0.78143   0.00000  Uiso   1.00
O744   O     0.81910   0.17157   0.88523   0.00000  Uiso   1.00
N745   N     0.88777   0.26485   0.85602   0.00000  Uiso   1.00
H746   H     0.86930   0.26649   0.89439   0.00000  Uiso   1.00
H747   H     0.86554   0.26588   0.81812   0.00000  Uiso   1.00
N748   N     0.61223   0.06848   0.81063   0.00000  Uiso   1.00
H749   H     0.63446   0.06745   0.84852   0.00000  Uiso   1.00
H750   H     0.63069   0.06685   0.77225   0.00000  Uiso   1.00
N751   N     0.76854   0.31697   0.75255   0.00000  Uiso   1.00
H752   H     0.79889   0.00173   0.74522   0.00000  Uiso   1.00
H753   H     0.74476   0.31965   0.71698   0.00000  Uiso   1.00
N754   N     0.73146   0.01636   0.91412   0.00000  Uiso   1.00
H755   H     0.70111   0.33161   0.92145   0.00000  Uiso   1.00
H756   H     0.75524   0.01368   0.94968   0.00000  Uiso   1.00
C757   C     0.24923   0.40018   0.81802   0.00000  Uiso   1.00
C758   C     0.25077   0.59982   0.84865   0.00000  Uiso   1.00
C759   C     0.01698   0.40405   0.80869   0.00000  Uiso   1.00
C760   C     0.48303   0.59595   0.85798   0.00000  Uiso   1.00
C761   C     0.25362   0.34503   0.80995   0.00000  Uiso   1.00
C762   C     0.24638   0.65497   0.85672   0.00000  Uiso   1.00
C763   C     0.16460   0.49958   0.83422   0.00000  Uiso   1.00
C764   C     0.33540   0.50042   0.83245   0.00000  Uiso   1.00
C765   C     0.40911   0.54935   0.84371   0.00000  Uiso   1.00
C766   C     0.09089   0.45065   0.82296   0.00000  Uiso   1.00
C767   C     0.38346   0.50138   0.83060   0.00000  Uiso   1.00
C768   C     0.11654   0.49862   0.83607   0.00000  Uiso   1.00
C769   C     0.40363   0.45372   0.81797   0.00000  Uiso   1.00
C770   C     0.09637   0.54628   0.84870   0.00000  Uiso   1.00
C771   C     0.45009   0.45284   0.81903   0.00000  Uiso   1.00
C772   C     0.04991   0.54716   0.84764   0.00000  Uiso   1.00
C773   C     0.47652   0.50047   0.83257   0.00000  Uiso   1.00
C774   C     0.02348   0.49953   0.83410   0.00000  Uiso   1.00
C775   C     0.45605   0.54900   0.84470   0.00000  Uiso   1.00
C776   C     0.04395   0.45100   0.82197   0.00000  Uiso   1.00
C777   C     0.47046   0.40503   0.80724   0.00000  Uiso   1.00
C778   C     0.02954   0.59497   0.85943   0.00000  Uiso   1.00
Cu779  Cu    0.25501   0.50579   0.89479   0.00000  Uiso   1.00
Cu780  Cu    0.24500   0.49421   0.77187   0.00000  Uiso   1.00
H781   H     0.38300   0.41733   0.80822   0.00000  Uiso   1.00
H782   H     0.11700   0.58267   0.85845   0.00000  Uiso   1.00
H783   H     0.45037   0.36831   0.79688   0.00000  Uiso   1.00
H784   H     0.04963   0.63169   0.86979   0.00000  Uiso   1.00
H785   H     0.03161   0.36637   0.79920   0.00000  Uiso   1.00
H786   H     0.46839   0.63363   0.86747   0.00000  Uiso   1.00
H787   H     0.21495   0.45958   0.98292   0.00000  Uiso   1.00
H788   H     0.28505   0.54042   0.68375   0.00000  Uiso   1.00
N789   N     0.23745   0.48547   0.67951   0.00000  Uiso   1.00
N790   N     0.26256   0.51453   0.98716   0.00000  Uiso   1.00
O791   O     0.25326   0.42871   0.87326   0.00000  Uiso   1.00
O792   O     0.24675   0.57129   0.79341   0.00000  Uiso   1.00
O793   O     0.24480   0.41892   0.76945   0.00000  Uiso   1.00
O794   O     0.25520   0.58108   0.89721   0.00000  Uiso   1.00
O795   O     0.18936   0.50488   0.88524   0.00000  Uiso   1.00
O796   O     0.31065   0.49512   0.78143   0.00000  Uiso   1.00
O797   O     0.18090   0.49510   0.78143   0.00000  Uiso   1.00
O798   O     0.31910   0.50490   0.88523   0.00000  Uiso   1.00
N799   N     0.38777   0.59818   0.85602   0.00000  Uiso   1.00
H800   H     0.36930   0.59982   0.89439   0.00000  Uiso   1.00
H801   H     0.36554   0.59922   0.81812   0.00000  Uiso   1.00
N802   N     0.11223   0.40182   0.81063   0.00000  Uiso   1.00
H803   H     0.13446   0.40078   0.84852   0.00000  Uiso   1.00
H804   H     0.13069   0.40019   0.77225   0.00000  Uiso   1.00
N805   N     0.26854   0.65031   0.75255   0.00000  Uiso   1.00
H806   H     0.29889   0.33506   0.74522   0.00000  Uiso   1.00
H807   H     0.24476   0.65298   0.71698   0.00000  Uiso   1.00
N808   N     0.23146   0.34969   0.91412   0.00000  Uiso   1.00
H809   H     0.20111   0.66494   0.92145   0.00000  Uiso   1.00
H810   H     0.25524   0.34702   0.94968   0.00000  Uiso   1.00
C811   C     0.74923   0.40018   0.81802   0.00000  Uiso   1.00
C812   C     0.75077   0.59982   0.84865   0.00000  Uiso   1.00
C813   C     0.51698   0.40405   0.80869   0.00000  Uiso   1.00
C814   C     0.98303   0.59595   0.85798   0.00000  Uiso   1.00
C815   C     0.75362   0.34503   0.80995   0.00000  Uiso   1.00
C816   C     0.74638   0.65497   0.85672   0.00000  Uiso   1.00
C817   C     0.66460   0.49958   0.83422   0.00000  Uiso   1.00
C818   C     0.83540   0.50042   0.83245   0.00000  Uiso   1.00
C819   C     0.90911   0.54935   0.84371   0.00000  Uiso   1.00
C820   C     0.59089   0.45065   0.82296   0.00000  Uiso   1.00
C821   C     0.88346   0.50138   0.83060   0.00000  Uiso   1.00
C822   C     0.61654   0.49862   0.83607   0.00000  Uiso   1.00
C823   C     0.90363   0.45372   0.81797   0.00000  Uiso   1.00
C824   C     0.59637   0.54628   0.84870   0.00000  Uiso   1.00
C825   C     0.95009   0.45284   0.81903   0.00000  Uiso   1.00
C826   C     0.54991   0.54716   0.84764   0.00000  Uiso   1.00
C827   C     0.97652   0.50047   0.83257   0.00000  Uiso   1.00
C828   C     0.52348   0.49953   0.83410   0.00000  Uiso   1.00
C829   C     0.95605   0.54900   0.84470   0.00000  Uiso   1.00
C830   C     0.54395   0.45100   0.82197   0.00000  Uiso   1.00
C831   C     0.97046   0.40503   0.80724   0.00000  Uiso   1.00
C832   C     0.52954   0.59497   0.85943   0.00000  Uiso   1.00
Cu833  Cu    0.75501   0.50579   0.89479   0.00000  Uiso   1.00
Cu834  Cu    0.74500   0.49421   0.77187   0.00000  Uiso   1.00
H835   H     0.88300   0.41733   0.80822   0.00000  Uiso   1.00
H836   H     0.61700   0.58267   0.85845   0.00000  Uiso   1.00
H837   H     0.95037   0.36831   0.79688   0.00000  Uiso   1.00
H838   H     0.54963   0.63169   0.86979   0.00000  Uiso   1.00
H839   H     0.53161   0.36637   0.79920   0.00000  Uiso   1.00
H840   H     0.96839   0.63363   0.86747   0.00000  Uiso   1.00
H841   H     0.71495   0.45958   0.98292   0.00000  Uiso   1.00
H842   H     0.78505   0.54042   0.68375   0.00000  Uiso   1.00
N843   N     0.73745   0.48547   0.67951   0.00000  Uiso   1.00
N844   N     0.76256   0.51453   0.98716   0.00000  Uiso   1.00
O845   O     0.75326   0.42871   0.87326   0.00000  Uiso   1.00
O846   O     0.74675   0.57129   0.79341   0.00000  Uiso   1.00
O847   O     0.74480   0.41892   0.76945   0.00000  Uiso   1.00
O848   O     0.75520   0.58108   0.89721   0.00000  Uiso   1.00
O849   O     0.68936   0.50488   0.88524   0.00000  Uiso   1.00
O850   O     0.81065   0.49512   0.78143   0.00000  Uiso   1.00
O851   O     0.68090   0.49510   0.78143   0.00000  Uiso   1.00
O852   O     0.81910   0.50490   0.88523   0.00000  Uiso   1.00
N853   N     0.88777   0.59818   0.85602   0.00000  Uiso   1.00
H854   H     0.86930   0.59982   0.89439   0.00000  Uiso   1.00
H855   H     0.86554   0.59922   0.81812   0.00000  Uiso   1.00
N856   N     0.61223   0.40182   0.81063   0.00000  Uiso   1.00
H857   H     0.63446   0.40078   0.84852   0.00000  Uiso   1.00
H858   H     0.63069   0.40019   0.77225   0.00000  Uiso   1.00
N859   N     0.76854   0.65031   0.75255   0.00000  Uiso   1.00
H860   H     0.79889   0.33506   0.74522   0.00000  Uiso   1.00
H861   H     0.74476   0.65298   0.71698   0.00000  Uiso   1.00
N862   N     0.73146   0.34969   0.91412   0.00000  Uiso   1.00
H863   H     0.70111   0.66494   0.92145   0.00000  Uiso   1.00
H864   H     0.75524   0.34702   0.94968   0.00000  Uiso   1.00
C865   C     0.24923   0.73352   0.81802   0.00000  Uiso   1.00
C866   C     0.25077   0.93315   0.84865   0.00000  Uiso   1.00
C867   C     0.01698   0.73738   0.80869   0.00000  Uiso   1.00
C868   C     0.48303   0.92928   0.85798   0.00000  Uiso   1.00
C869   C     0.25362   0.67836   0.80995   0.00000  Uiso   1.00
C870   C     0.24638   0.98830   0.85672   0.00000  Uiso   1.00
C871   C     0.16460   0.83292   0.83422   0.00000  Uiso   1.00
C872   C     0.33540   0.83375   0.83245   0.00000  Uiso   1.00
C873   C     0.40911   0.88268   0.84371   0.00000  Uiso   1.00
C874   C     0.09089   0.78398   0.82296   0.00000  Uiso   1.00
C875   C     0.38346   0.83472   0.83060   0.00000  Uiso   1.00
C876   C     0.11654   0.83195   0.83607   0.00000  Uiso   1.00
C877   C     0.40363   0.78705   0.81797   0.00000  Uiso   1.00
C878   C     0.09637   0.87961   0.84870   0.00000  Uiso   1.00
C879   C     0.45009   0.78617   0.81903   0.00000  Uiso   1.00
C880   C     0.04991   0.88049   0.84764   0.00000  Uiso   1.00
C881   C     0.47652   0.83381   0.83257   0.00000  Uiso   1.00
C882   C     0.02348   0.83286   0.83410   0.00000  Uiso   1.00
C883   C     0.45605   0.88233   0.84470   0.00000  Uiso   1.00
C884   C     0.04395   0.78434   0.82197   0.00000  Uiso   1.00
C885   C     0.47046   0.73836   0.80724   0.00000  Uiso   1.00
C886   C     0.02954   0.92831   0.85943   0.00000  Uiso   1.00
Cu887  Cu    0.25501   0.83913   0.89479   0.00000  Uiso   1.00
Cu888  Cu    0.24500   0.82754   0.77187   0.00000  Uiso   1.00
H889   H     0.38300   0.75067   0.80822   0.00000  Uiso   1.00
H890   H     0.11700   0.91600   0.85845   0.00000  Uiso   1.00
H891   H     0.45037   0.70164   0.79688   0.00000  Uiso   1.00
H892   H     0.04963   0.96502   0.86979   0.00000  Uiso   1.00
H893   H     0.03161   0.69970   0.79920   0.00000  Uiso   1.00
H894   H     0.46839   0.96696   0.86747   0.00000  Uiso   1.00
H895   H     0.21495   0.79291   0.98292   0.00000  Uiso   1.00
H896   H     0.28505   0.87376   0.68375   0.00000  Uiso   1.00
N897   N     0.23745   0.81881   0.67951   0.00000  Uiso   1.00
N898   N     0.26256   0.84786   0.98716   0.00000  Uiso   1.00
O899   O     0.25326   0.76204   0.87326   0.00000  Uiso   1.00
O900   O     0.24675   0.90462   0.79341   0.00000  Uiso   1.00
O901   O     0.24480   0.75226   0.76945   0.00000  Uiso   1.00
O902   O     0.25520   0.91441   0.89721   0.00000  Uiso   1.00
O903   O     0.18936   0.83821   0.88524   0.00000  Uiso   1.00
O904   O     0.31065   0.82845   0.78143   0.00000  Uiso   1.00
O905   O     0.18090   0.82843   0.78143   0.00000  Uiso   1.00
O906   O     0.31910   0.83824   0.88523   0.00000  Uiso   1.00
N907   N     0.38777   0.93152   0.85602   0.00000  Uiso   1.00
H908   H     0.36930   0.93315   0.89439   0.00000  Uiso   1.00
H909   H     0.36554   0.93255   0.81812   0.00000  Uiso   1.00
N910   N     0.11223   0.73515   0.81063   0.00000  Uiso   1.00
H911   H     0.13446   0.73411   0.84852   0.00000  Uiso   1.00
H912   H     0.13069   0.73352   0.77225   0.00000  Uiso   1.00
N913   N     0.26854   0.98364   0.75255   0.00000  Uiso   1.00
H914   H     0.29889   0.66839   0.74522   0.00000  Uiso   1.00
H915   H     0.24476   0.98632   0.71698   0.00000  Uiso   1.00
N916   N     0.23146   0.68303   0.91412   0.00000  Uiso   1.00
H917   H     0.20111   0.99827   0.92145   0.00000  Uiso   1.00
H918   H     0.25524   0.68035   0.94968   0.00000  Uiso   1.00
C919   C     0.74923   0.73352   0.81802   0.00000  Uiso   1.00
C920   C     0.75077   0.93315   0.84865   0.00000  Uiso   1.00
C921   C     0.51698   0.73738   0.80869   0.00000  Uiso   1.00
C922   C     0.98303   0.92928   0.85798   0.00000  Uiso   1.00
C923   C     0.75362   0.67836   0.80995   0.00000  Uiso   1.00
C924   C     0.74638   0.98830   0.85672   0.00000  Uiso   1.00
C925   C     0.66460   0.83292   0.83422   0.00000  Uiso   1.00
C926   C     0.83540   0.83375   0.83245   0.00000  Uiso   1.00
C927   C     0.90911   0.88268   0.84371   0.00000  Uiso   1.00
C928   C     0.59089   0.78398   0.82296   0.00000  Uiso   1.00
C929   C     0.88346   0.83472   0.83060   0.00000  Uiso   1.00
C930   C     0.61654   0.83195   0.83607   0.00000  Uiso   1.00
C931   C     0.90363   0.78705   0.81797   0.00000  Uiso   1.00
C932   C     0.59637   0.87961   0.84870   0.00000  Uiso   1.00
C933   C     0.95009   0.78617   0.81903   0.00000  Uiso   1.00
C934   C     0.54991   0.88049   0.84764   0.00000  Uiso   1.00
C935   C     0.97652   0.83381   0.83257   0.00000  Uiso   1.00
C936   C     0.52348   0.83286   0.83410   0.00000  Uiso   1.00
C937   C     0.95605   0.88233   0.84470   0.00000  Uiso   1.00
C938   C     0.54395   0.78434   0.82197   0.00000  Uiso   1.00
C939   C     0.97046   0.73836   0.80724   0.00000  Uiso   1.00
C940   C     0.52954   0.92831   0.85943   0.00000  Uiso   1.00
Cu941  Cu    0.75501   0.83913   0.89479   0.00000  Uiso   1.00
Cu942  Cu    0.74500   0.82754   0.77187   0.00000  Uiso   1.00
H943   H     0.88300   0.75067   0.80822   0.00000  Uiso   1.00
H944   H     0.61700   0.91600   0.85845   0.00000  Uiso   1.00
H945   H     0.95037   0.70164   0.79688   0.00000  Uiso   1.00
H946   H     0.54963   0.96502   0.86979   0.00000  Uiso   1.00
H947   H     0.53161   0.69970   0.79920   0.00000  Uiso   1.00
H948   H     0.96839   0.96696   0.86747   0.00000  Uiso   1.00
H949   H     0.71495   0.79291   0.98292   0.00000  Uiso   1.00
H950   H     0.78505   0.87376   0.68375   0.00000  Uiso   1.00
N951   N     0.73745   0.81881   0.67951   0.00000  Uiso   1.00
N952   N     0.76256   0.84786   0.98716   0.00000  Uiso   1.00
O953   O     0.75326   0.76204   0.87326   0.00000  Uiso   1.00
O954   O     0.74675   0.90462   0.79341   0.00000  Uiso   1.00
O955   O     0.74480   0.75226   0.76945   0.00000  Uiso   1.00
O956   O     0.75520   0.91441   0.89721   0.00000  Uiso   1.00
O957   O     0.68936   0.83821   0.88524   0.00000  Uiso   1.00
O958   O     0.81065   0.82845   0.78143   0.00000  Uiso   1.00
O959   O     0.68090   0.82843   0.78143   0.00000  Uiso   1.00
O960   O     0.81910   0.83824   0.88523   0.00000  Uiso   1.00
N961   N     0.88777   0.93152   0.85602   0.00000  Uiso   1.00
H962   H     0.86930   0.93315   0.89439   0.00000  Uiso   1.00
H963   H     0.86554   0.93255   0.81812   0.00000  Uiso   1.00
N964   N     0.61223   0.73515   0.81063   0.00000  Uiso   1.00
H965   H     0.63446   0.73411   0.84852   0.00000  Uiso   1.00
H966   H     0.63069   0.73352   0.77225   0.00000  Uiso   1.00
N967   N     0.76854   0.98364   0.75255   0.00000  Uiso   1.00
H968   H     0.79889   0.66839   0.74522   0.00000  Uiso   1.00
H969   H     0.74476   0.98632   0.71698   0.00000  Uiso   1.00
N970   N     0.73146   0.68303   0.91412   0.00000  Uiso   1.00
H971   H     0.70111   0.99827   0.92145   0.00000  Uiso   1.00
H972   H     0.75524   0.68035   0.94968   0.00000  Uiso   1.00
loop_
_geom_bond_atom_site_label_1
_geom_bond_atom_site_label_2
_geom_bond_distance
_geom_bond_site_symmetry_2
_ccdc_geom_bond_type
C1     C5      1.431   .     S
C1     O37     1.287   .     A
C1     O35     1.289   .     A
C2     O38     1.287   .     A
C2     O36     1.289   .     A
C2     C6      1.431   .     S
C3     C20     1.406   .     A
C3     H29     1.083   .     S
C3     C75     1.392   1_455 S
C4     C19     1.406   .     A
C4     H30     1.083   .     S
C4     C76     1.392   .     S
C5     C222    1.348   1_545 S
C5     N265    1.441   1_545 S
C6     C113    1.348   .     S
C6     N160    1.441   .     S
C7     O41     1.290   .     A
C7     C12     1.441   .     S
C7     O39     1.293   .     A
C8     C11     1.441   .     S
C8     O40     1.293   .     A
C8     O42     1.290   .     A
C9     C11     1.407   .     A
C9     N43     1.437   .     S
C9     C19     1.404   .     A
C10    N46     1.437   .     S
C10    C20     1.404   .     A
C10    C12     1.407   .     A
C11    C13     1.394   .     A
C12    C14     1.394   .     A
C13    C15     1.390   .     A
C13    H25     1.086   .     S
C14    H26     1.086   .     S
C14    C16     1.390   .     A
C15    C21     1.399   .     A
C15    C17     1.412   .     A
C16    C18     1.412   .     A
C16    C22     1.399   .     A
C17    C19     1.417   .     A
C17    C72     1.405   .     S
C18    C20     1.417   .     A
C18    C71     1.405   1_455 S
C21    H27     1.084   .     S
C21    C57     1.392   .     S
C22    H28     1.084   .     S
C22    C58     1.392   1_455 S
Cu23   O38     1.964   .     S
Cu23   O35     1.971   .     S
Cu23   Cu24    2.688   .     S
Cu23   N34     2.020   .     S
Cu23   O42     1.945   .     S
Cu23   O39     1.960   .     S
Cu24   N33     2.020   .     S
Cu24   O37     1.964   .     S
Cu24   O41     1.945   .     S
Cu24   O36     1.971   .     S
Cu24   O40     1.960   .     S
H31    N357    1.029   .     S
H32    N682    1.029   1_554 S
N33    H679    1.029   1_554 S
N33    N682    1.295   1_554 S
N34    N357    1.295   .     S
N34    H356    1.029   .     S
N43    H44     1.045   .     S
N43    H45     1.046   .     S
N46    H48     1.045   .     S
N46    H47     1.046   .     S
N49    H51     1.045   .     S
N49    C113    1.441   .     S
N49    H158    1.046   .     S
H50    N265    1.046   1_545 S
N52    H54     1.045   .     S
N52    C222    1.441   1_545 S
N52    H269    1.046   1_545 S
H53    N160    1.046   .     S
C55    C59     1.431   .     S
C55    O91     1.287   .     A
C55    O89     1.289   .     A
C56    O92     1.287   .     A
C56    O90     1.289   .     A
C56    C60     1.431   .     S
C57    C74     1.406   .     A
C57    H83     1.083   .     S
C58    C73     1.406   .     A
C58    H84     1.083   .     S
C58    C22     1.392   1_655 S
C59    C276    1.348   1_545 S
C59    N319    1.441   1_545 S
C60    C167    1.348   .     S
C60    N214    1.441   .     S
C61    O95     1.290   .     A
C61    C66     1.441   .     S
C61    O93     1.293   .     A
C62    C65     1.441   .     S
C62    O94     1.293   .     A
C62    O96     1.290   .     A
C63    C65     1.407   .     A
C63    N97     1.437   .     S
C63    C73     1.404   .     A
C64    N100    1.437   .     S
C64    C74     1.404   .     A
C64    C66     1.407   .     A
C65    C67     1.394   .     A
C66    C68     1.394   .     A
C67    C69     1.390   .     A
C67    H79     1.086   .     S
C68    H80     1.086   .     S
C68    C70     1.390   .     A
C69    C75     1.399   .     A
C69    C71     1.412   .     A
C70    C72     1.412   .     A
C70    C76     1.399   .     A
C71    C73     1.417   .     A
C71    C18     1.405   1_655 S
C72    C74     1.417   .     A
C75    H81     1.084   .     S
C75    C3      1.392   1_655 S
C76    H82     1.084   .     S
Cu77   O92     1.964   .     S
Cu77   O89     1.971   .     S
Cu77   Cu78    2.688   .     S
Cu77   N88     2.020   .     S
Cu77   O96     1.945   .     S
Cu77   O93     1.960   .     S
Cu78   N87     2.020   .     S
Cu78   O91     1.964   .     S
Cu78   O95     1.945   .     S
Cu78   O90     1.971   .     S
Cu78   O94     1.960   .     S
H85    N411    1.029   .     S
H86    N736    1.029   1_554 S
N87    H733    1.029   1_554 S
N87    N736    1.295   1_554 S
N88    N411    1.295   .     S
N88    H410    1.029   .     S
N97    H98     1.045   .     S
N97    H99     1.046   .     S
N100   H102    1.045   .     S
N100   H101    1.046   .     S
N103   H105    1.045   .     S
N103   C167    1.441   .     S
N103   H212    1.046   .     S
H104   N319    1.046   1_545 S
N106   H108    1.045   .     S
N106   C276    1.441   1_545 S
N106   H323    1.046   1_545 S
H107   N214    1.046   .     S
C109   C113    1.431   .     S
C109   O145    1.287   .     A
C109   O143    1.289   .     A
C110   O146    1.287   .     A
C110   O144    1.289   .     A
C110   C114    1.431   .     S
C111   C128    1.406   .     A
C111   H137    1.083   .     S
C111   C183    1.392   1_455 S
C112   C127    1.406   .     A
C112   H138    1.083   .     S
C112   C184    1.392   .     S
C114   C221    1.348   .     S
C114   N268    1.441   .     S
C115   O149    1.290   .     A
C115   C120    1.441   .     S
C115   O147    1.293   .     A
C116   C119    1.441   .     S
C116   O148    1.293   .     A
C116   O150    1.290   .     A
C117   C119    1.407   .     A
C117   N151    1.437   .     S
C117   C127    1.404   .     A
C118   N154    1.437   .     S
C118   C128    1.404   .     A
C118   C120    1.407   .     A
C119   C121    1.394   .     A
C120   C122    1.394   .     A
C121   C123    1.390   .     A
C121   H133    1.086   .     S
C122   H134    1.086   .     S
C122   C124    1.390   .     A
C123   C129    1.399   .     A
C123   C125    1.412   .     A
C124   C126    1.412   .     A
C124   C130    1.399   .     A
C125   C127    1.417   .     A
C125   C180    1.405   .     S
C126   C128    1.417   .     A
C126   C179    1.405   1_455 S
C129   H135    1.084   .     S
C129   C165    1.392   .     S
C130   H136    1.084   .     S
C130   C166    1.392   1_455 S
Cu131  O146    1.964   .     S
Cu131  O143    1.971   .     S
Cu131  Cu132   2.688   .     S
Cu131  N142    2.020   .     S
Cu131  O150    1.945   .     S
Cu131  O147    1.960   .     S
Cu132  N141    2.020   .     S
Cu132  O145    1.964   .     S
Cu132  O149    1.945   .     S
Cu132  O144    1.971   .     S
Cu132  O148    1.960   .     S
H139   N465    1.029   .     S
H140   N790    1.029   1_554 S
N141   H787    1.029   1_554 S
N141   N790    1.295   1_554 S
N142   N465    1.295   .     S
N142   H464    1.029   .     S
N151   H152    1.045   .     S
N151   H153    1.046   .     S
N154   H156    1.045   .     S
N154   H155    1.046   .     S
N157   H159    1.045   .     S
N157   C221    1.441   .     S
N157   H266    1.046   .     S
N160   H162    1.045   .     S
H161   N268    1.046   .     S
C163   C167    1.431   .     S
C163   O199    1.287   .     A
C163   O197    1.289   .     A
C164   O200    1.287   .     A
C164   O198    1.289   .     A
C164   C168    1.431   .     S
C165   C182    1.406   .     A
C165   H191    1.083   .     S
C166   C181    1.406   .     A
C166   H192    1.083   .     S
C166   C130    1.392   1_655 S
C168   C275    1.348   .     S
C168   N322    1.441   .     S
C169   O203    1.290   .     A
C169   C174    1.441   .     S
C169   O201    1.293   .     A
C170   C173    1.441   .     S
C170   O202    1.293   .     A
C170   O204    1.290   .     A
C171   C173    1.407   .     A
C171   N205    1.437   .     S
C171   C181    1.404   .     A
C172   N208    1.437   .     S
C172   C182    1.404   .     A
C172   C174    1.407   .     A
C173   C175    1.394   .     A
C174   C176    1.394   .     A
C175   C177    1.390   .     A
C175   H187    1.086   .     S
C176   H188    1.086   .     S
C176   C178    1.390   .     A
C177   C183    1.399   .     A
C177   C179    1.412   .     A
C178   C180    1.412   .     A
C178   C184    1.399   .     A
C179   C181    1.417   .     A
C179   C126    1.405   1_655 S
C180   C182    1.417   .     A
C183   H189    1.084   .     S
C183   C111    1.392   1_655 S
C184   H190    1.084   .     S
Cu185  O200    1.964   .     S
Cu185  O197    1.971   .     S
Cu185  Cu186   2.688   .     S
Cu185  N196    2.020   .     S
Cu185  O204    1.945   .     S
Cu185  O201    1.960   .     S
Cu186  N195    2.020   .     S
Cu186  O199    1.964   .     S
Cu186  O203    1.945   .     S
Cu186  O198    1.971   .     S
Cu186  O202    1.960   .     S
H193   N519    1.029   .     S
H194   N844    1.029   1_554 S
N195   H841    1.029   1_554 S
N195   N844    1.295   1_554 S
N196   N519    1.295   .     S
N196   H518    1.029   .     S
N205   H206    1.045   .     S
N205   H207    1.046   .     S
N208   H210    1.045   .     S
N208   H209    1.046   .     S
N211   H213    1.045   .     S
N211   C275    1.441   .     S
N211   H320    1.046   .     S
N214   H216    1.045   .     S
H215   N322    1.046   .     S
C217   C221    1.431   .     S
C217   O253    1.287   .     A
C217   O251    1.289   .     A
C218   O254    1.287   .     A
C218   O252    1.289   .     A
C218   C222    1.431   .     S
C219   C236    1.406   .     A
C219   H245    1.083   .     S
C219   C291    1.392   1_455 S
C220   C235    1.406   .     A
C220   H246    1.083   .     S
C220   C292    1.392   .     S
C222   C5      1.348   1_565 S
C222   N52     1.441   1_565 S
C223   O257    1.290   .     A
C223   C228    1.441   .     S
C223   O255    1.293   .     A
C224   C227    1.441   .     S
C224   O256    1.293   .     A
C224   O258    1.290   .     A
C225   C227    1.407   .     A
C225   N259    1.437   .     S
C225   C235    1.404   .     A
C226   N262    1.437   .     S
C226   C236    1.404   .     A
C226   C228    1.407   .     A
C227   C229    1.394   .     A
C228   C230    1.394   .     A
C229   C231    1.390   .     A
C229   H241    1.086   .     S
C230   H242    1.086   .     S
C230   C232    1.390   .     A
C231   C237    1.399   .     A
C231   C233    1.412   .     A
C232   C234    1.412   .     A
C232   C238    1.399   .     A
C233   C235    1.417   .     A
C233   C288    1.405   .     S
C234   C236    1.417   .     A
C234   C287    1.405   1_455 S
C237   H243    1.084   .     S
C237   C273    1.392   .     S
C238   H244    1.084   .     S
C238   C274    1.392   1_455 S
Cu239  O254    1.964   .     S
Cu239  O251    1.971   .     S
Cu239  Cu240   2.688   .     S
Cu239  N250    2.020   .     S
Cu239  O258    1.945   .     S
Cu239  O255    1.960   .     S
Cu240  N249    2.020   .     S
Cu240  O253    1.964   .     S
Cu240  O257    1.945   .     S
Cu240  O252    1.971   .     S
Cu240  O256    1.960   .     S
H247   N573    1.029   .     S
H248   N898    1.029   1_554 S
N249   H895    1.029   1_554 S
N249   N898    1.295   1_554 S
N250   N573    1.295   .     S
N250   H572    1.029   .     S
N259   H260    1.045   .     S
N259   H261    1.046   .     S
N262   H264    1.045   .     S
N262   H263    1.046   .     S
N265   H267    1.045   .     S
N265   C5      1.441   1_565 S
N265   H50     1.046   1_565 S
N268   H270    1.045   .     S
H269   N52     1.046   1_565 S
C271   C275    1.431   .     S
C271   O307    1.287   .     A
C271   O305    1.289   .     A
C272   O308    1.287   .     A
C272   O306    1.289   .     A
C272   C276    1.431   .     S
C273   C290    1.406   .     A
C273   H299    1.083   .     S
C274   C289    1.406   .     A
C274   H300    1.083   .     S
C274   C238    1.392   1_655 S
C276   C59     1.348   1_565 S
C276   N106    1.441   1_565 S
C277   O311    1.290   .     A
C277   C282    1.441   .     S
C277   O309    1.293   .     A
C278   C281    1.441   .     S
C278   O310    1.293   .     A
C278   O312    1.290   .     A
C279   C281    1.407   .     A
C279   N313    1.437   .     S
C279   C289    1.404   .     A
C280   N316    1.437   .     S
C280   C290    1.404   .     A
C280   C282    1.407   .     A
C281   C283    1.394   .     A
C282   C284    1.394   .     A
C283   C285    1.390   .     A
C283   H295    1.086   .     S
C284   H296    1.086   .     S
C284   C286    1.390   .     A
C285   C291    1.399   .     A
C285   C287    1.412   .     A
C286   C288    1.412   .     A
C286   C292    1.399   .     A
C287   C289    1.417   .     A
C287   C234    1.405   1_655 S
C288   C290    1.417   .     A
C291   H297    1.084   .     S
C291   C219    1.392   1_655 S
C292   H298    1.084   .     S
Cu293  O308    1.964   .     S
Cu293  O305    1.971   .     S
Cu293  Cu294   2.688   .     S
Cu293  N304    2.020   .     S
Cu293  O312    1.945   .     S
Cu293  O309    1.960   .     S
Cu294  N303    2.020   .     S
Cu294  O307    1.964   .     S
Cu294  O311    1.945   .     S
Cu294  O306    1.971   .     S
Cu294  O310    1.960   .     S
H301   N627    1.029   .     S
H302   N952    1.029   1_554 S
N303   H949    1.029   1_554 S
N303   N952    1.295   1_554 S
N304   N627    1.295   .     S
N304   H626    1.029   .     S
N313   H314    1.045   .     S
N313   H315    1.046   .     S
N316   H318    1.045   .     S
N316   H317    1.046   .     S
N319   H321    1.045   .     S
N319   C59     1.441   1_565 S
N319   H104    1.046   1_565 S
N322   H324    1.045   .     S
H323   N106    1.046   1_565 S
C325   C329    1.431   .     S
C325   O361    1.287   .     A
C325   O359    1.289   .     A
C326   O362    1.287   .     A
C326   O360    1.289   .     A
C326   C330    1.431   .     S
C327   C344    1.406   .     A
C327   H353    1.083   .     S
C327   C399    1.392   1_455 S
C328   C343    1.406   .     A
C328   H354    1.083   .     S
C328   C400    1.392   .     S
C329   C546    1.348   1_545 S
C329   N589    1.441   1_545 S
C330   C437    1.348   .     S
C330   N484    1.441   .     S
C331   O365    1.290   .     A
C331   C336    1.441   .     S
C331   O363    1.293   .     A
C332   C335    1.441   .     S
C332   O364    1.293   .     A
C332   O366    1.290   .     A
C333   C335    1.407   .     A
C333   N367    1.437   .     S
C333   C343    1.404   .     A
C334   N370    1.437   .     S
C334   C344    1.404   .     A
C334   C336    1.407   .     A
C335   C337    1.394   .     A
C336   C338    1.394   .     A
C337   C339    1.390   .     A
C337   H349    1.086   .     S
C338   H350    1.086   .     S
C338   C340    1.390   .     A
C339   C345    1.399   .     A
C339   C341    1.412   .     A
C340   C342    1.412   .     A
C340   C346    1.399   .     A
C341   C343    1.417   .     A
C341   C396    1.405   .     S
C342   C344    1.417   .     A
C342   C395    1.405   1_455 S
C345   H351    1.084   .     S
C345   C381    1.392   .     S
C346   H352    1.084   .     S
C346   C382    1.392   1_455 S
Cu347  O362    1.964   .     S
Cu347  O359    1.971   .     S
Cu347  Cu348   2.688   .     S
Cu347  N358    2.020   .     S
Cu347  O366    1.945   .     S
Cu347  O363    1.960   .     S
Cu348  N357    2.020   .     S
Cu348  O361    1.964   .     S
Cu348  O365    1.945   .     S
Cu348  O360    1.971   .     S
Cu348  O364    1.960   .     S
H355   N681    1.029   .     S
N358   N681    1.295   .     S
N358   H680    1.029   .     S
N367   H368    1.045   .     S
N367   H369    1.046   .     S
N370   H372    1.045   .     S
N370   H371    1.046   .     S
N373   H375    1.045   .     S
N373   C437    1.441   .     S
N373   H482    1.046   .     S
H374   N589    1.046   1_545 S
N376   H378    1.045   .     S
N376   C546    1.441   1_545 S
N376   H593    1.046   1_545 S
H377   N484    1.046   .     S
C379   C383    1.431   .     S
C379   O415    1.287   .     A
C379   O413    1.289   .     A
C380   O416    1.287   .     A
C380   O414    1.289   .     A
C380   C384    1.431   .     S
C381   C398    1.406   .     A
C381   H407    1.083   .     S
C382   C397    1.406   .     A
C382   H408    1.083   .     S
C382   C346    1.392   1_655 S
C383   C600    1.348   1_545 S
C383   N643    1.441   1_545 S
C384   C491    1.348   .     S
C384   N538    1.441   .     S
C385   O419    1.290   .     A
C385   C390    1.441   .     S
C385   O417    1.293   .     A
C386   C389    1.441   .     S
C386   O418    1.293   .     A
C386   O420    1.290   .     A
C387   C389    1.407   .     A
C387   N421    1.437   .     S
C387   C397    1.404   .     A
C388   N424    1.437   .     S
C388   C398    1.404   .     A
C388   C390    1.407   .     A
C389   C391    1.394   .     A
C390   C392    1.394   .     A
C391   C393    1.390   .     A
C391   H403    1.086   .     S
C392   H404    1.086   .     S
C392   C394    1.390   .     A
C393   C399    1.399   .     A
C393   C395    1.412   .     A
C394   C396    1.412   .     A
C394   C400    1.399   .     A
C395   C397    1.417   .     A
C395   C342    1.405   1_655 S
C396   C398    1.417   .     A
C399   H405    1.084   .     S
C399   C327    1.392   1_655 S
C400   H406    1.084   .     S
Cu401  O416    1.964   .     S
Cu401  O413    1.971   .     S
Cu401  Cu402   2.688   .     S
Cu401  N412    2.020   .     S
Cu401  O420    1.945   .     S
Cu401  O417    1.960   .     S
Cu402  N411    2.020   .     S
Cu402  O415    1.964   .     S
Cu402  O419    1.945   .     S
Cu402  O414    1.971   .     S
Cu402  O418    1.960   .     S
H409   N735    1.029   .     S
N412   N735    1.295   .     S
N412   H734    1.029   .     S
N421   H422    1.045   .     S
N421   H423    1.046   .     S
N424   H426    1.045   .     S
N424   H425    1.046   .     S
N427   H429    1.045   .     S
N427   C491    1.441   .     S
N427   H536    1.046   .     S
H428   N643    1.046   1_545 S
N430   H432    1.045   .     S
N430   C600    1.441   1_545 S
N430   H647    1.046   1_545 S
H431   N538    1.046   .     S
C433   C437    1.431   .     S
C433   O469    1.287   .     A
C433   O467    1.289   .     A
C434   O470    1.287   .     A
C434   O468    1.289   .     A
C434   C438    1.431   .     S
C435   C452    1.406   .     A
C435   H461    1.083   .     S
C435   C507    1.392   1_455 S
C436   C451    1.406   .     A
C436   H462    1.083   .     S
C436   C508    1.392   .     S
C438   C545    1.348   .     S
C438   N592    1.441   .     S
C439   O473    1.290   .     A
C439   C444    1.441   .     S
C439   O471    1.293   .     A
C440   C443    1.441   .     S
C440   O472    1.293   .     A
C440   O474    1.290   .     A
C441   C443    1.407   .     A
C441   N475    1.437   .     S
C441   C451    1.404   .     A
C442   N478    1.437   .     S
C442   C452    1.404   .     A
C442   C444    1.407   .     A
C443   C445    1.394   .     A
C444   C446    1.394   .     A
C445   C447    1.390   .     A
C445   H457    1.086   .     S
C446   H458    1.086   .     S
C446   C448    1.390   .     A
C447   C453    1.399   .     A
C447   C449    1.412   .     A
C448   C450    1.412   .     A
C448   C454    1.399   .     A
C449   C451    1.417   .     A
C449   C504    1.405   .     S
C450   C452    1.417   .     A
C450   C503    1.405   1_455 S
C453   H459    1.084   .     S
C453   C489    1.392   .     S
C454   H460    1.084   .     S
C454   C490    1.392   1_455 S
Cu455  O470    1.964   .     S
Cu455  O467    1.971   .     S
Cu455  Cu456   2.688   .     S
Cu455  N466    2.020   .     S
Cu455  O474    1.945   .     S
Cu455  O471    1.960   .     S
Cu456  N465    2.020   .     S
Cu456  O469    1.964   .     S
Cu456  O473    1.945   .     S
Cu456  O468    1.971   .     S
Cu456  O472    1.960   .     S
H463   N789    1.029   .     S
N466   N789    1.295   .     S
N466   H788    1.029   .     S
N475   H476    1.045   .     S
N475   H477    1.046   .     S
N478   H480    1.045   .     S
N478   H479    1.046   .     S
N481   H483    1.045   .     S
N481   C545    1.441   .     S
N481   H590    1.046   .     S
N484   H486    1.045   .     S
H485   N592    1.046   .     S
C487   C491    1.431   .     S
C487   O523    1.287   .     A
C487   O521    1.289   .     A
C488   O524    1.287   .     A
C488   O522    1.289   .     A
C488   C492    1.431   .     S
C489   C506    1.406   .     A
C489   H515    1.083   .     S
C490   C505    1.406   .     A
C490   H516    1.083   .     S
C490   C454    1.392   1_655 S
C492   C599    1.348   .     S
C492   N646    1.441   .     S
C493   O527    1.290   .     A
C493   C498    1.441   .     S
C493   O525    1.293   .     A
C494   C497    1.441   .     S
C494   O526    1.293   .     A
C494   O528    1.290   .     A
C495   C497    1.407   .     A
C495   N529    1.437   .     S
C495   C505    1.404   .     A
C496   N532    1.437   .     S
C496   C506    1.404   .     A
C496   C498    1.407   .     A
C497   C499    1.394   .     A
C498   C500    1.394   .     A
C499   C501    1.390   .     A
C499   H511    1.086   .     S
C500   H512    1.086   .     S
C500   C502    1.390   .     A
C501   C507    1.399   .     A
C501   C503    1.412   .     A
C502   C504    1.412   .     A
C502   C508    1.399   .     A
C503   C505    1.417   .     A
C503   C450    1.405   1_655 S
C504   C506    1.417   .     A
C507   H513    1.084   .     S
C507   C435    1.392   1_655 S
C508   H514    1.084   .     S
Cu509  O524    1.964   .     S
Cu509  O521    1.971   .     S
Cu509  Cu510   2.688   .     S
Cu509  N520    2.020   .     S
Cu509  O528    1.945   .     S
Cu509  O525    1.960   .     S
Cu510  N519    2.020   .     S
Cu510  O523    1.964   .     S
Cu510  O527    1.945   .     S
Cu510  O522    1.971   .     S
Cu510  O526    1.960   .     S
H517   N843    1.029   .     S
N520   N843    1.295   .     S
N520   H842    1.029   .     S
N529   H530    1.045   .     S
N529   H531    1.046   .     S
N532   H534    1.045   .     S
N532   H533    1.046   .     S
N535   H537    1.045   .     S
N535   C599    1.441   .     S
N535   H644    1.046   .     S
N538   H540    1.045   .     S
H539   N646    1.046   .     S
C541   C545    1.431   .     S
C541   O577    1.287   .     A
C541   O575    1.289   .     A
C542   O578    1.287   .     A
C542   O576    1.289   .     A
C542   C546    1.431   .     S
C543   C560    1.406   .     A
C543   H569    1.083   .     S
C543   C615    1.392   1_455 S
C544   C559    1.406   .     A
C544   H570    1.083   .     S
C544   C616    1.392   .     S
C546   C329    1.348   1_565 S
C546   N376    1.441   1_565 S
C547   O581    1.290   .     A
C547   C552    1.441   .     S
C547   O579    1.293   .     A
C548   C551    1.441   .     S
C548   O580    1.293   .     A
C548   O582    1.290   .     A
C549   C551    1.407   .     A
C549   N583    1.437   .     S
C549   C559    1.404   .     A
C550   N586    1.437   .     S
C550   C560    1.404   .     A
C550   C552    1.407   .     A
C551   C553    1.394   .     A
C552   C554    1.394   .     A
C553   C555    1.390   .     A
C553   H565    1.086   .     S
C554   H566    1.086   .     S
C554   C556    1.390   .     A
C555   C561    1.399   .     A
C555   C557    1.412   .     A
C556   C558    1.412   .     A
C556   C562    1.399   .     A
C557   C559    1.417   .     A
C557   C612    1.405   .     S
C558   C560    1.417   .     A
C558   C611    1.405   1_455 S
C561   H567    1.084   .     S
C561   C597    1.392   .     S
C562   H568    1.084   .     S
C562   C598    1.392   1_455 S
Cu563  O578    1.964   .     S
Cu563  O575    1.971   .     S
Cu563  Cu564   2.688   .     S
Cu563  N574    2.020   .     S
Cu563  O582    1.945   .     S
Cu563  O579    1.960   .     S
Cu564  N573    2.020   .     S
Cu564  O577    1.964   .     S
Cu564  O581    1.945   .     S
Cu564  O576    1.971   .     S
Cu564  O580    1.960   .     S
H571   N897    1.029   .     S
N574   N897    1.295   .     S
N574   H896    1.029   .     S
N583   H584    1.045   .     S
N583   H585    1.046   .     S
N586   H588    1.045   .     S
N586   H587    1.046   .     S
N589   H591    1.045   .     S
N589   C329    1.441   1_565 S
N589   H374    1.046   1_565 S
N592   H594    1.045   .     S
H593   N376    1.046   1_565 S
C595   C599    1.431   .     S
C595   O631    1.287   .     A
C595   O629    1.289   .     A
C596   O632    1.287   .     A
C596   O630    1.289   .     A
C596   C600    1.431   .     S
C597   C614    1.406   .     A
C597   H623    1.083   .     S
C598   C613    1.406   .     A
C598   H624    1.083   .     S
C598   C562    1.392   1_655 S
C600   C383    1.348   1_565 S
C600   N430    1.441   1_565 S
C601   O635    1.290   .     A
C601   C606    1.441   .     S
C601   O633    1.293   .     A
C602   C605    1.441   .     S
C602   O634    1.293   .     A
C602   O636    1.290   .     A
C603   C605    1.407   .     A
C603   N637    1.437   .     S
C603   C613    1.404   .     A
C604   N640    1.437   .     S
C604   C614    1.404   .     A
C604   C606    1.407   .     A
C605   C607    1.394   .     A
C606   C608    1.394   .     A
C607   C609    1.390   .     A
C607   H619    1.086   .     S
C608   H620    1.086   .     S
C608   C610    1.390   .     A
C609   C615    1.399   .     A
C609   C611    1.412   .     A
C610   C612    1.412   .     A
C610   C616    1.399   .     A
C611   C613    1.417   .     A
C611   C558    1.405   1_655 S
C612   C614    1.417   .     A
C615   H621    1.084   .     S
C615   C543    1.392   1_655 S
C616   H622    1.084   .     S
Cu617  O632    1.964   .     S
Cu617  O629    1.971   .     S
Cu617  Cu618   2.688   .     S
Cu617  N628    2.020   .     S
Cu617  O636    1.945   .     S
Cu617  O633    1.960   .     S
Cu618  N627    2.020   .     S
Cu618  O631    1.964   .     S
Cu618  O635    1.945   .     S
Cu618  O630    1.971   .     S
Cu618  O634    1.960   .     S
H625   N951    1.029   .     S
N628   N951    1.295   .     S
N628   H950    1.029   .     S
N637   H638    1.045   .     S
N637   H639    1.046   .     S
N640   H642    1.045   .     S
N640   H641    1.046   .     S
N643   H645    1.045   .     S
N643   C383    1.441   1_565 S
N643   H428    1.046   1_565 S
N646   H648    1.045   .     S
H647   N430    1.046   1_565 S
C649   C653    1.431   .     S
C649   O685    1.287   .     A
C649   O683    1.289   .     A
C650   O686    1.287   .     A
C650   O684    1.289   .     A
C650   C654    1.431   .     S
C651   C668    1.406   .     A
C651   H677    1.083   .     S
C651   C723    1.392   1_455 S
C652   C667    1.406   .     A
C652   H678    1.083   .     S
C652   C724    1.392   .     S
C653   C870    1.348   1_545 S
C653   N913    1.441   1_545 S
C654   C761    1.348   .     S
C654   N808    1.441   .     S
C655   O689    1.290   .     A
C655   C660    1.441   .     S
C655   O687    1.293   .     A
C656   C659    1.441   .     S
C656   O688    1.293   .     A
C656   O690    1.290   .     A
C657   C659    1.407   .     A
C657   N691    1.437   .     S
C657   C667    1.404   .     A
C658   N694    1.437   .     S
C658   C668    1.404   .     A
C658   C660    1.407   .     A
C659   C661    1.394   .     A
C660   C662    1.394   .     A
C661   C663    1.390   .     A
C661   H673    1.086   .     S
C662   H674    1.086   .     S
C662   C664    1.390   .     A
C663   C669    1.399   .     A
C663   C665    1.412   .     A
C664   C666    1.412   .     A
C664   C670    1.399   .     A
C665   C667    1.417   .     A
C665   C720    1.405   .     S
C666   C668    1.417   .     A
C666   C719    1.405   1_455 S
C669   H675    1.084   .     S
C669   C705    1.392   .     S
C670   H676    1.084   .     S
C670   C706    1.392   1_455 S
Cu671  O686    1.964   .     S
Cu671  O683    1.971   .     S
Cu671  Cu672   2.688   .     S
Cu671  N682    2.020   .     S
Cu671  O690    1.945   .     S
Cu671  O687    1.960   .     S
Cu672  N681    2.020   .     S
Cu672  O685    1.964   .     S
Cu672  O689    1.945   .     S
Cu672  O684    1.971   .     S
Cu672  O688    1.960   .     S
H679   N33     1.029   1_556 S
N682   N33     1.295   1_556 S
N682   H32     1.029   1_556 S
N691   H692    1.045   .     S
N691   H693    1.046   .     S
N694   H696    1.045   .     S
N694   H695    1.046   .     S
N697   H699    1.045   .     S
N697   C761    1.441   .     S
N697   H806    1.046   .     S
H698   N913    1.046   1_545 S
N700   H702    1.045   .     S
N700   C870    1.441   1_545 S
N700   H917    1.046   1_545 S
H701   N808    1.046   .     S
C703   C707    1.431   .     S
C703   O739    1.287   .     A
C703   O737    1.289   .     A
C704   O740    1.287   .     A
C704   O738    1.289   .     A
C704   C708    1.431   .     S
C705   C722    1.406   .     A
C705   H731    1.083   .     S
C706   C721    1.406   .     A
C706   H732    1.083   .     S
C706   C670    1.392   1_655 S
C707   C924    1.348   1_545 S
C707   N967    1.441   1_545 S
C708   C815    1.348   .     S
C708   N862    1.441   .     S
C709   O743    1.290   .     A
C709   C714    1.441   .     S
C709   O741    1.293   .     A
C710   C713    1.441   .     S
C710   O742    1.293   .     A
C710   O744    1.290   .     A
C711   C713    1.407   .     A
C711   N745    1.437   .     S
C711   C721    1.404   .     A
C712   N748    1.437   .     S
C712   C722    1.404   .     A
C712   C714    1.407   .     A
C713   C715    1.394   .     A
C714   C716    1.394   .     A
C715   C717    1.390   .     A
C715   H727    1.086   .     S
C716   H728    1.086   .     S
C716   C718    1.390   .     A
C717   C723    1.399   .     A
C717   C719    1.412   .     A
C718   C720    1.412   .     A
C718   C724    1.399   .     A
C719   C721    1.417   .     A
C719   C666    1.405   1_655 S
C720   C722    1.417   .     A
C723   H729    1.084   .     S
C723   C651    1.392   1_655 S
C724   H730    1.084   .     S
Cu725  O740    1.964   .     S
Cu725  O737    1.971   .     S
Cu725  Cu726   2.688   .     S
Cu725  N736    2.020   .     S
Cu725  O744    1.945   .     S
Cu725  O741    1.960   .     S
Cu726  N735    2.020   .     S
Cu726  O739    1.964   .     S
Cu726  O743    1.945   .     S
Cu726  O738    1.971   .     S
Cu726  O742    1.960   .     S
H733   N87     1.029   1_556 S
N736   N87     1.295   1_556 S
N736   H86     1.029   1_556 S
N745   H746    1.045   .     S
N745   H747    1.046   .     S
N748   H750    1.045   .     S
N748   H749    1.046   .     S
N751   H753    1.045   .     S
N751   C815    1.441   .     S
N751   H860    1.046   .     S
H752   N967    1.046   1_545 S
N754   H756    1.045   .     S
N754   C924    1.441   1_545 S
N754   H971    1.046   1_545 S
H755   N862    1.046   .     S
C757   C761    1.431   .     S
C757   O793    1.287   .     A
C757   O791    1.289   .     A
C758   O794    1.287   .     A
C758   O792    1.289   .     A
C758   C762    1.431   .     S
C759   C776    1.406   .     A
C759   H785    1.083   .     S
C759   C831    1.392   1_455 S
C760   C775    1.406   .     A
C760   H786    1.083   .     S
C760   C832    1.392   .     S
C762   C869    1.348   .     S
C762   N916    1.441   .     S
C763   O797    1.290   .     A
C763   C768    1.441   .     S
C763   O795    1.293   .     A
C764   C767    1.441   .     S
C764   O796    1.293   .     A
C764   O798    1.290   .     A
C765   C767    1.407   .     A
C765   N799    1.437   .     S
C765   C775    1.404   .     A
C766   N802    1.437   .     S
C766   C776    1.404   .     A
C766   C768    1.407   .     A
C767   C769    1.394   .     A
C768   C770    1.394   .     A
C769   C771    1.390   .     A
C769   H781    1.086   .     S
C770   H782    1.086   .     S
C770   C772    1.390   .     A
C771   C777    1.399   .     A
C771   C773    1.412   .     A
C772   C774    1.412   .     A
C772   C778    1.399   .     A
C773   C775    1.417   .     A
C773   C828    1.405   .     S
C774   C776    1.417   .     A
C774   C827    1.405   1_455 S
C777   H783    1.084   .     S
C777   C813    1.392   .     S
C778   H784    1.084   .     S
C778   C814    1.392   1_455 S
Cu779  O794    1.964   .     S
Cu779  O791    1.971   .     S
Cu779  Cu780   2.688   .     S
Cu779  N790    2.020   .     S
Cu779  O798    1.945   .     S
Cu779  O795    1.960   .     S
Cu780  N789    2.020   .     S
Cu780  O793    1.964   .     S
Cu780  O797    1.945   .     S
Cu780  O792    1.971   .     S
Cu780  O796    1.960   .     S
H787   N141    1.029   1_556 S
N790   N141    1.295   1_556 S
N790   H140    1.029   1_556 S
N799   H800    1.045   .     S
N799   H801    1.046   .     S
N802   H804    1.045   .     S
N802   H803    1.046   .     S
N805   H807    1.045   .     S
N805   C869    1.441   .     S
N805   H914    1.046   .     S
N808   H810    1.045   .     S
H809   N916    1.046   .     S
C811   C815    1.431   .     S
C811   O847    1.287   .     A
C811   O845    1.289   .     A
C812   O848    1.287   .     A
C812   O846    1.289   .     A
C812   C816    1.431   .     S
C813   C830    1.406   .     A
C813   H839    1.083   .     S
C814   C829    1.406   .     A
C814   H840    1.083   .     S
C814   C778    1.392   1_655 S
C816   C923    1.348   .     S
C816   N970    1.441   .     S
C817   O851    1.290   .     A
C817   C822    1.441   .     S
C817   O849    1.293   .     A
C818   C821    1.441   .     S
C818   O850    1.293   .     A
C818   O852    1.290   .     A
C819   C821    1.407   .     A
C819   N853    1.437   .     S
C819   C829    1.404   .     A
C820   N856    1.437   .     S
C820   C830    1.404   .     A
C820   C822    1.407   .     A
C821   C823    1.394   .     A
C822   C824    1.394   .     A
C823   C825    1.390   .     A
C823   H835    1.086   .     S
C824   H836    1.086   .     S
C824   C826    1.390   .     A
C825   C831    1.399   .     A
C825   C827    1.412   .     A
C826   C828    1.412   .     A
C826   C832    1.399   .     A
C827   C829    1.417   .     A
C827   C774    1.405   1_655 S
C828   C830    1.417   .     A
C831   H837    1.084   .     S
C831   C759    1.392   1_655 S
C832   H838    1.084   .     S
Cu833  O848    1.964   .     S
Cu833  O845    1.971   .     S
Cu833  Cu834   2.688   .     S
Cu833  N844    2.020   .     S
Cu833  O852    1.945   .     S
Cu833  O849    1.960   .     S
Cu834  N843    2.020   .     S
Cu834  O847    1.964   .     S
Cu834  O851    1.945   .     S
Cu834  O846    1.971   .     S
Cu834  O850    1.960   .     S
H841   N195    1.029   1_556 S
N844   N195    1.295   1_556 S
N844   H194    1.029   1_556 S
N853   H854    1.045   .     S
N853   H855    1.046   .     S
N856   H858    1.045   .     S
N856   H857    1.046   .     S
N859   H861    1.045   .     S
N859   C923    1.441   .     S
N859   H968    1.046   .     S
N862   H864    1.045   .     S
H863   N970    1.046   .     S
C865   C869    1.431   .     S
C865   O901    1.287   .     A
C865   O899    1.289   .     A
C866   O902    1.287   .     A
C866   O900    1.289   .     A
C866   C870    1.431   .     S
C867   C884    1.406   .     A
C867   H893    1.083   .     S
C867   C939    1.392   1_455 S
C868   C883    1.406   .     A
C868   H894    1.083   .     S
C868   C940    1.392   .     S
C870   C653    1.348   1_565 S
C870   N700    1.441   1_565 S
C871   O905    1.290   .     A
C871   C876    1.441   .     S
C871   O903    1.293   .     A
C872   C875    1.441   .     S
C872   O904    1.293   .     A
C872   O906    1.290   .     A
C873   C875    1.407   .     A
C873   N907    1.437   .     S
C873   C883    1.404   .     A
C874   N910    1.437   .     S
C874   C884    1.404   .     A
C874   C876    1.407   .     A
C875   C877    1.394   .     A
C876   C878    1.394   .     A
C877   C879    1.390   .     A
C877   H889    1.086   .     S
C878   H890    1.086   .     S
C878   C880    1.390   .     A
C879   C885    1.399   .     A
C879   C881    1.412   .     A
C880   C882    1.412   .     A
C880   C886    1.399   .     A
C881   C883    1.417   .     A
C881   C936    1.405   .     S
C882   C884    1.417   .     A
C882   C935    1.405   1_455 S
C885   H891    1.084   .     S
C885   C921    1.392   .     S
C886   H892    1.084   .     S
C886   C922    1.392   1_455 S
Cu887  O902    1.964   .     S
Cu887  O899    1.971   .     S
Cu887  Cu888   2.688   .     S
Cu887  N898    2.020   .     S
Cu887  O906    1.945   .     S
Cu887  O903    1.960   .     S
Cu888  N897    2.020   .     S
Cu888  O901    1.964   .     S
Cu888  O905    1.945   .     S
Cu888  O900    1.971   .     S
Cu888  O904    1.960   .     S
H895   N249    1.029   1_556 S
N898   N249    1.295   1_556 S
N898   H248    1.029   1_556 S
N907   H908    1.045   .     S
N907   H909    1.046   .     S
N910   H912    1.045   .     S
N910   H911    1.046   .     S
N913   H915    1.045   .     S
N913   C653    1.441   1_565 S
N913   H698    1.046   1_565 S
N916   H918    1.045   .     S
H917   N700    1.046   1_565 S
C919   C923    1.431   .     S
C919   O955    1.287   .     A
C919   O953    1.289   .     A
C920   O956    1.287   .     A
C920   O954    1.289   .     A
C920   C924    1.431   .     S
C921   C938    1.406   .     A
C921   H947    1.083   .     S
C922   C937    1.406   .     A
C922   H948    1.083   .     S
C922   C886    1.392   1_655 S
C924   C707    1.348   1_565 S
C924   N754    1.441   1_565 S
C925   O959    1.290   .     A
C925   C930    1.441   .     S
C925   O957    1.293   .     A
C926   C929    1.441   .     S
C926   O958    1.293   .     A
C926   O960    1.290   .     A
C927   C929    1.407   .     A
C927   N961    1.437   .     S
C927   C937    1.404   .     A
C928   N964    1.437   .     S
C928   C938    1.404   .     A
C928   C930    1.407   .     A
C929   C931    1.394   .     A
C930   C932    1.394   .     A
C931   C933    1.390   .     A
C931   H943    1.086   .     S
C932   H944    1.086   .     S
C932   C934    1.390   .     A
C933   C939    1.399   .     A
C933   C935    1.412   .     A
C934   C936    1.412   .     A
C934   C940    1.399   .     A
C935   C937    1.417   .     A
C935   C882    1.405   1_655 S
C936   C938    1.417   .     A
C939   H945    1.084   .     S
C939   C867    1.392   1_655 S
C940   H946    1.084   .     S
Cu941  O956    1.964   .     S
Cu941  O953    1.971   .     S
Cu941  Cu942   2.688   .     S
Cu941  N952    2.020   .     S
Cu941  O960    1.945   .     S
Cu941  O957    1.960   .     S
Cu942  N951    2.020   .     S
Cu942  O955    1.964   .     S
Cu942  O959    1.945   .     S
Cu942  O954    1.971   .     S
Cu942  O958    1.960   .     S
H949   N303    1.029   1_556 S
N952   N303    1.295   1_556 S
N952   H302    1.029   1_556 S
N961   H962    1.045   .     S
N961   H963    1.046   .     S
N964   H966    1.045   .     S
N964   H965    1.046   .     S
N967   H969    1.045   .     S
N967   C707    1.441   1_565 S
N967   H752    1.046   1_565 S
N970   H972    1.045   .     S
H971   N754    1.046   1_565 S
