data_str_m2_o2_o10_pcu_sym.85
_audit_creation_date              2020-01-03
_audit_creation_method            'Materials Studio'
_symmetry_space_group_name_H-M    'P1'
_symmetry_Int_Tables_number       1
_symmetry_cell_setting            triclinic
loop_
_symmetry_equiv_pos_as_xyz
  x,y,z
_cell_length_a                    26.6244
_cell_length_b                    30.4818
_cell_length_c                    27.8561
_cell_angle_alpha                 89.9242
_cell_angle_beta                  97.6926
_cell_angle_gamma                 91.3340
loop_
_atom_site_label
_atom_site_type_symbol
_atom_site_fract_x
_atom_site_fract_y
_atom_site_fract_z
_atom_site_U_iso_or_equiv
_atom_site_adp_type
_atom_site_occupancy
C1     C     0.16784   0.16491   0.25025   0.00000  Uiso   1.00
C2     C     0.17321   0.28813   0.44833   0.00000  Uiso   1.00
C3     C     0.16418   0.24931   0.02726   0.00000  Uiso   1.00
C4     C     0.16365   0.24937   0.47286   0.00000  Uiso   1.00
C5     C     0.06824   0.25196   0.23786   0.00000  Uiso   1.00
C6     C     0.26528   0.25092   0.26227   0.00000  Uiso   1.00
C7     C     0.01373   0.25991   0.23228   0.00000  Uiso   1.00
C8     C     0.32045   0.24841   0.26891   0.00000  Uiso   1.00
C9     C     0.13960   0.04756   0.28124   0.00000  Uiso   1.00
C10    C     0.14913   0.45282   0.20552   0.00000  Uiso   1.00
C11    C     0.14858   0.09264   0.28694   0.00000  Uiso   1.00
C12    C     0.16356   0.33493   0.24943   0.00000  Uiso   1.00
C13    C     0.15062   0.40674   0.20444   0.00000  Uiso   1.00
C14    C     0.16999   0.11644   0.25106   0.00000  Uiso   1.00
C15    C     0.15817   0.38320   0.24841   0.00000  Uiso   1.00
C16    C     0.19392   0.09346   0.21657   0.00000  Uiso   1.00
C17    C     0.15853   0.40651   0.29206   0.00000  Uiso   1.00
C18    C     0.19625   0.04713   0.21928   0.00000  Uiso   1.00
C19    C     0.16983   0.45149   0.29325   0.00000  Uiso   1.00
C20    C     0.16664   0.02402   0.25028   0.00000  Uiso   1.00
C21    C     0.16270   0.47544   0.24964   0.00000  Uiso   1.00
C22    C     0.01858   0.31778   0.17818   0.00000  Uiso   1.00
C23    C     0.20482   0.26905   0.05801   0.00000  Uiso   1.00
C24    C     0.31670   0.35293   0.15565   0.00000  Uiso   1.00
C25    C     0.00096   0.25467   0.35214   0.00000  Uiso   1.00
C26    C     0.04667   0.25714   0.38993   0.00000  Uiso   1.00
C27    C     0.05660   0.03488   0.29126   0.00000  Uiso   1.00
C28    C     0.02437   0.03467   0.33240   0.00000  Uiso   1.00
C29    C     0.08479   0.48461   0.15694   0.00000  Uiso   1.00
C30    C     0.07314   0.01592   0.11469   0.00000  Uiso   1.00
C31    C     0.16751   0.10115   0.36883   0.00000  Uiso   1.00
C32    C     0.13757   0.09196   0.41079   0.00000  Uiso   1.00
C33    C     0.17369   0.38623   0.13214   0.00000  Uiso   1.00
C34    C     0.15368   0.21118   0.44458   0.00000  Uiso   1.00
C35    C     0.15260   0.36888   0.08255   0.00000  Uiso   1.00
C36    C     0.26310   0.11767   0.17857   0.00000  Uiso   1.00
C37    C     0.29302   0.13336   0.22692   0.00000  Uiso   1.00
C38    C     0.01509   0.14345   0.22155   0.00000  Uiso   1.00
C39    C     0.09055   0.37497   0.32287   0.00000  Uiso   1.00
C40    C     0.05587   0.41463   0.32088   0.00000  Uiso   1.00
C41    C     0.00242   0.40249   0.29715   0.00000  Uiso   1.00
C42    C     0.26687   0.00704   0.21416   0.00000  Uiso   1.00
C43    C     0.28860   0.47324   0.18316   0.00000  Uiso   1.00
C44    C     0.23194   0.46526   0.35585   0.00000  Uiso   1.00
C45    C     0.20473   0.26990   0.10860   0.00000  Uiso   1.00
C46    C     0.24319   0.48311   0.40724   0.00000  Uiso   1.00
C47    C     0.09461   0.15775   0.10988   0.00000  Uiso   1.00
C48    C     0.04045   0.13959   0.09418   0.00000  Uiso   1.00
C49    C     0.03529   0.11510   0.04585   0.00000  Uiso   1.00
C50    C     0.25158   0.32833   0.39194   0.00000  Uiso   1.00
C51    C     0.26608   0.36089   0.43376   0.00000  Uiso   1.00
C52    C     0.31995   0.37914   0.43443   0.00000  Uiso   1.00
C53    C     0.04167   0.24565   0.02319   0.00000  Uiso   1.00
C54    C     0.32516   0.22732   0.49660   0.00000  Uiso   1.00
C55    C     0.12703   0.34769   0.46294   0.00000  Uiso   1.00
C56    C     0.15328   0.21274   0.39367   0.00000  Uiso   1.00
C57    C     0.13397   0.39715   0.45792   0.00000  Uiso   1.00
C58    C     0.12875   0.22731   0.10066   0.00000  Uiso   1.00
C59    C     0.18021   0.28683   0.39879   0.00000  Uiso   1.00
C60    C     0.12409   0.23066   0.04922   0.00000  Uiso   1.00
Cu61   Cu    0.16667   0.24999   0.29822   0.00000  Uiso   1.00
Cu62   Cu    0.16667   0.25000   0.20179   0.00000  Uiso   1.00
H63    H     0.23625   0.28444   0.04295   0.00000  Uiso   1.00
H64    H     0.30374   0.23746   0.36883   0.00000  Uiso   1.00
H65    H     0.32433   0.28927   0.34293   0.00000  Uiso   1.00
H66    H     0.07768   0.27416   0.37429   0.00000  Uiso   1.00
H67    H     0.03792   0.27653   0.42119   0.00000  Uiso   1.00
H68    H     0.05691   0.22355   0.40213   0.00000  Uiso   1.00
H69    H     0.04214   0.00875   0.26505   0.00000  Uiso   1.00
H70    H     0.05132   0.06710   0.27277   0.00000  Uiso   1.00
H71    H     0.03639   0.06216   0.35770   0.00000  Uiso   1.00
H72    H     0.31737   0.03916   0.31751   0.00000  Uiso   1.00
H73    H     0.02794   0.00320   0.35245   0.00000  Uiso   1.00
H74    H     0.14439   0.18064   0.46152   0.00000  Uiso   1.00
H75    H     0.07357   0.00072   0.18960   0.00000  Uiso   1.00
H76    H     0.06196   0.45380   0.14900   0.00000  Uiso   1.00
H77    H     0.08259   0.00072   0.08090   0.00000  Uiso   1.00
H78    H     0.03229   0.02383   0.10978   0.00000  Uiso   1.00
H79    H     0.09590   0.04678   0.12203   0.00000  Uiso   1.00
H80    H     0.19506   0.12860   0.37876   0.00000  Uiso   1.00
H81    H     0.19066   0.07178   0.36437   0.00000  Uiso   1.00
H82    H     0.16374   0.09143   0.44534   0.00000  Uiso   1.00
H83    H     0.10897   0.11754   0.41298   0.00000  Uiso   1.00
H84    H     0.11794   0.05946   0.40575   0.00000  Uiso   1.00
H85    H     0.23539   0.28626   0.13135   0.00000  Uiso   1.00
H86    H     0.20515   0.36512   0.14767   0.00000  Uiso   1.00
H87    H     0.18869   0.42006   0.12726   0.00000  Uiso   1.00
H88    H     0.12413   0.39186   0.06482   0.00000  Uiso   1.00
H89    H     0.18399   0.36583   0.06038   0.00000  Uiso   1.00
H90    H     0.13388   0.33627   0.08567   0.00000  Uiso   1.00
H91    H     0.27115   0.14144   0.15014   0.00000  Uiso   1.00
H92    H     0.27685   0.08598   0.16685   0.00000  Uiso   1.00
H93    H     0.27580   0.16337   0.23916   0.00000  Uiso   1.00
H94    H     0.29152   0.10776   0.25513   0.00000  Uiso   1.00
H95    H     0.03296   0.11413   0.20823   0.00000  Uiso   1.00
H96    H     0.13988   0.18455   0.37248   0.00000  Uiso   1.00
H97    H     0.03621   0.15325   0.25716   0.00000  Uiso   1.00
H98    H     0.01781   0.17070   0.19548   0.00000  Uiso   1.00
H99    H     0.08101   0.35306   0.35214   0.00000  Uiso   1.00
H100   H     0.08180   0.35508   0.28929   0.00000  Uiso   1.00
H101   H     0.05500   0.42713   0.35816   0.00000  Uiso   1.00
H102   H     0.07028   0.44133   0.29919   0.00000  Uiso   1.00
H103   H     0.00280   0.39442   0.25837   0.00000  Uiso   1.00
H104   H     0.31050   0.43058   0.29944   0.00000  Uiso   1.00
H105   H     0.32080   0.37367   0.31528   0.00000  Uiso   1.00
H106   H     0.25980   0.49050   0.24824   0.00000  Uiso   1.00
H107   H     0.04321   0.30801   0.15099   0.00000  Uiso   1.00
H108   H     0.29579   0.03347   0.22358   0.00000  Uiso   1.00
H109   H     0.29552   0.48797   0.14812   0.00000  Uiso   1.00
H110   H     0.32481   0.46118   0.20243   0.00000  Uiso   1.00
H111   H     0.26181   0.44490   0.17629   0.00000  Uiso   1.00
H112   H     0.25734   0.48265   0.33323   0.00000  Uiso   1.00
H113   H     0.24051   0.42966   0.35684   0.00000  Uiso   1.00
H114   H     0.21668   0.46803   0.43041   0.00000  Uiso   1.00
H115   H     0.28266   0.47543   0.42258   0.00000  Uiso   1.00
H116   H     0.23920   0.01921   0.40734   0.00000  Uiso   1.00
H117   H     0.11067   0.13967   0.14279   0.00000  Uiso   1.00
H118   H     0.04252   0.33317   0.20989   0.00000  Uiso   1.00
H119   H     0.11981   0.15022   0.08209   0.00000  Uiso   1.00
H120   H     0.02966   0.11644   0.12206   0.00000  Uiso   1.00
H121   H     0.01285   0.16654   0.09137   0.00000  Uiso   1.00
H122   H     0.04221   0.13764   0.01605   0.00000  Uiso   1.00
H123   H     0.32967   0.10084   0.03758   0.00000  Uiso   1.00
H124   H     0.06275   0.08814   0.04747   0.00000  Uiso   1.00
H125   H     0.26695   0.34072   0.35944   0.00000  Uiso   1.00
H126   H     0.26997   0.29664   0.40210   0.00000  Uiso   1.00
H127   H     0.23947   0.38846   0.43077   0.00000  Uiso   1.00
H128   H     0.26432   0.34397   0.46880   0.00000  Uiso   1.00
H129   H     0.29001   0.36185   0.18121   0.00000  Uiso   1.00
H130   H     0.01375   0.35198   0.43587   0.00000  Uiso   1.00
H131   H     0.33020   0.40031   0.46683   0.00000  Uiso   1.00
H132   H     0.32270   0.39922   0.40167   0.00000  Uiso   1.00
H133   H     0.05127   0.27705   0.00583   0.00000  Uiso   1.00
H134   H     0.03552   0.25267   0.06119   0.00000  Uiso   1.00
H135   H     0.30959   0.20101   0.01826   0.00000  Uiso   1.00
H136   H     0.29711   0.25383   0.49064   0.00000  Uiso   1.00
H137   H     0.33083   0.21343   0.46104   0.00000  Uiso   1.00
H138   H     0.10550   0.34068   0.49360   0.00000  Uiso   1.00
H139   H     0.10323   0.33568   0.42956   0.00000  Uiso   1.00
H140   H     0.00591   0.38264   0.14810   0.00000  Uiso   1.00
H141   H     0.15041   0.40481   0.42431   0.00000  Uiso   1.00
H142   H     0.09672   0.41313   0.45597   0.00000  Uiso   1.00
H143   H     0.15973   0.41084   0.48916   0.00000  Uiso   1.00
H144   H     0.29529   0.34108   0.12101   0.00000  Uiso   1.00
N145   N     0.16667   0.25001   0.12935   0.00000  Uiso   1.00
N146   N     0.16667   0.24999   0.37066   0.00000  Uiso   1.00
O147   O     0.16667   0.18572   0.29072   0.00000  Uiso   1.00
O148   O     0.01144   0.23031   0.31160   0.00000  Uiso   1.00
O149   O     0.10760   0.02640   0.30965   0.00000  Uiso   1.00
O150   O     0.13694   0.47566   0.16280   0.00000  Uiso   1.00
O151   O     0.13397   0.11305   0.32693   0.00000  Uiso   1.00
O152   O     0.13460   0.38488   0.16156   0.00000  Uiso   1.00
O153   O     0.20975   0.11654   0.17797   0.00000  Uiso   1.00
O154   O     0.14279   0.38739   0.33284   0.00000  Uiso   1.00
O155   O     0.22261   0.02456   0.18790   0.00000  Uiso   1.00
O156   O     0.18081   0.47257   0.33752   0.00000  Uiso   1.00
O157   O     0.09328   0.20294   0.12218   0.00000  Uiso   1.00
O158   O     0.16666   0.31427   0.20929   0.00000  Uiso   1.00
O159   O     0.19840   0.32434   0.37891   0.00000  Uiso   1.00
O160   O     0.08062   0.21519   0.02089   0.00000  Uiso   1.00
O161   O     0.17501   0.32800   0.47215   0.00000  Uiso   1.00
O162   O     0.16667   0.18573   0.20928   0.00000  Uiso   1.00
O163   O     0.16666   0.31427   0.29072   0.00000  Uiso   1.00
O164   O     0.09161   0.24999   0.28132   0.00000  Uiso   1.00
O165   O     0.24172   0.25000   0.21868   0.00000  Uiso   1.00
O166   O     0.09161   0.25000   0.19989   0.00000  Uiso   1.00
O167   O     0.24172   0.25000   0.30012   0.00000  Uiso   1.00
O168   O     0.32313   0.28078   0.19096   0.00000  Uiso   1.00
C169   C     0.50117   0.16491   0.25025   0.00000  Uiso   1.00
C170   C     0.50654   0.28813   0.44833   0.00000  Uiso   1.00
C171   C     0.49751   0.24931   0.02726   0.00000  Uiso   1.00
C172   C     0.49699   0.24937   0.47286   0.00000  Uiso   1.00
C173   C     0.40158   0.25196   0.23786   0.00000  Uiso   1.00
C174   C     0.59861   0.25092   0.26227   0.00000  Uiso   1.00
C175   C     0.34707   0.25991   0.23228   0.00000  Uiso   1.00
C176   C     0.65379   0.24841   0.26891   0.00000  Uiso   1.00
C177   C     0.47294   0.04756   0.28124   0.00000  Uiso   1.00
C178   C     0.48246   0.45282   0.20552   0.00000  Uiso   1.00
C179   C     0.48191   0.09264   0.28694   0.00000  Uiso   1.00
C180   C     0.49690   0.33493   0.24943   0.00000  Uiso   1.00
C181   C     0.48395   0.40674   0.20444   0.00000  Uiso   1.00
C182   C     0.50332   0.11644   0.25106   0.00000  Uiso   1.00
C183   C     0.49150   0.38320   0.24841   0.00000  Uiso   1.00
C184   C     0.52726   0.09346   0.21657   0.00000  Uiso   1.00
C185   C     0.49187   0.40651   0.29206   0.00000  Uiso   1.00
C186   C     0.52959   0.04713   0.21928   0.00000  Uiso   1.00
C187   C     0.50316   0.45149   0.29325   0.00000  Uiso   1.00
C188   C     0.49998   0.02402   0.25028   0.00000  Uiso   1.00
C189   C     0.49603   0.47544   0.24964   0.00000  Uiso   1.00
C190   C     0.35191   0.31778   0.17818   0.00000  Uiso   1.00
C191   C     0.53815   0.26905   0.05801   0.00000  Uiso   1.00
C192   C     0.65003   0.35293   0.15565   0.00000  Uiso   1.00
C193   C     0.33429   0.25467   0.35214   0.00000  Uiso   1.00
C194   C     0.38001   0.25714   0.38993   0.00000  Uiso   1.00
C195   C     0.38994   0.03488   0.29126   0.00000  Uiso   1.00
C196   C     0.35770   0.03467   0.33240   0.00000  Uiso   1.00
C197   C     0.41812   0.48461   0.15694   0.00000  Uiso   1.00
C198   C     0.40647   0.01592   0.11469   0.00000  Uiso   1.00
C199   C     0.50085   0.10115   0.36883   0.00000  Uiso   1.00
C200   C     0.47090   0.09196   0.41079   0.00000  Uiso   1.00
C201   C     0.50703   0.38623   0.13214   0.00000  Uiso   1.00
C202   C     0.48701   0.21118   0.44458   0.00000  Uiso   1.00
C203   C     0.48594   0.36888   0.08255   0.00000  Uiso   1.00
C204   C     0.59643   0.11767   0.17857   0.00000  Uiso   1.00
C205   C     0.62636   0.13336   0.22692   0.00000  Uiso   1.00
C206   C     0.34843   0.14345   0.22155   0.00000  Uiso   1.00
C207   C     0.42389   0.37497   0.32287   0.00000  Uiso   1.00
C208   C     0.38920   0.41463   0.32088   0.00000  Uiso   1.00
C209   C     0.33575   0.40249   0.29715   0.00000  Uiso   1.00
C210   C     0.60020   0.00704   0.21416   0.00000  Uiso   1.00
C211   C     0.62193   0.47324   0.18316   0.00000  Uiso   1.00
C212   C     0.56527   0.46526   0.35585   0.00000  Uiso   1.00
C213   C     0.53806   0.26990   0.10860   0.00000  Uiso   1.00
C214   C     0.57652   0.48311   0.40724   0.00000  Uiso   1.00
C215   C     0.42795   0.15775   0.10988   0.00000  Uiso   1.00
C216   C     0.37378   0.13959   0.09418   0.00000  Uiso   1.00
C217   C     0.36863   0.11510   0.04585   0.00000  Uiso   1.00
C218   C     0.58491   0.32833   0.39194   0.00000  Uiso   1.00
C219   C     0.59941   0.36089   0.43376   0.00000  Uiso   1.00
C220   C     0.65328   0.37914   0.43443   0.00000  Uiso   1.00
C221   C     0.37500   0.24565   0.02319   0.00000  Uiso   1.00
C222   C     0.65850   0.22732   0.49660   0.00000  Uiso   1.00
C223   C     0.46036   0.34769   0.46294   0.00000  Uiso   1.00
C224   C     0.48661   0.21274   0.39367   0.00000  Uiso   1.00
C225   C     0.46730   0.39715   0.45792   0.00000  Uiso   1.00
C226   C     0.46209   0.22731   0.10066   0.00000  Uiso   1.00
C227   C     0.51354   0.28683   0.39879   0.00000  Uiso   1.00
C228   C     0.45742   0.23066   0.04922   0.00000  Uiso   1.00
Cu229  Cu    0.50000   0.24999   0.29822   0.00000  Uiso   1.00
Cu230  Cu    0.50000   0.25000   0.20179   0.00000  Uiso   1.00
H231   H     0.56958   0.28444   0.04295   0.00000  Uiso   1.00
H232   H     0.63707   0.23746   0.36883   0.00000  Uiso   1.00
H233   H     0.65766   0.28927   0.34293   0.00000  Uiso   1.00
H234   H     0.41101   0.27416   0.37429   0.00000  Uiso   1.00
H235   H     0.37126   0.27653   0.42119   0.00000  Uiso   1.00
H236   H     0.39025   0.22355   0.40213   0.00000  Uiso   1.00
H237   H     0.37547   0.00875   0.26505   0.00000  Uiso   1.00
H238   H     0.38465   0.06710   0.27277   0.00000  Uiso   1.00
H239   H     0.36972   0.06216   0.35770   0.00000  Uiso   1.00
H240   H     0.65070   0.03916   0.31751   0.00000  Uiso   1.00
H241   H     0.36127   0.00320   0.35245   0.00000  Uiso   1.00
H242   H     0.47772   0.18064   0.46152   0.00000  Uiso   1.00
H243   H     0.40690   0.00072   0.18960   0.00000  Uiso   1.00
H244   H     0.39529   0.45380   0.14900   0.00000  Uiso   1.00
H245   H     0.41592   0.00072   0.08090   0.00000  Uiso   1.00
H246   H     0.36562   0.02383   0.10978   0.00000  Uiso   1.00
H247   H     0.42923   0.04678   0.12203   0.00000  Uiso   1.00
H248   H     0.52839   0.12860   0.37876   0.00000  Uiso   1.00
H249   H     0.52400   0.07178   0.36437   0.00000  Uiso   1.00
H250   H     0.49707   0.09143   0.44534   0.00000  Uiso   1.00
H251   H     0.44230   0.11754   0.41298   0.00000  Uiso   1.00
H252   H     0.45127   0.05946   0.40575   0.00000  Uiso   1.00
H253   H     0.56872   0.28626   0.13135   0.00000  Uiso   1.00
H254   H     0.53849   0.36512   0.14767   0.00000  Uiso   1.00
H255   H     0.52202   0.42006   0.12726   0.00000  Uiso   1.00
H256   H     0.45746   0.39186   0.06482   0.00000  Uiso   1.00
H257   H     0.51733   0.36583   0.06038   0.00000  Uiso   1.00
H258   H     0.46721   0.33627   0.08567   0.00000  Uiso   1.00
H259   H     0.60449   0.14144   0.15014   0.00000  Uiso   1.00
H260   H     0.61019   0.08598   0.16685   0.00000  Uiso   1.00
H261   H     0.60913   0.16337   0.23916   0.00000  Uiso   1.00
H262   H     0.62486   0.10776   0.25513   0.00000  Uiso   1.00
H263   H     0.36629   0.11413   0.20823   0.00000  Uiso   1.00
H264   H     0.47321   0.18455   0.37248   0.00000  Uiso   1.00
H265   H     0.36954   0.15325   0.25716   0.00000  Uiso   1.00
H266   H     0.35114   0.17070   0.19548   0.00000  Uiso   1.00
H267   H     0.41435   0.35306   0.35214   0.00000  Uiso   1.00
H268   H     0.41513   0.35508   0.28929   0.00000  Uiso   1.00
H269   H     0.38833   0.42713   0.35816   0.00000  Uiso   1.00
H270   H     0.40362   0.44133   0.29919   0.00000  Uiso   1.00
H271   H     0.33613   0.39442   0.25837   0.00000  Uiso   1.00
H272   H     0.64384   0.43058   0.29944   0.00000  Uiso   1.00
H273   H     0.65413   0.37367   0.31528   0.00000  Uiso   1.00
H274   H     0.59313   0.49050   0.24824   0.00000  Uiso   1.00
H275   H     0.37655   0.30801   0.15099   0.00000  Uiso   1.00
H276   H     0.62912   0.03347   0.22358   0.00000  Uiso   1.00
H277   H     0.62885   0.48797   0.14812   0.00000  Uiso   1.00
H278   H     0.65814   0.46118   0.20243   0.00000  Uiso   1.00
H279   H     0.59514   0.44490   0.17629   0.00000  Uiso   1.00
H280   H     0.59067   0.48265   0.33323   0.00000  Uiso   1.00
H281   H     0.57384   0.42966   0.35684   0.00000  Uiso   1.00
H282   H     0.55002   0.46803   0.43041   0.00000  Uiso   1.00
H283   H     0.61599   0.47543   0.42258   0.00000  Uiso   1.00
H284   H     0.57253   0.01921   0.40734   0.00000  Uiso   1.00
H285   H     0.44400   0.13967   0.14279   0.00000  Uiso   1.00
H286   H     0.37585   0.33317   0.20989   0.00000  Uiso   1.00
H287   H     0.45315   0.15022   0.08209   0.00000  Uiso   1.00
H288   H     0.36300   0.11644   0.12206   0.00000  Uiso   1.00
H289   H     0.34618   0.16654   0.09137   0.00000  Uiso   1.00
H290   H     0.37554   0.13764   0.01605   0.00000  Uiso   1.00
H291   H     0.66301   0.10084   0.03758   0.00000  Uiso   1.00
H292   H     0.39609   0.08814   0.04747   0.00000  Uiso   1.00
H293   H     0.60028   0.34072   0.35944   0.00000  Uiso   1.00
H294   H     0.60330   0.29664   0.40210   0.00000  Uiso   1.00
H295   H     0.57280   0.38846   0.43077   0.00000  Uiso   1.00
H296   H     0.59765   0.34397   0.46880   0.00000  Uiso   1.00
H297   H     0.62334   0.36185   0.18121   0.00000  Uiso   1.00
H298   H     0.34708   0.35198   0.43587   0.00000  Uiso   1.00
H299   H     0.66353   0.40031   0.46683   0.00000  Uiso   1.00
H300   H     0.65604   0.39922   0.40167   0.00000  Uiso   1.00
H301   H     0.38460   0.27705   0.00583   0.00000  Uiso   1.00
H302   H     0.36885   0.25267   0.06119   0.00000  Uiso   1.00
H303   H     0.64292   0.20101   0.01826   0.00000  Uiso   1.00
H304   H     0.63044   0.25383   0.49064   0.00000  Uiso   1.00
H305   H     0.66416   0.21343   0.46104   0.00000  Uiso   1.00
H306   H     0.43884   0.34068   0.49360   0.00000  Uiso   1.00
H307   H     0.43656   0.33568   0.42956   0.00000  Uiso   1.00
H308   H     0.33925   0.38264   0.14810   0.00000  Uiso   1.00
H309   H     0.48374   0.40481   0.42431   0.00000  Uiso   1.00
H310   H     0.43005   0.41313   0.45597   0.00000  Uiso   1.00
H311   H     0.49306   0.41084   0.48916   0.00000  Uiso   1.00
H312   H     0.62863   0.34108   0.12101   0.00000  Uiso   1.00
N313   N     0.50000   0.25001   0.12935   0.00000  Uiso   1.00
N314   N     0.50000   0.24999   0.37066   0.00000  Uiso   1.00
O315   O     0.50000   0.18572   0.29072   0.00000  Uiso   1.00
O316   O     0.34477   0.23031   0.31160   0.00000  Uiso   1.00
O317   O     0.44093   0.02640   0.30965   0.00000  Uiso   1.00
O318   O     0.47027   0.47566   0.16280   0.00000  Uiso   1.00
O319   O     0.46730   0.11305   0.32693   0.00000  Uiso   1.00
O320   O     0.46793   0.38488   0.16156   0.00000  Uiso   1.00
O321   O     0.54308   0.11654   0.17797   0.00000  Uiso   1.00
O322   O     0.47613   0.38739   0.33284   0.00000  Uiso   1.00
O323   O     0.55594   0.02456   0.18790   0.00000  Uiso   1.00
O324   O     0.51415   0.47257   0.33752   0.00000  Uiso   1.00
O325   O     0.42662   0.20294   0.12218   0.00000  Uiso   1.00
O326   O     0.50000   0.31427   0.20929   0.00000  Uiso   1.00
O327   O     0.53174   0.32434   0.37891   0.00000  Uiso   1.00
O328   O     0.41395   0.21519   0.02089   0.00000  Uiso   1.00
O329   O     0.50834   0.32800   0.47215   0.00000  Uiso   1.00
O330   O     0.50000   0.18573   0.20928   0.00000  Uiso   1.00
O331   O     0.50000   0.31427   0.29072   0.00000  Uiso   1.00
O332   O     0.42495   0.24999   0.28132   0.00000  Uiso   1.00
O333   O     0.57505   0.25000   0.21868   0.00000  Uiso   1.00
O334   O     0.42495   0.25000   0.19989   0.00000  Uiso   1.00
O335   O     0.57505   0.25000   0.30012   0.00000  Uiso   1.00
O336   O     0.65646   0.28078   0.19096   0.00000  Uiso   1.00
C337   C     0.83450   0.16491   0.25025   0.00000  Uiso   1.00
C338   C     0.83987   0.28813   0.44833   0.00000  Uiso   1.00
C339   C     0.83085   0.24931   0.02726   0.00000  Uiso   1.00
C340   C     0.83032   0.24937   0.47286   0.00000  Uiso   1.00
C341   C     0.73491   0.25196   0.23786   0.00000  Uiso   1.00
C342   C     0.93194   0.25092   0.26227   0.00000  Uiso   1.00
C343   C     0.68040   0.25991   0.23228   0.00000  Uiso   1.00
C344   C     0.98712   0.24841   0.26891   0.00000  Uiso   1.00
C345   C     0.80627   0.04756   0.28124   0.00000  Uiso   1.00
C346   C     0.81579   0.45282   0.20552   0.00000  Uiso   1.00
C347   C     0.81525   0.09264   0.28694   0.00000  Uiso   1.00
C348   C     0.83023   0.33493   0.24943   0.00000  Uiso   1.00
C349   C     0.81728   0.40674   0.20444   0.00000  Uiso   1.00
C350   C     0.83666   0.11644   0.25106   0.00000  Uiso   1.00
C351   C     0.82484   0.38320   0.24841   0.00000  Uiso   1.00
C352   C     0.86059   0.09346   0.21657   0.00000  Uiso   1.00
C353   C     0.82520   0.40651   0.29206   0.00000  Uiso   1.00
C354   C     0.86292   0.04713   0.21928   0.00000  Uiso   1.00
C355   C     0.83650   0.45149   0.29325   0.00000  Uiso   1.00
C356   C     0.83331   0.02402   0.25028   0.00000  Uiso   1.00
C357   C     0.82937   0.47544   0.24964   0.00000  Uiso   1.00
C358   C     0.68524   0.31778   0.17818   0.00000  Uiso   1.00
C359   C     0.87148   0.26905   0.05801   0.00000  Uiso   1.00
C360   C     0.98336   0.35293   0.15565   0.00000  Uiso   1.00
C361   C     0.66762   0.25467   0.35214   0.00000  Uiso   1.00
C362   C     0.71334   0.25714   0.38993   0.00000  Uiso   1.00
C363   C     0.72327   0.03488   0.29126   0.00000  Uiso   1.00
C364   C     0.69103   0.03467   0.33240   0.00000  Uiso   1.00
C365   C     0.75146   0.48461   0.15694   0.00000  Uiso   1.00
C366   C     0.73981   0.01592   0.11469   0.00000  Uiso   1.00
C367   C     0.83418   0.10115   0.36883   0.00000  Uiso   1.00
C368   C     0.80424   0.09196   0.41079   0.00000  Uiso   1.00
C369   C     0.84036   0.38623   0.13214   0.00000  Uiso   1.00
C370   C     0.82035   0.21118   0.44458   0.00000  Uiso   1.00
C371   C     0.81927   0.36888   0.08255   0.00000  Uiso   1.00
C372   C     0.92977   0.11767   0.17857   0.00000  Uiso   1.00
C373   C     0.95969   0.13336   0.22692   0.00000  Uiso   1.00
C374   C     0.68176   0.14345   0.22155   0.00000  Uiso   1.00
C375   C     0.75722   0.37497   0.32287   0.00000  Uiso   1.00
C376   C     0.72253   0.41463   0.32088   0.00000  Uiso   1.00
C377   C     0.66909   0.40249   0.29715   0.00000  Uiso   1.00
C378   C     0.93353   0.00704   0.21416   0.00000  Uiso   1.00
C379   C     0.95527   0.47324   0.18316   0.00000  Uiso   1.00
C380   C     0.89860   0.46526   0.35585   0.00000  Uiso   1.00
C381   C     0.87139   0.26990   0.10860   0.00000  Uiso   1.00
C382   C     0.90985   0.48311   0.40724   0.00000  Uiso   1.00
C383   C     0.76128   0.15775   0.10988   0.00000  Uiso   1.00
C384   C     0.70711   0.13959   0.09418   0.00000  Uiso   1.00
C385   C     0.70196   0.11510   0.04585   0.00000  Uiso   1.00
C386   C     0.91824   0.32833   0.39194   0.00000  Uiso   1.00
C387   C     0.93274   0.36089   0.43376   0.00000  Uiso   1.00
C388   C     0.98661   0.37914   0.43443   0.00000  Uiso   1.00
C389   C     0.70834   0.24565   0.02319   0.00000  Uiso   1.00
C390   C     0.99183   0.22732   0.49660   0.00000  Uiso   1.00
C391   C     0.79370   0.34769   0.46294   0.00000  Uiso   1.00
C392   C     0.81995   0.21274   0.39367   0.00000  Uiso   1.00
C393   C     0.80064   0.39715   0.45792   0.00000  Uiso   1.00
C394   C     0.79542   0.22731   0.10066   0.00000  Uiso   1.00
C395   C     0.84688   0.28683   0.39879   0.00000  Uiso   1.00
C396   C     0.79076   0.23066   0.04922   0.00000  Uiso   1.00
Cu397  Cu    0.83333   0.24999   0.29822   0.00000  Uiso   1.00
Cu398  Cu    0.83333   0.25000   0.20179   0.00000  Uiso   1.00
H399   H     0.90291   0.28444   0.04295   0.00000  Uiso   1.00
H400   H     0.97040   0.23746   0.36883   0.00000  Uiso   1.00
H401   H     0.99099   0.28927   0.34293   0.00000  Uiso   1.00
H402   H     0.74434   0.27416   0.37429   0.00000  Uiso   1.00
H403   H     0.70459   0.27653   0.42119   0.00000  Uiso   1.00
H404   H     0.72358   0.22355   0.40213   0.00000  Uiso   1.00
H405   H     0.70881   0.00875   0.26505   0.00000  Uiso   1.00
H406   H     0.71798   0.06710   0.27277   0.00000  Uiso   1.00
H407   H     0.70305   0.06216   0.35770   0.00000  Uiso   1.00
H408   H     0.98404   0.03916   0.31751   0.00000  Uiso   1.00
H409   H     0.69460   0.00320   0.35245   0.00000  Uiso   1.00
H410   H     0.81106   0.18064   0.46152   0.00000  Uiso   1.00
H411   H     0.74024   0.00072   0.18960   0.00000  Uiso   1.00
H412   H     0.72863   0.45380   0.14900   0.00000  Uiso   1.00
H413   H     0.74925   0.00072   0.08090   0.00000  Uiso   1.00
H414   H     0.69895   0.02383   0.10978   0.00000  Uiso   1.00
H415   H     0.76256   0.04678   0.12203   0.00000  Uiso   1.00
H416   H     0.86172   0.12860   0.37876   0.00000  Uiso   1.00
H417   H     0.85733   0.07178   0.36437   0.00000  Uiso   1.00
H418   H     0.83040   0.09143   0.44534   0.00000  Uiso   1.00
H419   H     0.77564   0.11754   0.41298   0.00000  Uiso   1.00
H420   H     0.78460   0.05946   0.40575   0.00000  Uiso   1.00
H421   H     0.90205   0.28626   0.13135   0.00000  Uiso   1.00
H422   H     0.87182   0.36512   0.14767   0.00000  Uiso   1.00
H423   H     0.85536   0.42006   0.12726   0.00000  Uiso   1.00
H424   H     0.79079   0.39186   0.06482   0.00000  Uiso   1.00
H425   H     0.85066   0.36583   0.06038   0.00000  Uiso   1.00
H426   H     0.80055   0.33627   0.08567   0.00000  Uiso   1.00
H427   H     0.93782   0.14144   0.15014   0.00000  Uiso   1.00
H428   H     0.94352   0.08598   0.16685   0.00000  Uiso   1.00
H429   H     0.94247   0.16337   0.23916   0.00000  Uiso   1.00
H430   H     0.95819   0.10776   0.25513   0.00000  Uiso   1.00
H431   H     0.69962   0.11413   0.20823   0.00000  Uiso   1.00
H432   H     0.80654   0.18455   0.37248   0.00000  Uiso   1.00
H433   H     0.70288   0.15325   0.25716   0.00000  Uiso   1.00
H434   H     0.68448   0.17070   0.19548   0.00000  Uiso   1.00
H435   H     0.74768   0.35306   0.35214   0.00000  Uiso   1.00
H436   H     0.74847   0.35508   0.28929   0.00000  Uiso   1.00
H437   H     0.72166   0.42713   0.35816   0.00000  Uiso   1.00
H438   H     0.73695   0.44133   0.29919   0.00000  Uiso   1.00
H439   H     0.66946   0.39442   0.25837   0.00000  Uiso   1.00
H440   H     0.97717   0.43058   0.29944   0.00000  Uiso   1.00
H441   H     0.98747   0.37367   0.31528   0.00000  Uiso   1.00
H442   H     0.92647   0.49050   0.24824   0.00000  Uiso   1.00
H443   H     0.70988   0.30801   0.15099   0.00000  Uiso   1.00
H444   H     0.96246   0.03347   0.22358   0.00000  Uiso   1.00
H445   H     0.96219   0.48797   0.14812   0.00000  Uiso   1.00
H446   H     0.99147   0.46118   0.20243   0.00000  Uiso   1.00
H447   H     0.92848   0.44490   0.17629   0.00000  Uiso   1.00
H448   H     0.92400   0.48265   0.33323   0.00000  Uiso   1.00
H449   H     0.90717   0.42966   0.35684   0.00000  Uiso   1.00
H450   H     0.88335   0.46803   0.43041   0.00000  Uiso   1.00
H451   H     0.94932   0.47543   0.42258   0.00000  Uiso   1.00
H452   H     0.90587   0.01921   0.40734   0.00000  Uiso   1.00
H453   H     0.77733   0.13967   0.14279   0.00000  Uiso   1.00
H454   H     0.70919   0.33317   0.20989   0.00000  Uiso   1.00
H455   H     0.78648   0.15022   0.08209   0.00000  Uiso   1.00
H456   H     0.69633   0.11644   0.12206   0.00000  Uiso   1.00
H457   H     0.67952   0.16654   0.09137   0.00000  Uiso   1.00
H458   H     0.70887   0.13764   0.01605   0.00000  Uiso   1.00
H459   H     0.99634   0.10084   0.03758   0.00000  Uiso   1.00
H460   H     0.72942   0.08814   0.04747   0.00000  Uiso   1.00
H461   H     0.93362   0.34072   0.35944   0.00000  Uiso   1.00
H462   H     0.93664   0.29664   0.40210   0.00000  Uiso   1.00
H463   H     0.90613   0.38846   0.43077   0.00000  Uiso   1.00
H464   H     0.93099   0.34397   0.46880   0.00000  Uiso   1.00
H465   H     0.95668   0.36185   0.18121   0.00000  Uiso   1.00
H466   H     0.68042   0.35198   0.43587   0.00000  Uiso   1.00
H467   H     0.99687   0.40031   0.46683   0.00000  Uiso   1.00
H468   H     0.98937   0.39922   0.40167   0.00000  Uiso   1.00
H469   H     0.71793   0.27705   0.00583   0.00000  Uiso   1.00
H470   H     0.70219   0.25267   0.06119   0.00000  Uiso   1.00
H471   H     0.97625   0.20101   0.01826   0.00000  Uiso   1.00
H472   H     0.96377   0.25383   0.49064   0.00000  Uiso   1.00
H473   H     0.99749   0.21343   0.46104   0.00000  Uiso   1.00
H474   H     0.77217   0.34068   0.49360   0.00000  Uiso   1.00
H475   H     0.76990   0.33568   0.42956   0.00000  Uiso   1.00
H476   H     0.67258   0.38264   0.14810   0.00000  Uiso   1.00
H477   H     0.81708   0.40481   0.42431   0.00000  Uiso   1.00
H478   H     0.76338   0.41313   0.45597   0.00000  Uiso   1.00
H479   H     0.82640   0.41084   0.48916   0.00000  Uiso   1.00
H480   H     0.96196   0.34108   0.12101   0.00000  Uiso   1.00
N481   N     0.83333   0.25001   0.12935   0.00000  Uiso   1.00
N482   N     0.83333   0.24999   0.37066   0.00000  Uiso   1.00
O483   O     0.83334   0.18572   0.29072   0.00000  Uiso   1.00
O484   O     0.67810   0.23031   0.31160   0.00000  Uiso   1.00
O485   O     0.77427   0.02640   0.30965   0.00000  Uiso   1.00
O486   O     0.80361   0.47566   0.16280   0.00000  Uiso   1.00
O487   O     0.80063   0.11305   0.32693   0.00000  Uiso   1.00
O488   O     0.80127   0.38488   0.16156   0.00000  Uiso   1.00
O489   O     0.87642   0.11654   0.17797   0.00000  Uiso   1.00
O490   O     0.80946   0.38739   0.33284   0.00000  Uiso   1.00
O491   O     0.88927   0.02456   0.18790   0.00000  Uiso   1.00
O492   O     0.84748   0.47257   0.33752   0.00000  Uiso   1.00
O493   O     0.75995   0.20294   0.12218   0.00000  Uiso   1.00
O494   O     0.83333   0.31427   0.20929   0.00000  Uiso   1.00
O495   O     0.86507   0.32434   0.37891   0.00000  Uiso   1.00
O496   O     0.74729   0.21519   0.02089   0.00000  Uiso   1.00
O497   O     0.84167   0.32800   0.47215   0.00000  Uiso   1.00
O498   O     0.83334   0.18573   0.20928   0.00000  Uiso   1.00
O499   O     0.83333   0.31427   0.29072   0.00000  Uiso   1.00
O500   O     0.75828   0.24999   0.28132   0.00000  Uiso   1.00
O501   O     0.90839   0.25000   0.21868   0.00000  Uiso   1.00
O502   O     0.75828   0.25000   0.19989   0.00000  Uiso   1.00
O503   O     0.90839   0.25000   0.30012   0.00000  Uiso   1.00
O504   O     0.98979   0.28078   0.19096   0.00000  Uiso   1.00
C505   C     0.16784   0.66491   0.25025   0.00000  Uiso   1.00
C506   C     0.17321   0.78813   0.44833   0.00000  Uiso   1.00
C507   C     0.16418   0.74931   0.02726   0.00000  Uiso   1.00
C508   C     0.16365   0.74937   0.47286   0.00000  Uiso   1.00
C509   C     0.06824   0.75196   0.23786   0.00000  Uiso   1.00
C510   C     0.26528   0.75092   0.26227   0.00000  Uiso   1.00
C511   C     0.01373   0.75991   0.23228   0.00000  Uiso   1.00
C512   C     0.32045   0.74841   0.26891   0.00000  Uiso   1.00
C513   C     0.13960   0.54756   0.28124   0.00000  Uiso   1.00
C514   C     0.14913   0.95282   0.20552   0.00000  Uiso   1.00
C515   C     0.14858   0.59264   0.28694   0.00000  Uiso   1.00
C516   C     0.16356   0.83493   0.24943   0.00000  Uiso   1.00
C517   C     0.15062   0.90674   0.20444   0.00000  Uiso   1.00
C518   C     0.16999   0.61644   0.25106   0.00000  Uiso   1.00
C519   C     0.15817   0.88320   0.24841   0.00000  Uiso   1.00
C520   C     0.19392   0.59346   0.21657   0.00000  Uiso   1.00
C521   C     0.15853   0.90651   0.29206   0.00000  Uiso   1.00
C522   C     0.19625   0.54713   0.21928   0.00000  Uiso   1.00
C523   C     0.16983   0.95149   0.29325   0.00000  Uiso   1.00
C524   C     0.16664   0.52402   0.25028   0.00000  Uiso   1.00
C525   C     0.16270   0.97544   0.24964   0.00000  Uiso   1.00
C526   C     0.01858   0.81778   0.17818   0.00000  Uiso   1.00
C527   C     0.20482   0.76905   0.05801   0.00000  Uiso   1.00
C528   C     0.31670   0.85293   0.15565   0.00000  Uiso   1.00
C529   C     0.00096   0.75467   0.35214   0.00000  Uiso   1.00
C530   C     0.04667   0.75714   0.38993   0.00000  Uiso   1.00
C531   C     0.05660   0.53488   0.29126   0.00000  Uiso   1.00
C532   C     0.02437   0.53467   0.33240   0.00000  Uiso   1.00
C533   C     0.08479   0.98461   0.15694   0.00000  Uiso   1.00
C534   C     0.07314   0.51592   0.11469   0.00000  Uiso   1.00
C535   C     0.16751   0.60115   0.36883   0.00000  Uiso   1.00
C536   C     0.13757   0.59196   0.41079   0.00000  Uiso   1.00
C537   C     0.17369   0.88623   0.13214   0.00000  Uiso   1.00
C538   C     0.15368   0.71118   0.44458   0.00000  Uiso   1.00
C539   C     0.15260   0.86888   0.08255   0.00000  Uiso   1.00
C540   C     0.26310   0.61767   0.17857   0.00000  Uiso   1.00
C541   C     0.29302   0.63336   0.22692   0.00000  Uiso   1.00
C542   C     0.01509   0.64345   0.22155   0.00000  Uiso   1.00
C543   C     0.09055   0.87497   0.32287   0.00000  Uiso   1.00
C544   C     0.05587   0.91463   0.32088   0.00000  Uiso   1.00
C545   C     0.00242   0.90249   0.29715   0.00000  Uiso   1.00
C546   C     0.26687   0.50704   0.21416   0.00000  Uiso   1.00
C547   C     0.28860   0.97324   0.18316   0.00000  Uiso   1.00
C548   C     0.23194   0.96526   0.35585   0.00000  Uiso   1.00
C549   C     0.20473   0.76990   0.10860   0.00000  Uiso   1.00
C550   C     0.24319   0.98311   0.40724   0.00000  Uiso   1.00
C551   C     0.09461   0.65775   0.10988   0.00000  Uiso   1.00
C552   C     0.04045   0.63959   0.09418   0.00000  Uiso   1.00
C553   C     0.03529   0.61510   0.04585   0.00000  Uiso   1.00
C554   C     0.25158   0.82833   0.39194   0.00000  Uiso   1.00
C555   C     0.26608   0.86089   0.43376   0.00000  Uiso   1.00
C556   C     0.31995   0.87914   0.43443   0.00000  Uiso   1.00
C557   C     0.04167   0.74565   0.02319   0.00000  Uiso   1.00
C558   C     0.32516   0.72732   0.49660   0.00000  Uiso   1.00
C559   C     0.12703   0.84769   0.46294   0.00000  Uiso   1.00
C560   C     0.15328   0.71274   0.39367   0.00000  Uiso   1.00
C561   C     0.13397   0.89715   0.45792   0.00000  Uiso   1.00
C562   C     0.12875   0.72731   0.10066   0.00000  Uiso   1.00
C563   C     0.18021   0.78683   0.39879   0.00000  Uiso   1.00
C564   C     0.12409   0.73066   0.04922   0.00000  Uiso   1.00
Cu565  Cu    0.16667   0.74999   0.29822   0.00000  Uiso   1.00
Cu566  Cu    0.16667   0.75000   0.20179   0.00000  Uiso   1.00
H567   H     0.23625   0.78444   0.04295   0.00000  Uiso   1.00
H568   H     0.30374   0.73746   0.36883   0.00000  Uiso   1.00
H569   H     0.32433   0.78927   0.34293   0.00000  Uiso   1.00
H570   H     0.07768   0.77416   0.37429   0.00000  Uiso   1.00
H571   H     0.03792   0.77653   0.42119   0.00000  Uiso   1.00
H572   H     0.05691   0.72355   0.40213   0.00000  Uiso   1.00
H573   H     0.04214   0.50875   0.26505   0.00000  Uiso   1.00
H574   H     0.05132   0.56710   0.27277   0.00000  Uiso   1.00
H575   H     0.03639   0.56216   0.35770   0.00000  Uiso   1.00
H576   H     0.31737   0.53916   0.31751   0.00000  Uiso   1.00
H577   H     0.02794   0.50320   0.35245   0.00000  Uiso   1.00
H578   H     0.14439   0.68064   0.46152   0.00000  Uiso   1.00
H579   H     0.07357   0.50072   0.18960   0.00000  Uiso   1.00
H580   H     0.06196   0.95380   0.14900   0.00000  Uiso   1.00
H581   H     0.08259   0.50072   0.08090   0.00000  Uiso   1.00
H582   H     0.03229   0.52383   0.10978   0.00000  Uiso   1.00
H583   H     0.09590   0.54678   0.12203   0.00000  Uiso   1.00
H584   H     0.19506   0.62860   0.37876   0.00000  Uiso   1.00
H585   H     0.19066   0.57178   0.36437   0.00000  Uiso   1.00
H586   H     0.16374   0.59143   0.44534   0.00000  Uiso   1.00
H587   H     0.10897   0.61754   0.41298   0.00000  Uiso   1.00
H588   H     0.11794   0.55946   0.40575   0.00000  Uiso   1.00
H589   H     0.23539   0.78626   0.13135   0.00000  Uiso   1.00
H590   H     0.20515   0.86512   0.14767   0.00000  Uiso   1.00
H591   H     0.18869   0.92006   0.12726   0.00000  Uiso   1.00
H592   H     0.12413   0.89186   0.06482   0.00000  Uiso   1.00
H593   H     0.18399   0.86583   0.06038   0.00000  Uiso   1.00
H594   H     0.13388   0.83627   0.08567   0.00000  Uiso   1.00
H595   H     0.27115   0.64144   0.15014   0.00000  Uiso   1.00
H596   H     0.27685   0.58598   0.16685   0.00000  Uiso   1.00
H597   H     0.27580   0.66337   0.23916   0.00000  Uiso   1.00
H598   H     0.29152   0.60776   0.25513   0.00000  Uiso   1.00
H599   H     0.03296   0.61413   0.20823   0.00000  Uiso   1.00
H600   H     0.13988   0.68455   0.37248   0.00000  Uiso   1.00
H601   H     0.03621   0.65325   0.25716   0.00000  Uiso   1.00
H602   H     0.01781   0.67070   0.19548   0.00000  Uiso   1.00
H603   H     0.08101   0.85306   0.35214   0.00000  Uiso   1.00
H604   H     0.08180   0.85508   0.28929   0.00000  Uiso   1.00
H605   H     0.05500   0.92713   0.35816   0.00000  Uiso   1.00
H606   H     0.07028   0.94133   0.29919   0.00000  Uiso   1.00
H607   H     0.00280   0.89442   0.25837   0.00000  Uiso   1.00
H608   H     0.31050   0.93058   0.29944   0.00000  Uiso   1.00
H609   H     0.32080   0.87367   0.31528   0.00000  Uiso   1.00
H610   H     0.25980   0.99050   0.24824   0.00000  Uiso   1.00
H611   H     0.04321   0.80801   0.15099   0.00000  Uiso   1.00
H612   H     0.29579   0.53347   0.22358   0.00000  Uiso   1.00
H613   H     0.29552   0.98797   0.14812   0.00000  Uiso   1.00
H614   H     0.32481   0.96118   0.20243   0.00000  Uiso   1.00
H615   H     0.26181   0.94490   0.17629   0.00000  Uiso   1.00
H616   H     0.25734   0.98265   0.33323   0.00000  Uiso   1.00
H617   H     0.24051   0.92966   0.35684   0.00000  Uiso   1.00
H618   H     0.21668   0.96803   0.43041   0.00000  Uiso   1.00
H619   H     0.28266   0.97543   0.42258   0.00000  Uiso   1.00
H620   H     0.23920   0.51921   0.40734   0.00000  Uiso   1.00
H621   H     0.11067   0.63967   0.14279   0.00000  Uiso   1.00
H622   H     0.04252   0.83317   0.20989   0.00000  Uiso   1.00
H623   H     0.11981   0.65022   0.08209   0.00000  Uiso   1.00
H624   H     0.02966   0.61644   0.12206   0.00000  Uiso   1.00
H625   H     0.01285   0.66654   0.09137   0.00000  Uiso   1.00
H626   H     0.04221   0.63764   0.01605   0.00000  Uiso   1.00
H627   H     0.32967   0.60084   0.03758   0.00000  Uiso   1.00
H628   H     0.06275   0.58814   0.04747   0.00000  Uiso   1.00
H629   H     0.26695   0.84072   0.35944   0.00000  Uiso   1.00
H630   H     0.26997   0.79664   0.40210   0.00000  Uiso   1.00
H631   H     0.23947   0.88846   0.43077   0.00000  Uiso   1.00
H632   H     0.26432   0.84397   0.46880   0.00000  Uiso   1.00
H633   H     0.29001   0.86185   0.18121   0.00000  Uiso   1.00
H634   H     0.01375   0.85198   0.43587   0.00000  Uiso   1.00
H635   H     0.33020   0.90031   0.46683   0.00000  Uiso   1.00
H636   H     0.32270   0.89922   0.40167   0.00000  Uiso   1.00
H637   H     0.05127   0.77705   0.00583   0.00000  Uiso   1.00
H638   H     0.03552   0.75267   0.06119   0.00000  Uiso   1.00
H639   H     0.30959   0.70101   0.01826   0.00000  Uiso   1.00
H640   H     0.29711   0.75383   0.49064   0.00000  Uiso   1.00
H641   H     0.33083   0.71343   0.46104   0.00000  Uiso   1.00
H642   H     0.10550   0.84068   0.49360   0.00000  Uiso   1.00
H643   H     0.10323   0.83568   0.42956   0.00000  Uiso   1.00
H644   H     0.00591   0.88264   0.14810   0.00000  Uiso   1.00
H645   H     0.15041   0.90481   0.42431   0.00000  Uiso   1.00
H646   H     0.09672   0.91313   0.45597   0.00000  Uiso   1.00
H647   H     0.15973   0.91084   0.48916   0.00000  Uiso   1.00
H648   H     0.29529   0.84108   0.12101   0.00000  Uiso   1.00
N649   N     0.16667   0.75001   0.12935   0.00000  Uiso   1.00
N650   N     0.16667   0.74999   0.37066   0.00000  Uiso   1.00
O651   O     0.16667   0.68572   0.29072   0.00000  Uiso   1.00
O652   O     0.01144   0.73031   0.31160   0.00000  Uiso   1.00
O653   O     0.10760   0.52640   0.30965   0.00000  Uiso   1.00
O654   O     0.13694   0.97566   0.16280   0.00000  Uiso   1.00
O655   O     0.13397   0.61305   0.32693   0.00000  Uiso   1.00
O656   O     0.13460   0.88488   0.16156   0.00000  Uiso   1.00
O657   O     0.20975   0.61654   0.17797   0.00000  Uiso   1.00
O658   O     0.14279   0.88739   0.33284   0.00000  Uiso   1.00
O659   O     0.22261   0.52456   0.18790   0.00000  Uiso   1.00
O660   O     0.18081   0.97257   0.33752   0.00000  Uiso   1.00
O661   O     0.09328   0.70294   0.12218   0.00000  Uiso   1.00
O662   O     0.16666   0.81427   0.20929   0.00000  Uiso   1.00
O663   O     0.19840   0.82434   0.37891   0.00000  Uiso   1.00
O664   O     0.08062   0.71519   0.02089   0.00000  Uiso   1.00
O665   O     0.17501   0.82800   0.47215   0.00000  Uiso   1.00
O666   O     0.16667   0.68573   0.20928   0.00000  Uiso   1.00
O667   O     0.16666   0.81427   0.29072   0.00000  Uiso   1.00
O668   O     0.09161   0.74999   0.28132   0.00000  Uiso   1.00
O669   O     0.24172   0.75000   0.21868   0.00000  Uiso   1.00
O670   O     0.09161   0.75000   0.19989   0.00000  Uiso   1.00
O671   O     0.24172   0.75000   0.30012   0.00000  Uiso   1.00
O672   O     0.32313   0.78078   0.19096   0.00000  Uiso   1.00
C673   C     0.50117   0.66491   0.25025   0.00000  Uiso   1.00
C674   C     0.50654   0.78813   0.44833   0.00000  Uiso   1.00
C675   C     0.49751   0.74931   0.02726   0.00000  Uiso   1.00
C676   C     0.49699   0.74937   0.47286   0.00000  Uiso   1.00
C677   C     0.40158   0.75196   0.23786   0.00000  Uiso   1.00
C678   C     0.59861   0.75092   0.26227   0.00000  Uiso   1.00
C679   C     0.34707   0.75991   0.23228   0.00000  Uiso   1.00
C680   C     0.65379   0.74841   0.26891   0.00000  Uiso   1.00
C681   C     0.47294   0.54756   0.28124   0.00000  Uiso   1.00
C682   C     0.48246   0.95282   0.20552   0.00000  Uiso   1.00
C683   C     0.48191   0.59264   0.28694   0.00000  Uiso   1.00
C684   C     0.49690   0.83493   0.24943   0.00000  Uiso   1.00
C685   C     0.48395   0.90674   0.20444   0.00000  Uiso   1.00
C686   C     0.50332   0.61644   0.25106   0.00000  Uiso   1.00
C687   C     0.49150   0.88320   0.24841   0.00000  Uiso   1.00
C688   C     0.52726   0.59346   0.21657   0.00000  Uiso   1.00
C689   C     0.49187   0.90651   0.29206   0.00000  Uiso   1.00
C690   C     0.52959   0.54713   0.21928   0.00000  Uiso   1.00
C691   C     0.50316   0.95149   0.29325   0.00000  Uiso   1.00
C692   C     0.49998   0.52402   0.25028   0.00000  Uiso   1.00
C693   C     0.49603   0.97544   0.24964   0.00000  Uiso   1.00
C694   C     0.35191   0.81778   0.17818   0.00000  Uiso   1.00
C695   C     0.53815   0.76905   0.05801   0.00000  Uiso   1.00
C696   C     0.65003   0.85293   0.15565   0.00000  Uiso   1.00
C697   C     0.33429   0.75467   0.35214   0.00000  Uiso   1.00
C698   C     0.38001   0.75714   0.38993   0.00000  Uiso   1.00
C699   C     0.38994   0.53488   0.29126   0.00000  Uiso   1.00
C700   C     0.35770   0.53467   0.33240   0.00000  Uiso   1.00
C701   C     0.41812   0.98461   0.15694   0.00000  Uiso   1.00
C702   C     0.40647   0.51592   0.11469   0.00000  Uiso   1.00
C703   C     0.50085   0.60115   0.36883   0.00000  Uiso   1.00
C704   C     0.47090   0.59196   0.41079   0.00000  Uiso   1.00
C705   C     0.50703   0.88623   0.13214   0.00000  Uiso   1.00
C706   C     0.48701   0.71118   0.44458   0.00000  Uiso   1.00
C707   C     0.48594   0.86888   0.08255   0.00000  Uiso   1.00
C708   C     0.59643   0.61767   0.17857   0.00000  Uiso   1.00
C709   C     0.62636   0.63336   0.22692   0.00000  Uiso   1.00
C710   C     0.34843   0.64345   0.22155   0.00000  Uiso   1.00
C711   C     0.42389   0.87497   0.32287   0.00000  Uiso   1.00
C712   C     0.38920   0.91463   0.32088   0.00000  Uiso   1.00
C713   C     0.33575   0.90249   0.29715   0.00000  Uiso   1.00
C714   C     0.60020   0.50704   0.21416   0.00000  Uiso   1.00
C715   C     0.62193   0.97324   0.18316   0.00000  Uiso   1.00
C716   C     0.56527   0.96526   0.35585   0.00000  Uiso   1.00
C717   C     0.53806   0.76990   0.10860   0.00000  Uiso   1.00
C718   C     0.57652   0.98311   0.40724   0.00000  Uiso   1.00
C719   C     0.42795   0.65775   0.10988   0.00000  Uiso   1.00
C720   C     0.37378   0.63959   0.09418   0.00000  Uiso   1.00
C721   C     0.36863   0.61510   0.04585   0.00000  Uiso   1.00
C722   C     0.58491   0.82833   0.39194   0.00000  Uiso   1.00
C723   C     0.59941   0.86089   0.43376   0.00000  Uiso   1.00
C724   C     0.65328   0.87914   0.43443   0.00000  Uiso   1.00
C725   C     0.37500   0.74565   0.02319   0.00000  Uiso   1.00
C726   C     0.65850   0.72732   0.49660   0.00000  Uiso   1.00
C727   C     0.46036   0.84769   0.46294   0.00000  Uiso   1.00
C728   C     0.48661   0.71274   0.39367   0.00000  Uiso   1.00
C729   C     0.46730   0.89715   0.45792   0.00000  Uiso   1.00
C730   C     0.46209   0.72731   0.10066   0.00000  Uiso   1.00
C731   C     0.51354   0.78683   0.39879   0.00000  Uiso   1.00
C732   C     0.45742   0.73066   0.04922   0.00000  Uiso   1.00
Cu733  Cu    0.50000   0.74999   0.29822   0.00000  Uiso   1.00
Cu734  Cu    0.50000   0.75000   0.20179   0.00000  Uiso   1.00
H735   H     0.56958   0.78444   0.04295   0.00000  Uiso   1.00
H736   H     0.63707   0.73746   0.36883   0.00000  Uiso   1.00
H737   H     0.65766   0.78927   0.34293   0.00000  Uiso   1.00
H738   H     0.41101   0.77416   0.37429   0.00000  Uiso   1.00
H739   H     0.37126   0.77653   0.42119   0.00000  Uiso   1.00
H740   H     0.39025   0.72355   0.40213   0.00000  Uiso   1.00
H741   H     0.37547   0.50875   0.26505   0.00000  Uiso   1.00
H742   H     0.38465   0.56710   0.27277   0.00000  Uiso   1.00
H743   H     0.36972   0.56216   0.35770   0.00000  Uiso   1.00
H744   H     0.65070   0.53916   0.31751   0.00000  Uiso   1.00
H745   H     0.36127   0.50320   0.35245   0.00000  Uiso   1.00
H746   H     0.47772   0.68064   0.46152   0.00000  Uiso   1.00
H747   H     0.40690   0.50072   0.18960   0.00000  Uiso   1.00
H748   H     0.39529   0.95380   0.14900   0.00000  Uiso   1.00
H749   H     0.41592   0.50072   0.08090   0.00000  Uiso   1.00
H750   H     0.36562   0.52383   0.10978   0.00000  Uiso   1.00
H751   H     0.42923   0.54678   0.12203   0.00000  Uiso   1.00
H752   H     0.52839   0.62860   0.37876   0.00000  Uiso   1.00
H753   H     0.52400   0.57178   0.36437   0.00000  Uiso   1.00
H754   H     0.49707   0.59143   0.44534   0.00000  Uiso   1.00
H755   H     0.44230   0.61754   0.41298   0.00000  Uiso   1.00
H756   H     0.45127   0.55946   0.40575   0.00000  Uiso   1.00
H757   H     0.56872   0.78626   0.13135   0.00000  Uiso   1.00
H758   H     0.53849   0.86512   0.14767   0.00000  Uiso   1.00
H759   H     0.52202   0.92006   0.12726   0.00000  Uiso   1.00
H760   H     0.45746   0.89186   0.06482   0.00000  Uiso   1.00
H761   H     0.51733   0.86583   0.06038   0.00000  Uiso   1.00
H762   H     0.46721   0.83627   0.08567   0.00000  Uiso   1.00
H763   H     0.60449   0.64144   0.15014   0.00000  Uiso   1.00
H764   H     0.61019   0.58598   0.16685   0.00000  Uiso   1.00
H765   H     0.60913   0.66337   0.23916   0.00000  Uiso   1.00
H766   H     0.62486   0.60776   0.25513   0.00000  Uiso   1.00
H767   H     0.36629   0.61413   0.20823   0.00000  Uiso   1.00
H768   H     0.47321   0.68455   0.37248   0.00000  Uiso   1.00
H769   H     0.36954   0.65325   0.25716   0.00000  Uiso   1.00
H770   H     0.35114   0.67070   0.19548   0.00000  Uiso   1.00
H771   H     0.41435   0.85306   0.35214   0.00000  Uiso   1.00
H772   H     0.41513   0.85508   0.28929   0.00000  Uiso   1.00
H773   H     0.38833   0.92713   0.35816   0.00000  Uiso   1.00
H774   H     0.40362   0.94133   0.29919   0.00000  Uiso   1.00
H775   H     0.33613   0.89442   0.25837   0.00000  Uiso   1.00
H776   H     0.64384   0.93058   0.29944   0.00000  Uiso   1.00
H777   H     0.65413   0.87367   0.31528   0.00000  Uiso   1.00
H778   H     0.59313   0.99050   0.24824   0.00000  Uiso   1.00
H779   H     0.37655   0.80801   0.15099   0.00000  Uiso   1.00
H780   H     0.62912   0.53347   0.22358   0.00000  Uiso   1.00
H781   H     0.62885   0.98797   0.14812   0.00000  Uiso   1.00
H782   H     0.65814   0.96118   0.20243   0.00000  Uiso   1.00
H783   H     0.59514   0.94490   0.17629   0.00000  Uiso   1.00
H784   H     0.59067   0.98265   0.33323   0.00000  Uiso   1.00
H785   H     0.57384   0.92966   0.35684   0.00000  Uiso   1.00
H786   H     0.55002   0.96803   0.43041   0.00000  Uiso   1.00
H787   H     0.61599   0.97543   0.42258   0.00000  Uiso   1.00
H788   H     0.57253   0.51921   0.40734   0.00000  Uiso   1.00
H789   H     0.44400   0.63967   0.14279   0.00000  Uiso   1.00
H790   H     0.37585   0.83317   0.20989   0.00000  Uiso   1.00
H791   H     0.45315   0.65022   0.08209   0.00000  Uiso   1.00
H792   H     0.36300   0.61644   0.12206   0.00000  Uiso   1.00
H793   H     0.34618   0.66654   0.09137   0.00000  Uiso   1.00
H794   H     0.37554   0.63764   0.01605   0.00000  Uiso   1.00
H795   H     0.66301   0.60084   0.03758   0.00000  Uiso   1.00
H796   H     0.39609   0.58814   0.04747   0.00000  Uiso   1.00
H797   H     0.60028   0.84072   0.35944   0.00000  Uiso   1.00
H798   H     0.60330   0.79664   0.40210   0.00000  Uiso   1.00
H799   H     0.57280   0.88846   0.43077   0.00000  Uiso   1.00
H800   H     0.59765   0.84397   0.46880   0.00000  Uiso   1.00
H801   H     0.62334   0.86185   0.18121   0.00000  Uiso   1.00
H802   H     0.34708   0.85198   0.43587   0.00000  Uiso   1.00
H803   H     0.66353   0.90031   0.46683   0.00000  Uiso   1.00
H804   H     0.65604   0.89922   0.40167   0.00000  Uiso   1.00
H805   H     0.38460   0.77705   0.00583   0.00000  Uiso   1.00
H806   H     0.36885   0.75267   0.06119   0.00000  Uiso   1.00
H807   H     0.64292   0.70101   0.01826   0.00000  Uiso   1.00
H808   H     0.63044   0.75383   0.49064   0.00000  Uiso   1.00
H809   H     0.66416   0.71343   0.46104   0.00000  Uiso   1.00
H810   H     0.43884   0.84068   0.49360   0.00000  Uiso   1.00
H811   H     0.43656   0.83568   0.42956   0.00000  Uiso   1.00
H812   H     0.33925   0.88264   0.14810   0.00000  Uiso   1.00
H813   H     0.48374   0.90481   0.42431   0.00000  Uiso   1.00
H814   H     0.43005   0.91313   0.45597   0.00000  Uiso   1.00
H815   H     0.49306   0.91084   0.48916   0.00000  Uiso   1.00
H816   H     0.62863   0.84108   0.12101   0.00000  Uiso   1.00
N817   N     0.50000   0.75001   0.12935   0.00000  Uiso   1.00
N818   N     0.50000   0.74999   0.37066   0.00000  Uiso   1.00
O819   O     0.50000   0.68572   0.29072   0.00000  Uiso   1.00
O820   O     0.34477   0.73031   0.31160   0.00000  Uiso   1.00
O821   O     0.44093   0.52640   0.30965   0.00000  Uiso   1.00
O822   O     0.47027   0.97566   0.16280   0.00000  Uiso   1.00
O823   O     0.46730   0.61305   0.32693   0.00000  Uiso   1.00
O824   O     0.46793   0.88488   0.16156   0.00000  Uiso   1.00
O825   O     0.54308   0.61654   0.17797   0.00000  Uiso   1.00
O826   O     0.47613   0.88739   0.33284   0.00000  Uiso   1.00
O827   O     0.55594   0.52456   0.18790   0.00000  Uiso   1.00
O828   O     0.51415   0.97257   0.33752   0.00000  Uiso   1.00
O829   O     0.42662   0.70294   0.12218   0.00000  Uiso   1.00
O830   O     0.50000   0.81427   0.20929   0.00000  Uiso   1.00
O831   O     0.53174   0.82434   0.37891   0.00000  Uiso   1.00
O832   O     0.41395   0.71519   0.02089   0.00000  Uiso   1.00
O833   O     0.50834   0.82800   0.47215   0.00000  Uiso   1.00
O834   O     0.50000   0.68573   0.20928   0.00000  Uiso   1.00
O835   O     0.50000   0.81427   0.29072   0.00000  Uiso   1.00
O836   O     0.42495   0.74999   0.28132   0.00000  Uiso   1.00
O837   O     0.57505   0.75000   0.21868   0.00000  Uiso   1.00
O838   O     0.42495   0.75000   0.19989   0.00000  Uiso   1.00
O839   O     0.57505   0.75000   0.30012   0.00000  Uiso   1.00
O840   O     0.65646   0.78078   0.19096   0.00000  Uiso   1.00
C841   C     0.83450   0.66491   0.25025   0.00000  Uiso   1.00
C842   C     0.83987   0.78813   0.44833   0.00000  Uiso   1.00
C843   C     0.83085   0.74931   0.02726   0.00000  Uiso   1.00
C844   C     0.83032   0.74937   0.47286   0.00000  Uiso   1.00
C845   C     0.73491   0.75196   0.23786   0.00000  Uiso   1.00
C846   C     0.93194   0.75092   0.26227   0.00000  Uiso   1.00
C847   C     0.68040   0.75991   0.23228   0.00000  Uiso   1.00
C848   C     0.98712   0.74841   0.26891   0.00000  Uiso   1.00
C849   C     0.80627   0.54756   0.28124   0.00000  Uiso   1.00
C850   C     0.81579   0.95282   0.20552   0.00000  Uiso   1.00
C851   C     0.81525   0.59264   0.28694   0.00000  Uiso   1.00
C852   C     0.83023   0.83493   0.24943   0.00000  Uiso   1.00
C853   C     0.81728   0.90674   0.20444   0.00000  Uiso   1.00
C854   C     0.83666   0.61644   0.25106   0.00000  Uiso   1.00
C855   C     0.82484   0.88320   0.24841   0.00000  Uiso   1.00
C856   C     0.86059   0.59346   0.21657   0.00000  Uiso   1.00
C857   C     0.82520   0.90651   0.29206   0.00000  Uiso   1.00
C858   C     0.86292   0.54713   0.21928   0.00000  Uiso   1.00
C859   C     0.83650   0.95149   0.29325   0.00000  Uiso   1.00
C860   C     0.83331   0.52402   0.25028   0.00000  Uiso   1.00
C861   C     0.82937   0.97544   0.24964   0.00000  Uiso   1.00
C862   C     0.68524   0.81778   0.17818   0.00000  Uiso   1.00
C863   C     0.87148   0.76905   0.05801   0.00000  Uiso   1.00
C864   C     0.98336   0.85293   0.15565   0.00000  Uiso   1.00
C865   C     0.66762   0.75467   0.35214   0.00000  Uiso   1.00
C866   C     0.71334   0.75714   0.38993   0.00000  Uiso   1.00
C867   C     0.72327   0.53488   0.29126   0.00000  Uiso   1.00
C868   C     0.69103   0.53467   0.33240   0.00000  Uiso   1.00
C869   C     0.75146   0.98461   0.15694   0.00000  Uiso   1.00
C870   C     0.73981   0.51592   0.11469   0.00000  Uiso   1.00
C871   C     0.83418   0.60115   0.36883   0.00000  Uiso   1.00
C872   C     0.80424   0.59196   0.41079   0.00000  Uiso   1.00
C873   C     0.84036   0.88623   0.13214   0.00000  Uiso   1.00
C874   C     0.82035   0.71118   0.44458   0.00000  Uiso   1.00
C875   C     0.81927   0.86888   0.08255   0.00000  Uiso   1.00
C876   C     0.92977   0.61767   0.17857   0.00000  Uiso   1.00
C877   C     0.95969   0.63336   0.22692   0.00000  Uiso   1.00
C878   C     0.68176   0.64345   0.22155   0.00000  Uiso   1.00
C879   C     0.75722   0.87497   0.32287   0.00000  Uiso   1.00
C880   C     0.72253   0.91463   0.32088   0.00000  Uiso   1.00
C881   C     0.66909   0.90249   0.29715   0.00000  Uiso   1.00
C882   C     0.93353   0.50704   0.21416   0.00000  Uiso   1.00
C883   C     0.95527   0.97324   0.18316   0.00000  Uiso   1.00
C884   C     0.89860   0.96526   0.35585   0.00000  Uiso   1.00
C885   C     0.87139   0.76990   0.10860   0.00000  Uiso   1.00
C886   C     0.90985   0.98311   0.40724   0.00000  Uiso   1.00
C887   C     0.76128   0.65775   0.10988   0.00000  Uiso   1.00
C888   C     0.70711   0.63959   0.09418   0.00000  Uiso   1.00
C889   C     0.70196   0.61510   0.04585   0.00000  Uiso   1.00
C890   C     0.91824   0.82833   0.39194   0.00000  Uiso   1.00
C891   C     0.93274   0.86089   0.43376   0.00000  Uiso   1.00
C892   C     0.98661   0.87914   0.43443   0.00000  Uiso   1.00
C893   C     0.70834   0.74565   0.02319   0.00000  Uiso   1.00
C894   C     0.99183   0.72732   0.49660   0.00000  Uiso   1.00
C895   C     0.79370   0.84769   0.46294   0.00000  Uiso   1.00
C896   C     0.81995   0.71274   0.39367   0.00000  Uiso   1.00
C897   C     0.80064   0.89715   0.45792   0.00000  Uiso   1.00
C898   C     0.79542   0.72731   0.10066   0.00000  Uiso   1.00
C899   C     0.84688   0.78683   0.39879   0.00000  Uiso   1.00
C900   C     0.79076   0.73066   0.04922   0.00000  Uiso   1.00
Cu901  Cu    0.83333   0.74999   0.29822   0.00000  Uiso   1.00
Cu902  Cu    0.83333   0.75000   0.20179   0.00000  Uiso   1.00
H903   H     0.90291   0.78444   0.04295   0.00000  Uiso   1.00
H904   H     0.97040   0.73746   0.36883   0.00000  Uiso   1.00
H905   H     0.99099   0.78927   0.34293   0.00000  Uiso   1.00
H906   H     0.74434   0.77416   0.37429   0.00000  Uiso   1.00
H907   H     0.70459   0.77653   0.42119   0.00000  Uiso   1.00
H908   H     0.72358   0.72355   0.40213   0.00000  Uiso   1.00
H909   H     0.70881   0.50875   0.26505   0.00000  Uiso   1.00
H910   H     0.71798   0.56710   0.27277   0.00000  Uiso   1.00
H911   H     0.70305   0.56216   0.35770   0.00000  Uiso   1.00
H912   H     0.98404   0.53916   0.31751   0.00000  Uiso   1.00
H913   H     0.69460   0.50320   0.35245   0.00000  Uiso   1.00
H914   H     0.81106   0.68064   0.46152   0.00000  Uiso   1.00
H915   H     0.74024   0.50072   0.18960   0.00000  Uiso   1.00
H916   H     0.72863   0.95380   0.14900   0.00000  Uiso   1.00
H917   H     0.74925   0.50072   0.08090   0.00000  Uiso   1.00
H918   H     0.69895   0.52383   0.10978   0.00000  Uiso   1.00
H919   H     0.76256   0.54678   0.12203   0.00000  Uiso   1.00
H920   H     0.86172   0.62860   0.37876   0.00000  Uiso   1.00
H921   H     0.85733   0.57178   0.36437   0.00000  Uiso   1.00
H922   H     0.83040   0.59143   0.44534   0.00000  Uiso   1.00
H923   H     0.77564   0.61754   0.41298   0.00000  Uiso   1.00
H924   H     0.78460   0.55946   0.40575   0.00000  Uiso   1.00
H925   H     0.90205   0.78626   0.13135   0.00000  Uiso   1.00
H926   H     0.87182   0.86512   0.14767   0.00000  Uiso   1.00
H927   H     0.85536   0.92006   0.12726   0.00000  Uiso   1.00
H928   H     0.79079   0.89186   0.06482   0.00000  Uiso   1.00
H929   H     0.85066   0.86583   0.06038   0.00000  Uiso   1.00
H930   H     0.80055   0.83627   0.08567   0.00000  Uiso   1.00
H931   H     0.93782   0.64144   0.15014   0.00000  Uiso   1.00
H932   H     0.94352   0.58598   0.16685   0.00000  Uiso   1.00
H933   H     0.94247   0.66337   0.23916   0.00000  Uiso   1.00
H934   H     0.95819   0.60776   0.25513   0.00000  Uiso   1.00
H935   H     0.69962   0.61413   0.20823   0.00000  Uiso   1.00
H936   H     0.80654   0.68455   0.37248   0.00000  Uiso   1.00
H937   H     0.70288   0.65325   0.25716   0.00000  Uiso   1.00
H938   H     0.68448   0.67070   0.19548   0.00000  Uiso   1.00
H939   H     0.74768   0.85306   0.35214   0.00000  Uiso   1.00
H940   H     0.74847   0.85508   0.28929   0.00000  Uiso   1.00
H941   H     0.72166   0.92713   0.35816   0.00000  Uiso   1.00
H942   H     0.73695   0.94133   0.29919   0.00000  Uiso   1.00
H943   H     0.66946   0.89442   0.25837   0.00000  Uiso   1.00
H944   H     0.97717   0.93058   0.29944   0.00000  Uiso   1.00
H945   H     0.98747   0.87367   0.31528   0.00000  Uiso   1.00
H946   H     0.92647   0.99050   0.24824   0.00000  Uiso   1.00
H947   H     0.70988   0.80801   0.15099   0.00000  Uiso   1.00
H948   H     0.96246   0.53347   0.22358   0.00000  Uiso   1.00
H949   H     0.96219   0.98797   0.14812   0.00000  Uiso   1.00
H950   H     0.99147   0.96118   0.20243   0.00000  Uiso   1.00
H951   H     0.92848   0.94490   0.17629   0.00000  Uiso   1.00
H952   H     0.92400   0.98265   0.33323   0.00000  Uiso   1.00
H953   H     0.90717   0.92966   0.35684   0.00000  Uiso   1.00
H954   H     0.88335   0.96803   0.43041   0.00000  Uiso   1.00
H955   H     0.94932   0.97543   0.42258   0.00000  Uiso   1.00
H956   H     0.90587   0.51921   0.40734   0.00000  Uiso   1.00
H957   H     0.77733   0.63967   0.14279   0.00000  Uiso   1.00
H958   H     0.70919   0.83317   0.20989   0.00000  Uiso   1.00
H959   H     0.78648   0.65022   0.08209   0.00000  Uiso   1.00
H960   H     0.69633   0.61644   0.12206   0.00000  Uiso   1.00
H961   H     0.67952   0.66654   0.09137   0.00000  Uiso   1.00
H962   H     0.70887   0.63764   0.01605   0.00000  Uiso   1.00
H963   H     0.99634   0.60084   0.03758   0.00000  Uiso   1.00
H964   H     0.72942   0.58814   0.04747   0.00000  Uiso   1.00
H965   H     0.93362   0.84072   0.35944   0.00000  Uiso   1.00
H966   H     0.93664   0.79664   0.40210   0.00000  Uiso   1.00
H967   H     0.90613   0.88846   0.43077   0.00000  Uiso   1.00
H968   H     0.93099   0.84397   0.46880   0.00000  Uiso   1.00
H969   H     0.95668   0.86185   0.18121   0.00000  Uiso   1.00
H970   H     0.68042   0.85198   0.43587   0.00000  Uiso   1.00
H971   H     0.99687   0.90031   0.46683   0.00000  Uiso   1.00
H972   H     0.98937   0.89922   0.40167   0.00000  Uiso   1.00
H973   H     0.71793   0.77705   0.00583   0.00000  Uiso   1.00
H974   H     0.70219   0.75267   0.06119   0.00000  Uiso   1.00
H975   H     0.97625   0.70101   0.01826   0.00000  Uiso   1.00
H976   H     0.96377   0.75383   0.49064   0.00000  Uiso   1.00
H977   H     0.99749   0.71343   0.46104   0.00000  Uiso   1.00
H978   H     0.77217   0.84068   0.49360   0.00000  Uiso   1.00
H979   H     0.76990   0.83568   0.42956   0.00000  Uiso   1.00
H980   H     0.67258   0.88264   0.14810   0.00000  Uiso   1.00
H981   H     0.81708   0.90481   0.42431   0.00000  Uiso   1.00
H982   H     0.76338   0.91313   0.45597   0.00000  Uiso   1.00
H983   H     0.82640   0.91084   0.48916   0.00000  Uiso   1.00
H984   H     0.96196   0.84108   0.12101   0.00000  Uiso   1.00
N985   N     0.83333   0.75001   0.12935   0.00000  Uiso   1.00
N986   N     0.83333   0.74999   0.37066   0.00000  Uiso   1.00
O987   O     0.83334   0.68572   0.29072   0.00000  Uiso   1.00
O988   O     0.67810   0.73031   0.31160   0.00000  Uiso   1.00
O989   O     0.77427   0.52640   0.30965   0.00000  Uiso   1.00
O990   O     0.80361   0.97566   0.16280   0.00000  Uiso   1.00
O991   O     0.80063   0.61305   0.32693   0.00000  Uiso   1.00
O992   O     0.80127   0.88488   0.16156   0.00000  Uiso   1.00
O993   O     0.87642   0.61654   0.17797   0.00000  Uiso   1.00
O994   O     0.80946   0.88739   0.33284   0.00000  Uiso   1.00
O995   O     0.88927   0.52456   0.18790   0.00000  Uiso   1.00
O996   O     0.84748   0.97257   0.33752   0.00000  Uiso   1.00
O997   O     0.75995   0.70294   0.12218   0.00000  Uiso   1.00
O998   O     0.83333   0.81427   0.20929   0.00000  Uiso   1.00
O999   O     0.86507   0.82434   0.37891   0.00000  Uiso   1.00
O1000  O     0.74729   0.71519   0.02089   0.00000  Uiso   1.00
O1001  O     0.84167   0.82800   0.47215   0.00000  Uiso   1.00
O1002  O     0.83334   0.68573   0.20928   0.00000  Uiso   1.00
O1003  O     0.83333   0.81427   0.29072   0.00000  Uiso   1.00
O1004  O     0.75828   0.74999   0.28132   0.00000  Uiso   1.00
O1005  O     0.90839   0.75000   0.21868   0.00000  Uiso   1.00
O1006  O     0.75828   0.75000   0.19989   0.00000  Uiso   1.00
O1007  O     0.90839   0.75000   0.30012   0.00000  Uiso   1.00
O1008  O     0.98979   0.78078   0.19096   0.00000  Uiso   1.00
C1009  C     0.16784   0.16491   0.75025   0.00000  Uiso   1.00
C1010  C     0.17321   0.28813   0.94833   0.00000  Uiso   1.00
C1011  C     0.16418   0.24931   0.52726   0.00000  Uiso   1.00
C1012  C     0.16365   0.24937   0.97286   0.00000  Uiso   1.00
C1013  C     0.06824   0.25196   0.73786   0.00000  Uiso   1.00
C1014  C     0.26528   0.25092   0.76227   0.00000  Uiso   1.00
C1015  C     0.01373   0.25991   0.73228   0.00000  Uiso   1.00
C1016  C     0.32045   0.24841   0.76891   0.00000  Uiso   1.00
C1017  C     0.13960   0.04756   0.78124   0.00000  Uiso   1.00
C1018  C     0.14913   0.45282   0.70552   0.00000  Uiso   1.00
C1019  C     0.14858   0.09264   0.78694   0.00000  Uiso   1.00
C1020  C     0.16356   0.33493   0.74943   0.00000  Uiso   1.00
C1021  C     0.15062   0.40674   0.70444   0.00000  Uiso   1.00
C1022  C     0.16999   0.11644   0.75106   0.00000  Uiso   1.00
C1023  C     0.15817   0.38320   0.74841   0.00000  Uiso   1.00
C1024  C     0.19392   0.09346   0.71657   0.00000  Uiso   1.00
C1025  C     0.15853   0.40651   0.79206   0.00000  Uiso   1.00
C1026  C     0.19625   0.04713   0.71928   0.00000  Uiso   1.00
C1027  C     0.16983   0.45149   0.79325   0.00000  Uiso   1.00
C1028  C     0.16664   0.02402   0.75028   0.00000  Uiso   1.00
C1029  C     0.16270   0.47544   0.74964   0.00000  Uiso   1.00
C1030  C     0.01858   0.31778   0.67818   0.00000  Uiso   1.00
C1031  C     0.20482   0.26905   0.55801   0.00000  Uiso   1.00
C1032  C     0.31670   0.35293   0.65565   0.00000  Uiso   1.00
C1033  C     0.00096   0.25467   0.85214   0.00000  Uiso   1.00
C1034  C     0.04667   0.25714   0.88993   0.00000  Uiso   1.00
C1035  C     0.05660   0.03488   0.79126   0.00000  Uiso   1.00
C1036  C     0.02437   0.03467   0.83240   0.00000  Uiso   1.00
C1037  C     0.08479   0.48461   0.65694   0.00000  Uiso   1.00
C1038  C     0.07314   0.01592   0.61469   0.00000  Uiso   1.00
C1039  C     0.16751   0.10115   0.86883   0.00000  Uiso   1.00
C1040  C     0.13757   0.09196   0.91079   0.00000  Uiso   1.00
C1041  C     0.17369   0.38623   0.63214   0.00000  Uiso   1.00
C1042  C     0.15368   0.21118   0.94458   0.00000  Uiso   1.00
C1043  C     0.15260   0.36888   0.58255   0.00000  Uiso   1.00
C1044  C     0.26310   0.11767   0.67857   0.00000  Uiso   1.00
C1045  C     0.29302   0.13336   0.72692   0.00000  Uiso   1.00
C1046  C     0.01509   0.14345   0.72155   0.00000  Uiso   1.00
C1047  C     0.09055   0.37497   0.82287   0.00000  Uiso   1.00
C1048  C     0.05587   0.41463   0.82088   0.00000  Uiso   1.00
C1049  C     0.00242   0.40249   0.79715   0.00000  Uiso   1.00
C1050  C     0.26687   0.00704   0.71416   0.00000  Uiso   1.00
C1051  C     0.28860   0.47324   0.68316   0.00000  Uiso   1.00
C1052  C     0.23194   0.46526   0.85585   0.00000  Uiso   1.00
C1053  C     0.20473   0.26990   0.60860   0.00000  Uiso   1.00
C1054  C     0.24319   0.48311   0.90724   0.00000  Uiso   1.00
C1055  C     0.09461   0.15775   0.60988   0.00000  Uiso   1.00
C1056  C     0.04045   0.13959   0.59418   0.00000  Uiso   1.00
C1057  C     0.03529   0.11510   0.54585   0.00000  Uiso   1.00
C1058  C     0.25158   0.32833   0.89194   0.00000  Uiso   1.00
C1059  C     0.26608   0.36089   0.93376   0.00000  Uiso   1.00
C1060  C     0.31995   0.37914   0.93443   0.00000  Uiso   1.00
C1061  C     0.04167   0.24565   0.52319   0.00000  Uiso   1.00
C1062  C     0.32516   0.22732   0.99660   0.00000  Uiso   1.00
C1063  C     0.12703   0.34769   0.96294   0.00000  Uiso   1.00
C1064  C     0.15328   0.21274   0.89367   0.00000  Uiso   1.00
C1065  C     0.13397   0.39715   0.95792   0.00000  Uiso   1.00
C1066  C     0.12875   0.22731   0.60066   0.00000  Uiso   1.00
C1067  C     0.18021   0.28683   0.89879   0.00000  Uiso   1.00
C1068  C     0.12409   0.23066   0.54922   0.00000  Uiso   1.00
Cu1069 Cu    0.16667   0.24999   0.79822   0.00000  Uiso   1.00
Cu1070 Cu    0.16667   0.25000   0.70179   0.00000  Uiso   1.00
H1071  H     0.23625   0.28444   0.54295   0.00000  Uiso   1.00
H1072  H     0.30374   0.23746   0.86883   0.00000  Uiso   1.00
H1073  H     0.32433   0.28927   0.84293   0.00000  Uiso   1.00
H1074  H     0.07768   0.27416   0.87429   0.00000  Uiso   1.00
H1075  H     0.03792   0.27653   0.92119   0.00000  Uiso   1.00
H1076  H     0.05691   0.22355   0.90213   0.00000  Uiso   1.00
H1077  H     0.04214   0.00875   0.76505   0.00000  Uiso   1.00
H1078  H     0.05132   0.06710   0.77277   0.00000  Uiso   1.00
H1079  H     0.03639   0.06216   0.85770   0.00000  Uiso   1.00
H1080  H     0.31737   0.03916   0.81751   0.00000  Uiso   1.00
H1081  H     0.02794   0.00320   0.85245   0.00000  Uiso   1.00
H1082  H     0.14439   0.18064   0.96152   0.00000  Uiso   1.00
H1083  H     0.07357   0.00072   0.68960   0.00000  Uiso   1.00
H1084  H     0.06196   0.45380   0.64900   0.00000  Uiso   1.00
H1085  H     0.08259   0.00072   0.58090   0.00000  Uiso   1.00
H1086  H     0.03229   0.02383   0.60978   0.00000  Uiso   1.00
H1087  H     0.09590   0.04678   0.62203   0.00000  Uiso   1.00
H1088  H     0.19506   0.12860   0.87876   0.00000  Uiso   1.00
H1089  H     0.19066   0.07178   0.86437   0.00000  Uiso   1.00
H1090  H     0.16374   0.09143   0.94534   0.00000  Uiso   1.00
H1091  H     0.10897   0.11754   0.91298   0.00000  Uiso   1.00
H1092  H     0.11794   0.05946   0.90575   0.00000  Uiso   1.00
H1093  H     0.23539   0.28626   0.63135   0.00000  Uiso   1.00
H1094  H     0.20515   0.36512   0.64767   0.00000  Uiso   1.00
H1095  H     0.18869   0.42006   0.62726   0.00000  Uiso   1.00
H1096  H     0.12413   0.39186   0.56482   0.00000  Uiso   1.00
H1097  H     0.18399   0.36583   0.56038   0.00000  Uiso   1.00
H1098  H     0.13388   0.33627   0.58567   0.00000  Uiso   1.00
H1099  H     0.27115   0.14144   0.65014   0.00000  Uiso   1.00
H1100  H     0.27685   0.08598   0.66685   0.00000  Uiso   1.00
H1101  H     0.27580   0.16337   0.73916   0.00000  Uiso   1.00
H1102  H     0.29152   0.10776   0.75513   0.00000  Uiso   1.00
H1103  H     0.03296   0.11413   0.70823   0.00000  Uiso   1.00
H1104  H     0.13988   0.18455   0.87248   0.00000  Uiso   1.00
H1105  H     0.03621   0.15325   0.75716   0.00000  Uiso   1.00
H1106  H     0.01781   0.17070   0.69548   0.00000  Uiso   1.00
H1107  H     0.08101   0.35306   0.85214   0.00000  Uiso   1.00
H1108  H     0.08180   0.35508   0.78929   0.00000  Uiso   1.00
H1109  H     0.05500   0.42713   0.85816   0.00000  Uiso   1.00
H1110  H     0.07028   0.44133   0.79919   0.00000  Uiso   1.00
H1111  H     0.00280   0.39442   0.75837   0.00000  Uiso   1.00
H1112  H     0.31050   0.43058   0.79944   0.00000  Uiso   1.00
H1113  H     0.32080   0.37367   0.81528   0.00000  Uiso   1.00
H1114  H     0.25980   0.49050   0.74824   0.00000  Uiso   1.00
H1115  H     0.04321   0.30801   0.65099   0.00000  Uiso   1.00
H1116  H     0.29579   0.03347   0.72358   0.00000  Uiso   1.00
H1117  H     0.29552   0.48797   0.64812   0.00000  Uiso   1.00
H1118  H     0.32481   0.46118   0.70243   0.00000  Uiso   1.00
H1119  H     0.26181   0.44490   0.67629   0.00000  Uiso   1.00
H1120  H     0.25734   0.48265   0.83323   0.00000  Uiso   1.00
H1121  H     0.24051   0.42966   0.85684   0.00000  Uiso   1.00
H1122  H     0.21668   0.46803   0.93041   0.00000  Uiso   1.00
H1123  H     0.28266   0.47543   0.92258   0.00000  Uiso   1.00
H1124  H     0.23920   0.01921   0.90734   0.00000  Uiso   1.00
H1125  H     0.11067   0.13967   0.64279   0.00000  Uiso   1.00
H1126  H     0.04252   0.33317   0.70989   0.00000  Uiso   1.00
H1127  H     0.11981   0.15022   0.58209   0.00000  Uiso   1.00
H1128  H     0.02966   0.11644   0.62206   0.00000  Uiso   1.00
H1129  H     0.01285   0.16654   0.59137   0.00000  Uiso   1.00
H1130  H     0.04221   0.13764   0.51605   0.00000  Uiso   1.00
H1131  H     0.32967   0.10084   0.53758   0.00000  Uiso   1.00
H1132  H     0.06275   0.08814   0.54747   0.00000  Uiso   1.00
H1133  H     0.26695   0.34072   0.85944   0.00000  Uiso   1.00
H1134  H     0.26997   0.29664   0.90210   0.00000  Uiso   1.00
H1135  H     0.23947   0.38846   0.93077   0.00000  Uiso   1.00
H1136  H     0.26432   0.34397   0.96880   0.00000  Uiso   1.00
H1137  H     0.29001   0.36185   0.68121   0.00000  Uiso   1.00
H1138  H     0.01375   0.35198   0.93587   0.00000  Uiso   1.00
H1139  H     0.33020   0.40031   0.96683   0.00000  Uiso   1.00
H1140  H     0.32270   0.39922   0.90167   0.00000  Uiso   1.00
H1141  H     0.05127   0.27705   0.50583   0.00000  Uiso   1.00
H1142  H     0.03552   0.25267   0.56119   0.00000  Uiso   1.00
H1143  H     0.30959   0.20101   0.51826   0.00000  Uiso   1.00
H1144  H     0.29711   0.25383   0.99064   0.00000  Uiso   1.00
H1145  H     0.33083   0.21343   0.96104   0.00000  Uiso   1.00
H1146  H     0.10550   0.34068   0.99360   0.00000  Uiso   1.00
H1147  H     0.10323   0.33568   0.92956   0.00000  Uiso   1.00
H1148  H     0.00591   0.38264   0.64810   0.00000  Uiso   1.00
H1149  H     0.15041   0.40481   0.92431   0.00000  Uiso   1.00
H1150  H     0.09672   0.41313   0.95597   0.00000  Uiso   1.00
H1151  H     0.15973   0.41084   0.98916   0.00000  Uiso   1.00
H1152  H     0.29529   0.34108   0.62101   0.00000  Uiso   1.00
N1153  N     0.16667   0.25001   0.62935   0.00000  Uiso   1.00
N1154  N     0.16667   0.24999   0.87066   0.00000  Uiso   1.00
O1155  O     0.16667   0.18572   0.79072   0.00000  Uiso   1.00
O1156  O     0.01144   0.23031   0.81160   0.00000  Uiso   1.00
O1157  O     0.10760   0.02640   0.80965   0.00000  Uiso   1.00
O1158  O     0.13694   0.47566   0.66280   0.00000  Uiso   1.00
O1159  O     0.13397   0.11305   0.82693   0.00000  Uiso   1.00
O1160  O     0.13460   0.38488   0.66156   0.00000  Uiso   1.00
O1161  O     0.20975   0.11654   0.67797   0.00000  Uiso   1.00
O1162  O     0.14279   0.38739   0.83284   0.00000  Uiso   1.00
O1163  O     0.22261   0.02456   0.68790   0.00000  Uiso   1.00
O1164  O     0.18081   0.47257   0.83752   0.00000  Uiso   1.00
O1165  O     0.09328   0.20294   0.62218   0.00000  Uiso   1.00
O1166  O     0.16666   0.31427   0.70929   0.00000  Uiso   1.00
O1167  O     0.19840   0.32434   0.87891   0.00000  Uiso   1.00
O1168  O     0.08062   0.21519   0.52089   0.00000  Uiso   1.00
O1169  O     0.17501   0.32800   0.97215   0.00000  Uiso   1.00
O1170  O     0.16667   0.18573   0.70928   0.00000  Uiso   1.00
O1171  O     0.16666   0.31427   0.79072   0.00000  Uiso   1.00
O1172  O     0.09161   0.24999   0.78132   0.00000  Uiso   1.00
O1173  O     0.24172   0.25000   0.71868   0.00000  Uiso   1.00
O1174  O     0.09161   0.25000   0.69989   0.00000  Uiso   1.00
O1175  O     0.24172   0.25000   0.80012   0.00000  Uiso   1.00
O1176  O     0.32313   0.28078   0.69096   0.00000  Uiso   1.00
C1177  C     0.50117   0.16491   0.75025   0.00000  Uiso   1.00
C1178  C     0.50654   0.28813   0.94833   0.00000  Uiso   1.00
C1179  C     0.49751   0.24931   0.52726   0.00000  Uiso   1.00
C1180  C     0.49699   0.24937   0.97286   0.00000  Uiso   1.00
C1181  C     0.40158   0.25196   0.73786   0.00000  Uiso   1.00
C1182  C     0.59861   0.25092   0.76227   0.00000  Uiso   1.00
C1183  C     0.34707   0.25991   0.73228   0.00000  Uiso   1.00
C1184  C     0.65379   0.24841   0.76891   0.00000  Uiso   1.00
C1185  C     0.47294   0.04756   0.78124   0.00000  Uiso   1.00
C1186  C     0.48246   0.45282   0.70552   0.00000  Uiso   1.00
C1187  C     0.48191   0.09264   0.78694   0.00000  Uiso   1.00
C1188  C     0.49690   0.33493   0.74943   0.00000  Uiso   1.00
C1189  C     0.48395   0.40674   0.70444   0.00000  Uiso   1.00
C1190  C     0.50332   0.11644   0.75106   0.00000  Uiso   1.00
C1191  C     0.49150   0.38320   0.74841   0.00000  Uiso   1.00
C1192  C     0.52726   0.09346   0.71657   0.00000  Uiso   1.00
C1193  C     0.49187   0.40651   0.79206   0.00000  Uiso   1.00
C1194  C     0.52959   0.04713   0.71928   0.00000  Uiso   1.00
C1195  C     0.50316   0.45149   0.79325   0.00000  Uiso   1.00
C1196  C     0.49998   0.02402   0.75028   0.00000  Uiso   1.00
C1197  C     0.49603   0.47544   0.74964   0.00000  Uiso   1.00
C1198  C     0.35191   0.31778   0.67818   0.00000  Uiso   1.00
C1199  C     0.53815   0.26905   0.55801   0.00000  Uiso   1.00
C1200  C     0.65003   0.35293   0.65565   0.00000  Uiso   1.00
C1201  C     0.33429   0.25467   0.85214   0.00000  Uiso   1.00
C1202  C     0.38001   0.25714   0.88993   0.00000  Uiso   1.00
C1203  C     0.38994   0.03488   0.79126   0.00000  Uiso   1.00
C1204  C     0.35770   0.03467   0.83240   0.00000  Uiso   1.00
C1205  C     0.41812   0.48461   0.65694   0.00000  Uiso   1.00
C1206  C     0.40647   0.01592   0.61469   0.00000  Uiso   1.00
C1207  C     0.50085   0.10115   0.86883   0.00000  Uiso   1.00
C1208  C     0.47090   0.09196   0.91079   0.00000  Uiso   1.00
C1209  C     0.50703   0.38623   0.63214   0.00000  Uiso   1.00
C1210  C     0.48701   0.21118   0.94458   0.00000  Uiso   1.00
C1211  C     0.48594   0.36888   0.58255   0.00000  Uiso   1.00
C1212  C     0.59643   0.11767   0.67857   0.00000  Uiso   1.00
C1213  C     0.62636   0.13336   0.72692   0.00000  Uiso   1.00
C1214  C     0.34843   0.14345   0.72155   0.00000  Uiso   1.00
C1215  C     0.42389   0.37497   0.82287   0.00000  Uiso   1.00
C1216  C     0.38920   0.41463   0.82088   0.00000  Uiso   1.00
C1217  C     0.33575   0.40249   0.79715   0.00000  Uiso   1.00
C1218  C     0.60020   0.00704   0.71416   0.00000  Uiso   1.00
C1219  C     0.62193   0.47324   0.68316   0.00000  Uiso   1.00
C1220  C     0.56527   0.46526   0.85585   0.00000  Uiso   1.00
C1221  C     0.53806   0.26990   0.60860   0.00000  Uiso   1.00
C1222  C     0.57652   0.48311   0.90724   0.00000  Uiso   1.00
C1223  C     0.42795   0.15775   0.60988   0.00000  Uiso   1.00
C1224  C     0.37378   0.13959   0.59418   0.00000  Uiso   1.00
C1225  C     0.36863   0.11510   0.54585   0.00000  Uiso   1.00
C1226  C     0.58491   0.32833   0.89194   0.00000  Uiso   1.00
C1227  C     0.59941   0.36089   0.93376   0.00000  Uiso   1.00
C1228  C     0.65328   0.37914   0.93443   0.00000  Uiso   1.00
C1229  C     0.37500   0.24565   0.52319   0.00000  Uiso   1.00
C1230  C     0.65850   0.22732   0.99660   0.00000  Uiso   1.00
C1231  C     0.46036   0.34769   0.96294   0.00000  Uiso   1.00
C1232  C     0.48661   0.21274   0.89367   0.00000  Uiso   1.00
C1233  C     0.46730   0.39715   0.95792   0.00000  Uiso   1.00
C1234  C     0.46209   0.22731   0.60066   0.00000  Uiso   1.00
C1235  C     0.51354   0.28683   0.89879   0.00000  Uiso   1.00
C1236  C     0.45742   0.23066   0.54922   0.00000  Uiso   1.00
Cu1237 Cu    0.50000   0.24999   0.79822   0.00000  Uiso   1.00
Cu1238 Cu    0.50000   0.25000   0.70179   0.00000  Uiso   1.00
H1239  H     0.56958   0.28444   0.54295   0.00000  Uiso   1.00
H1240  H     0.63707   0.23746   0.86883   0.00000  Uiso   1.00
H1241  H     0.65766   0.28927   0.84293   0.00000  Uiso   1.00
H1242  H     0.41101   0.27416   0.87429   0.00000  Uiso   1.00
H1243  H     0.37126   0.27653   0.92119   0.00000  Uiso   1.00
H1244  H     0.39025   0.22355   0.90213   0.00000  Uiso   1.00
H1245  H     0.37547   0.00875   0.76505   0.00000  Uiso   1.00
H1246  H     0.38465   0.06710   0.77277   0.00000  Uiso   1.00
H1247  H     0.36972   0.06216   0.85770   0.00000  Uiso   1.00
H1248  H     0.65070   0.03916   0.81751   0.00000  Uiso   1.00
H1249  H     0.36127   0.00320   0.85245   0.00000  Uiso   1.00
H1250  H     0.47772   0.18064   0.96152   0.00000  Uiso   1.00
H1251  H     0.40690   0.00072   0.68960   0.00000  Uiso   1.00
H1252  H     0.39529   0.45380   0.64900   0.00000  Uiso   1.00
H1253  H     0.41592   0.00072   0.58090   0.00000  Uiso   1.00
H1254  H     0.36562   0.02383   0.60978   0.00000  Uiso   1.00
H1255  H     0.42923   0.04678   0.62203   0.00000  Uiso   1.00
H1256  H     0.52839   0.12860   0.87876   0.00000  Uiso   1.00
H1257  H     0.52400   0.07178   0.86437   0.00000  Uiso   1.00
H1258  H     0.49707   0.09143   0.94534   0.00000  Uiso   1.00
H1259  H     0.44230   0.11754   0.91298   0.00000  Uiso   1.00
H1260  H     0.45127   0.05946   0.90575   0.00000  Uiso   1.00
H1261  H     0.56872   0.28626   0.63135   0.00000  Uiso   1.00
H1262  H     0.53849   0.36512   0.64767   0.00000  Uiso   1.00
H1263  H     0.52202   0.42006   0.62726   0.00000  Uiso   1.00
H1264  H     0.45746   0.39186   0.56482   0.00000  Uiso   1.00
H1265  H     0.51733   0.36583   0.56038   0.00000  Uiso   1.00
H1266  H     0.46721   0.33627   0.58567   0.00000  Uiso   1.00
H1267  H     0.60449   0.14144   0.65014   0.00000  Uiso   1.00
H1268  H     0.61019   0.08598   0.66685   0.00000  Uiso   1.00
H1269  H     0.60913   0.16337   0.73916   0.00000  Uiso   1.00
H1270  H     0.62486   0.10776   0.75513   0.00000  Uiso   1.00
H1271  H     0.36629   0.11413   0.70823   0.00000  Uiso   1.00
H1272  H     0.47321   0.18455   0.87248   0.00000  Uiso   1.00
H1273  H     0.36954   0.15325   0.75716   0.00000  Uiso   1.00
H1274  H     0.35114   0.17070   0.69548   0.00000  Uiso   1.00
H1275  H     0.41435   0.35306   0.85214   0.00000  Uiso   1.00
H1276  H     0.41513   0.35508   0.78929   0.00000  Uiso   1.00
H1277  H     0.38833   0.42713   0.85816   0.00000  Uiso   1.00
H1278  H     0.40362   0.44133   0.79919   0.00000  Uiso   1.00
H1279  H     0.33613   0.39442   0.75837   0.00000  Uiso   1.00
H1280  H     0.64384   0.43058   0.79944   0.00000  Uiso   1.00
H1281  H     0.65413   0.37367   0.81528   0.00000  Uiso   1.00
H1282  H     0.59313   0.49050   0.74824   0.00000  Uiso   1.00
H1283  H     0.37655   0.30801   0.65099   0.00000  Uiso   1.00
H1284  H     0.62912   0.03347   0.72358   0.00000  Uiso   1.00
H1285  H     0.62885   0.48797   0.64812   0.00000  Uiso   1.00
H1286  H     0.65814   0.46118   0.70243   0.00000  Uiso   1.00
H1287  H     0.59514   0.44490   0.67629   0.00000  Uiso   1.00
H1288  H     0.59067   0.48265   0.83323   0.00000  Uiso   1.00
H1289  H     0.57384   0.42966   0.85684   0.00000  Uiso   1.00
H1290  H     0.55002   0.46803   0.93041   0.00000  Uiso   1.00
H1291  H     0.61599   0.47543   0.92258   0.00000  Uiso   1.00
H1292  H     0.57253   0.01921   0.90734   0.00000  Uiso   1.00
H1293  H     0.44400   0.13967   0.64279   0.00000  Uiso   1.00
H1294  H     0.37585   0.33317   0.70989   0.00000  Uiso   1.00
H1295  H     0.45315   0.15022   0.58209   0.00000  Uiso   1.00
H1296  H     0.36300   0.11644   0.62206   0.00000  Uiso   1.00
H1297  H     0.34618   0.16654   0.59137   0.00000  Uiso   1.00
H1298  H     0.37554   0.13764   0.51605   0.00000  Uiso   1.00
H1299  H     0.66301   0.10084   0.53758   0.00000  Uiso   1.00
H1300  H     0.39609   0.08814   0.54747   0.00000  Uiso   1.00
H1301  H     0.60028   0.34072   0.85944   0.00000  Uiso   1.00
H1302  H     0.60330   0.29664   0.90210   0.00000  Uiso   1.00
H1303  H     0.57280   0.38846   0.93077   0.00000  Uiso   1.00
H1304  H     0.59765   0.34397   0.96880   0.00000  Uiso   1.00
H1305  H     0.62334   0.36185   0.68121   0.00000  Uiso   1.00
H1306  H     0.34708   0.35198   0.93587   0.00000  Uiso   1.00
H1307  H     0.66353   0.40031   0.96683   0.00000  Uiso   1.00
H1308  H     0.65604   0.39922   0.90167   0.00000  Uiso   1.00
H1309  H     0.38460   0.27705   0.50583   0.00000  Uiso   1.00
H1310  H     0.36885   0.25267   0.56119   0.00000  Uiso   1.00
H1311  H     0.64292   0.20101   0.51826   0.00000  Uiso   1.00
H1312  H     0.63044   0.25383   0.99064   0.00000  Uiso   1.00
H1313  H     0.66416   0.21343   0.96104   0.00000  Uiso   1.00
H1314  H     0.43884   0.34068   0.99360   0.00000  Uiso   1.00
H1315  H     0.43656   0.33568   0.92956   0.00000  Uiso   1.00
H1316  H     0.33925   0.38264   0.64810   0.00000  Uiso   1.00
H1317  H     0.48374   0.40481   0.92431   0.00000  Uiso   1.00
H1318  H     0.43005   0.41313   0.95597   0.00000  Uiso   1.00
H1319  H     0.49306   0.41084   0.98916   0.00000  Uiso   1.00
H1320  H     0.62863   0.34108   0.62101   0.00000  Uiso   1.00
N1321  N     0.50000   0.25001   0.62935   0.00000  Uiso   1.00
N1322  N     0.50000   0.24999   0.87066   0.00000  Uiso   1.00
O1323  O     0.50000   0.18572   0.79072   0.00000  Uiso   1.00
O1324  O     0.34477   0.23031   0.81160   0.00000  Uiso   1.00
O1325  O     0.44093   0.02640   0.80965   0.00000  Uiso   1.00
O1326  O     0.47027   0.47566   0.66280   0.00000  Uiso   1.00
O1327  O     0.46730   0.11305   0.82693   0.00000  Uiso   1.00
O1328  O     0.46793   0.38488   0.66156   0.00000  Uiso   1.00
O1329  O     0.54308   0.11654   0.67797   0.00000  Uiso   1.00
O1330  O     0.47613   0.38739   0.83284   0.00000  Uiso   1.00
O1331  O     0.55594   0.02456   0.68790   0.00000  Uiso   1.00
O1332  O     0.51415   0.47257   0.83752   0.00000  Uiso   1.00
O1333  O     0.42662   0.20294   0.62218   0.00000  Uiso   1.00
O1334  O     0.50000   0.31427   0.70929   0.00000  Uiso   1.00
O1335  O     0.53174   0.32434   0.87891   0.00000  Uiso   1.00
O1336  O     0.41395   0.21519   0.52089   0.00000  Uiso   1.00
O1337  O     0.50834   0.32800   0.97215   0.00000  Uiso   1.00
O1338  O     0.50000   0.18573   0.70928   0.00000  Uiso   1.00
O1339  O     0.50000   0.31427   0.79072   0.00000  Uiso   1.00
O1340  O     0.42495   0.24999   0.78132   0.00000  Uiso   1.00
O1341  O     0.57505   0.25000   0.71868   0.00000  Uiso   1.00
O1342  O     0.42495   0.25000   0.69989   0.00000  Uiso   1.00
O1343  O     0.57505   0.25000   0.80012   0.00000  Uiso   1.00
O1344  O     0.65646   0.28078   0.69096   0.00000  Uiso   1.00
C1345  C     0.83450   0.16491   0.75025   0.00000  Uiso   1.00
C1346  C     0.83987   0.28813   0.94833   0.00000  Uiso   1.00
C1347  C     0.83085   0.24931   0.52726   0.00000  Uiso   1.00
C1348  C     0.83032   0.24937   0.97286   0.00000  Uiso   1.00
C1349  C     0.73491   0.25196   0.73786   0.00000  Uiso   1.00
C1350  C     0.93194   0.25092   0.76227   0.00000  Uiso   1.00
C1351  C     0.68040   0.25991   0.73228   0.00000  Uiso   1.00
C1352  C     0.98712   0.24841   0.76891   0.00000  Uiso   1.00
C1353  C     0.80627   0.04756   0.78124   0.00000  Uiso   1.00
C1354  C     0.81579   0.45282   0.70552   0.00000  Uiso   1.00
C1355  C     0.81525   0.09264   0.78694   0.00000  Uiso   1.00
C1356  C     0.83023   0.33493   0.74943   0.00000  Uiso   1.00
C1357  C     0.81728   0.40674   0.70444   0.00000  Uiso   1.00
C1358  C     0.83666   0.11644   0.75106   0.00000  Uiso   1.00
C1359  C     0.82484   0.38320   0.74841   0.00000  Uiso   1.00
C1360  C     0.86059   0.09346   0.71657   0.00000  Uiso   1.00
C1361  C     0.82520   0.40651   0.79206   0.00000  Uiso   1.00
C1362  C     0.86292   0.04713   0.71928   0.00000  Uiso   1.00
C1363  C     0.83650   0.45149   0.79325   0.00000  Uiso   1.00
C1364  C     0.83331   0.02402   0.75028   0.00000  Uiso   1.00
C1365  C     0.82937   0.47544   0.74964   0.00000  Uiso   1.00
C1366  C     0.68524   0.31778   0.67818   0.00000  Uiso   1.00
C1367  C     0.87148   0.26905   0.55801   0.00000  Uiso   1.00
C1368  C     0.98336   0.35293   0.65565   0.00000  Uiso   1.00
C1369  C     0.66762   0.25467   0.85214   0.00000  Uiso   1.00
C1370  C     0.71334   0.25714   0.88993   0.00000  Uiso   1.00
C1371  C     0.72327   0.03488   0.79126   0.00000  Uiso   1.00
C1372  C     0.69103   0.03467   0.83240   0.00000  Uiso   1.00
C1373  C     0.75146   0.48461   0.65694   0.00000  Uiso   1.00
C1374  C     0.73981   0.01592   0.61469   0.00000  Uiso   1.00
C1375  C     0.83418   0.10115   0.86883   0.00000  Uiso   1.00
C1376  C     0.80424   0.09196   0.91079   0.00000  Uiso   1.00
C1377  C     0.84036   0.38623   0.63214   0.00000  Uiso   1.00
C1378  C     0.82035   0.21118   0.94458   0.00000  Uiso   1.00
C1379  C     0.81927   0.36888   0.58255   0.00000  Uiso   1.00
C1380  C     0.92977   0.11767   0.67857   0.00000  Uiso   1.00
C1381  C     0.95969   0.13336   0.72692   0.00000  Uiso   1.00
C1382  C     0.68176   0.14345   0.72155   0.00000  Uiso   1.00
C1383  C     0.75722   0.37497   0.82287   0.00000  Uiso   1.00
C1384  C     0.72253   0.41463   0.82088   0.00000  Uiso   1.00
C1385  C     0.66909   0.40249   0.79715   0.00000  Uiso   1.00
C1386  C     0.93353   0.00704   0.71416   0.00000  Uiso   1.00
C1387  C     0.95527   0.47324   0.68316   0.00000  Uiso   1.00
C1388  C     0.89860   0.46526   0.85585   0.00000  Uiso   1.00
C1389  C     0.87139   0.26990   0.60860   0.00000  Uiso   1.00
C1390  C     0.90985   0.48311   0.90724   0.00000  Uiso   1.00
C1391  C     0.76128   0.15775   0.60988   0.00000  Uiso   1.00
C1392  C     0.70711   0.13959   0.59418   0.00000  Uiso   1.00
C1393  C     0.70196   0.11510   0.54585   0.00000  Uiso   1.00
C1394  C     0.91824   0.32833   0.89194   0.00000  Uiso   1.00
C1395  C     0.93274   0.36089   0.93376   0.00000  Uiso   1.00
C1396  C     0.98661   0.37914   0.93443   0.00000  Uiso   1.00
C1397  C     0.70834   0.24565   0.52319   0.00000  Uiso   1.00
C1398  C     0.99183   0.22732   0.99660   0.00000  Uiso   1.00
C1399  C     0.79370   0.34769   0.96294   0.00000  Uiso   1.00
C1400  C     0.81995   0.21274   0.89367   0.00000  Uiso   1.00
C1401  C     0.80064   0.39715   0.95792   0.00000  Uiso   1.00
C1402  C     0.79542   0.22731   0.60066   0.00000  Uiso   1.00
C1403  C     0.84688   0.28683   0.89879   0.00000  Uiso   1.00
C1404  C     0.79076   0.23066   0.54922   0.00000  Uiso   1.00
Cu1405 Cu    0.83333   0.24999   0.79822   0.00000  Uiso   1.00
Cu1406 Cu    0.83333   0.25000   0.70179   0.00000  Uiso   1.00
H1407  H     0.90291   0.28444   0.54295   0.00000  Uiso   1.00
H1408  H     0.97040   0.23746   0.86883   0.00000  Uiso   1.00
H1409  H     0.99099   0.28927   0.84293   0.00000  Uiso   1.00
H1410  H     0.74434   0.27416   0.87429   0.00000  Uiso   1.00
H1411  H     0.70459   0.27653   0.92119   0.00000  Uiso   1.00
H1412  H     0.72358   0.22355   0.90213   0.00000  Uiso   1.00
H1413  H     0.70881   0.00875   0.76505   0.00000  Uiso   1.00
H1414  H     0.71798   0.06710   0.77277   0.00000  Uiso   1.00
H1415  H     0.70305   0.06216   0.85770   0.00000  Uiso   1.00
H1416  H     0.98404   0.03916   0.81751   0.00000  Uiso   1.00
H1417  H     0.69460   0.00320   0.85245   0.00000  Uiso   1.00
H1418  H     0.81106   0.18064   0.96152   0.00000  Uiso   1.00
H1419  H     0.74024   0.00072   0.68960   0.00000  Uiso   1.00
H1420  H     0.72863   0.45380   0.64900   0.00000  Uiso   1.00
H1421  H     0.74925   0.00072   0.58090   0.00000  Uiso   1.00
H1422  H     0.69895   0.02383   0.60978   0.00000  Uiso   1.00
H1423  H     0.76256   0.04678   0.62203   0.00000  Uiso   1.00
H1424  H     0.86172   0.12860   0.87876   0.00000  Uiso   1.00
H1425  H     0.85733   0.07178   0.86437   0.00000  Uiso   1.00
H1426  H     0.83040   0.09143   0.94534   0.00000  Uiso   1.00
H1427  H     0.77564   0.11754   0.91298   0.00000  Uiso   1.00
H1428  H     0.78460   0.05946   0.90575   0.00000  Uiso   1.00
H1429  H     0.90205   0.28626   0.63135   0.00000  Uiso   1.00
H1430  H     0.87182   0.36512   0.64767   0.00000  Uiso   1.00
H1431  H     0.85536   0.42006   0.62726   0.00000  Uiso   1.00
H1432  H     0.79079   0.39186   0.56482   0.00000  Uiso   1.00
H1433  H     0.85066   0.36583   0.56038   0.00000  Uiso   1.00
H1434  H     0.80055   0.33627   0.58567   0.00000  Uiso   1.00
H1435  H     0.93782   0.14144   0.65014   0.00000  Uiso   1.00
H1436  H     0.94352   0.08598   0.66685   0.00000  Uiso   1.00
H1437  H     0.94247   0.16337   0.73916   0.00000  Uiso   1.00
H1438  H     0.95819   0.10776   0.75513   0.00000  Uiso   1.00
H1439  H     0.69962   0.11413   0.70823   0.00000  Uiso   1.00
H1440  H     0.80654   0.18455   0.87248   0.00000  Uiso   1.00
H1441  H     0.70288   0.15325   0.75716   0.00000  Uiso   1.00
H1442  H     0.68448   0.17070   0.69548   0.00000  Uiso   1.00
H1443  H     0.74768   0.35306   0.85214   0.00000  Uiso   1.00
H1444  H     0.74847   0.35508   0.78929   0.00000  Uiso   1.00
H1445  H     0.72166   0.42713   0.85816   0.00000  Uiso   1.00
H1446  H     0.73695   0.44133   0.79919   0.00000  Uiso   1.00
H1447  H     0.66946   0.39442   0.75837   0.00000  Uiso   1.00
H1448  H     0.97717   0.43058   0.79944   0.00000  Uiso   1.00
H1449  H     0.98747   0.37367   0.81528   0.00000  Uiso   1.00
H1450  H     0.92647   0.49050   0.74824   0.00000  Uiso   1.00
H1451  H     0.70988   0.30801   0.65099   0.00000  Uiso   1.00
H1452  H     0.96246   0.03347   0.72358   0.00000  Uiso   1.00
H1453  H     0.96219   0.48797   0.64812   0.00000  Uiso   1.00
H1454  H     0.99147   0.46118   0.70243   0.00000  Uiso   1.00
H1455  H     0.92848   0.44490   0.67629   0.00000  Uiso   1.00
H1456  H     0.92400   0.48265   0.83323   0.00000  Uiso   1.00
H1457  H     0.90717   0.42966   0.85684   0.00000  Uiso   1.00
H1458  H     0.88335   0.46803   0.93041   0.00000  Uiso   1.00
H1459  H     0.94932   0.47543   0.92258   0.00000  Uiso   1.00
H1460  H     0.90587   0.01921   0.90734   0.00000  Uiso   1.00
H1461  H     0.77733   0.13967   0.64279   0.00000  Uiso   1.00
H1462  H     0.70919   0.33317   0.70989   0.00000  Uiso   1.00
H1463  H     0.78648   0.15022   0.58209   0.00000  Uiso   1.00
H1464  H     0.69633   0.11644   0.62206   0.00000  Uiso   1.00
H1465  H     0.67952   0.16654   0.59137   0.00000  Uiso   1.00
H1466  H     0.70887   0.13764   0.51605   0.00000  Uiso   1.00
H1467  H     0.99634   0.10084   0.53758   0.00000  Uiso   1.00
H1468  H     0.72942   0.08814   0.54747   0.00000  Uiso   1.00
H1469  H     0.93362   0.34072   0.85944   0.00000  Uiso   1.00
H1470  H     0.93664   0.29664   0.90210   0.00000  Uiso   1.00
H1471  H     0.90613   0.38846   0.93077   0.00000  Uiso   1.00
H1472  H     0.93099   0.34397   0.96880   0.00000  Uiso   1.00
H1473  H     0.95668   0.36185   0.68121   0.00000  Uiso   1.00
H1474  H     0.68042   0.35198   0.93587   0.00000  Uiso   1.00
H1475  H     0.99687   0.40031   0.96683   0.00000  Uiso   1.00
H1476  H     0.98937   0.39922   0.90167   0.00000  Uiso   1.00
H1477  H     0.71793   0.27705   0.50583   0.00000  Uiso   1.00
H1478  H     0.70219   0.25267   0.56119   0.00000  Uiso   1.00
H1479  H     0.97625   0.20101   0.51826   0.00000  Uiso   1.00
H1480  H     0.96377   0.25383   0.99064   0.00000  Uiso   1.00
H1481  H     0.99749   0.21343   0.96104   0.00000  Uiso   1.00
H1482  H     0.77217   0.34068   0.99360   0.00000  Uiso   1.00
H1483  H     0.76990   0.33568   0.92956   0.00000  Uiso   1.00
H1484  H     0.67258   0.38264   0.64810   0.00000  Uiso   1.00
H1485  H     0.81708   0.40481   0.92431   0.00000  Uiso   1.00
H1486  H     0.76338   0.41313   0.95597   0.00000  Uiso   1.00
H1487  H     0.82640   0.41084   0.98916   0.00000  Uiso   1.00
H1488  H     0.96196   0.34108   0.62101   0.00000  Uiso   1.00
N1489  N     0.83333   0.25001   0.62935   0.00000  Uiso   1.00
N1490  N     0.83333   0.24999   0.87066   0.00000  Uiso   1.00
O1491  O     0.83334   0.18572   0.79072   0.00000  Uiso   1.00
O1492  O     0.67810   0.23031   0.81160   0.00000  Uiso   1.00
O1493  O     0.77427   0.02640   0.80965   0.00000  Uiso   1.00
O1494  O     0.80361   0.47566   0.66280   0.00000  Uiso   1.00
O1495  O     0.80063   0.11305   0.82693   0.00000  Uiso   1.00
O1496  O     0.80127   0.38488   0.66156   0.00000  Uiso   1.00
O1497  O     0.87642   0.11654   0.67797   0.00000  Uiso   1.00
O1498  O     0.80946   0.38739   0.83284   0.00000  Uiso   1.00
O1499  O     0.88927   0.02456   0.68790   0.00000  Uiso   1.00
O1500  O     0.84748   0.47257   0.83752   0.00000  Uiso   1.00
O1501  O     0.75995   0.20294   0.62218   0.00000  Uiso   1.00
O1502  O     0.83333   0.31427   0.70929   0.00000  Uiso   1.00
O1503  O     0.86507   0.32434   0.87891   0.00000  Uiso   1.00
O1504  O     0.74729   0.21519   0.52089   0.00000  Uiso   1.00
O1505  O     0.84167   0.32800   0.97215   0.00000  Uiso   1.00
O1506  O     0.83334   0.18573   0.70928   0.00000  Uiso   1.00
O1507  O     0.83333   0.31427   0.79072   0.00000  Uiso   1.00
O1508  O     0.75828   0.24999   0.78132   0.00000  Uiso   1.00
O1509  O     0.90839   0.25000   0.71868   0.00000  Uiso   1.00
O1510  O     0.75828   0.25000   0.69989   0.00000  Uiso   1.00
O1511  O     0.90839   0.25000   0.80012   0.00000  Uiso   1.00
O1512  O     0.98979   0.28078   0.69096   0.00000  Uiso   1.00
C1513  C     0.16784   0.66491   0.75025   0.00000  Uiso   1.00
C1514  C     0.17321   0.78813   0.94833   0.00000  Uiso   1.00
C1515  C     0.16418   0.74931   0.52726   0.00000  Uiso   1.00
C1516  C     0.16365   0.74937   0.97286   0.00000  Uiso   1.00
C1517  C     0.06824   0.75196   0.73786   0.00000  Uiso   1.00
C1518  C     0.26528   0.75092   0.76227   0.00000  Uiso   1.00
C1519  C     0.01373   0.75991   0.73228   0.00000  Uiso   1.00
C1520  C     0.32045   0.74841   0.76891   0.00000  Uiso   1.00
C1521  C     0.13960   0.54756   0.78124   0.00000  Uiso   1.00
C1522  C     0.14913   0.95282   0.70552   0.00000  Uiso   1.00
C1523  C     0.14858   0.59264   0.78694   0.00000  Uiso   1.00
C1524  C     0.16356   0.83493   0.74943   0.00000  Uiso   1.00
C1525  C     0.15062   0.90674   0.70444   0.00000  Uiso   1.00
C1526  C     0.16999   0.61644   0.75106   0.00000  Uiso   1.00
C1527  C     0.15817   0.88320   0.74841   0.00000  Uiso   1.00
C1528  C     0.19392   0.59346   0.71657   0.00000  Uiso   1.00
C1529  C     0.15853   0.90651   0.79206   0.00000  Uiso   1.00
C1530  C     0.19625   0.54713   0.71928   0.00000  Uiso   1.00
C1531  C     0.16983   0.95149   0.79325   0.00000  Uiso   1.00
C1532  C     0.16664   0.52402   0.75028   0.00000  Uiso   1.00
C1533  C     0.16270   0.97544   0.74964   0.00000  Uiso   1.00
C1534  C     0.01858   0.81778   0.67818   0.00000  Uiso   1.00
C1535  C     0.20482   0.76905   0.55801   0.00000  Uiso   1.00
C1536  C     0.31670   0.85293   0.65565   0.00000  Uiso   1.00
C1537  C     0.00096   0.75467   0.85214   0.00000  Uiso   1.00
C1538  C     0.04667   0.75714   0.88993   0.00000  Uiso   1.00
C1539  C     0.05660   0.53488   0.79126   0.00000  Uiso   1.00
C1540  C     0.02437   0.53467   0.83240   0.00000  Uiso   1.00
C1541  C     0.08479   0.98461   0.65694   0.00000  Uiso   1.00
C1542  C     0.07314   0.51592   0.61469   0.00000  Uiso   1.00
C1543  C     0.16751   0.60115   0.86883   0.00000  Uiso   1.00
C1544  C     0.13757   0.59196   0.91079   0.00000  Uiso   1.00
C1545  C     0.17369   0.88623   0.63214   0.00000  Uiso   1.00
C1546  C     0.15368   0.71118   0.94458   0.00000  Uiso   1.00
C1547  C     0.15260   0.86888   0.58255   0.00000  Uiso   1.00
C1548  C     0.26310   0.61767   0.67857   0.00000  Uiso   1.00
C1549  C     0.29302   0.63336   0.72692   0.00000  Uiso   1.00
C1550  C     0.01509   0.64345   0.72155   0.00000  Uiso   1.00
C1551  C     0.09055   0.87497   0.82287   0.00000  Uiso   1.00
C1552  C     0.05587   0.91463   0.82088   0.00000  Uiso   1.00
C1553  C     0.00242   0.90249   0.79715   0.00000  Uiso   1.00
C1554  C     0.26687   0.50704   0.71416   0.00000  Uiso   1.00
C1555  C     0.28860   0.97324   0.68316   0.00000  Uiso   1.00
C1556  C     0.23194   0.96526   0.85585   0.00000  Uiso   1.00
C1557  C     0.20473   0.76990   0.60860   0.00000  Uiso   1.00
C1558  C     0.24319   0.98311   0.90724   0.00000  Uiso   1.00
C1559  C     0.09461   0.65775   0.60988   0.00000  Uiso   1.00
C1560  C     0.04045   0.63959   0.59418   0.00000  Uiso   1.00
C1561  C     0.03529   0.61510   0.54585   0.00000  Uiso   1.00
C1562  C     0.25158   0.82833   0.89194   0.00000  Uiso   1.00
C1563  C     0.26608   0.86089   0.93376   0.00000  Uiso   1.00
C1564  C     0.31995   0.87914   0.93443   0.00000  Uiso   1.00
C1565  C     0.04167   0.74565   0.52319   0.00000  Uiso   1.00
C1566  C     0.32516   0.72732   0.99660   0.00000  Uiso   1.00
C1567  C     0.12703   0.84769   0.96294   0.00000  Uiso   1.00
C1568  C     0.15328   0.71274   0.89367   0.00000  Uiso   1.00
C1569  C     0.13397   0.89715   0.95792   0.00000  Uiso   1.00
C1570  C     0.12875   0.72731   0.60066   0.00000  Uiso   1.00
C1571  C     0.18021   0.78683   0.89879   0.00000  Uiso   1.00
C1572  C     0.12409   0.73066   0.54922   0.00000  Uiso   1.00
Cu1573 Cu    0.16667   0.74999   0.79822   0.00000  Uiso   1.00
Cu1574 Cu    0.16667   0.75000   0.70179   0.00000  Uiso   1.00
H1575  H     0.23625   0.78444   0.54295   0.00000  Uiso   1.00
H1576  H     0.30374   0.73746   0.86883   0.00000  Uiso   1.00
H1577  H     0.32433   0.78927   0.84293   0.00000  Uiso   1.00
H1578  H     0.07768   0.77416   0.87429   0.00000  Uiso   1.00
H1579  H     0.03792   0.77653   0.92119   0.00000  Uiso   1.00
H1580  H     0.05691   0.72355   0.90213   0.00000  Uiso   1.00
H1581  H     0.04214   0.50875   0.76505   0.00000  Uiso   1.00
H1582  H     0.05132   0.56710   0.77277   0.00000  Uiso   1.00
H1583  H     0.03639   0.56216   0.85770   0.00000  Uiso   1.00
H1584  H     0.31737   0.53916   0.81751   0.00000  Uiso   1.00
H1585  H     0.02794   0.50320   0.85245   0.00000  Uiso   1.00
H1586  H     0.14439   0.68064   0.96152   0.00000  Uiso   1.00
H1587  H     0.07357   0.50072   0.68960   0.00000  Uiso   1.00
H1588  H     0.06196   0.95380   0.64900   0.00000  Uiso   1.00
H1589  H     0.08259   0.50072   0.58090   0.00000  Uiso   1.00
H1590  H     0.03229   0.52383   0.60978   0.00000  Uiso   1.00
H1591  H     0.09590   0.54678   0.62203   0.00000  Uiso   1.00
H1592  H     0.19506   0.62860   0.87876   0.00000  Uiso   1.00
H1593  H     0.19066   0.57178   0.86437   0.00000  Uiso   1.00
H1594  H     0.16374   0.59143   0.94534   0.00000  Uiso   1.00
H1595  H     0.10897   0.61754   0.91298   0.00000  Uiso   1.00
H1596  H     0.11794   0.55946   0.90575   0.00000  Uiso   1.00
H1597  H     0.23539   0.78626   0.63135   0.00000  Uiso   1.00
H1598  H     0.20515   0.86512   0.64767   0.00000  Uiso   1.00
H1599  H     0.18869   0.92006   0.62726   0.00000  Uiso   1.00
H1600  H     0.12413   0.89186   0.56482   0.00000  Uiso   1.00
H1601  H     0.18399   0.86583   0.56038   0.00000  Uiso   1.00
H1602  H     0.13388   0.83627   0.58567   0.00000  Uiso   1.00
H1603  H     0.27115   0.64144   0.65014   0.00000  Uiso   1.00
H1604  H     0.27685   0.58598   0.66685   0.00000  Uiso   1.00
H1605  H     0.27580   0.66337   0.73916   0.00000  Uiso   1.00
H1606  H     0.29152   0.60776   0.75513   0.00000  Uiso   1.00
H1607  H     0.03296   0.61413   0.70823   0.00000  Uiso   1.00
H1608  H     0.13988   0.68455   0.87248   0.00000  Uiso   1.00
H1609  H     0.03621   0.65325   0.75716   0.00000  Uiso   1.00
H1610  H     0.01781   0.67070   0.69548   0.00000  Uiso   1.00
H1611  H     0.08101   0.85306   0.85214   0.00000  Uiso   1.00
H1612  H     0.08180   0.85508   0.78929   0.00000  Uiso   1.00
H1613  H     0.05500   0.92713   0.85816   0.00000  Uiso   1.00
H1614  H     0.07028   0.94133   0.79919   0.00000  Uiso   1.00
H1615  H     0.00280   0.89442   0.75837   0.00000  Uiso   1.00
H1616  H     0.31050   0.93058   0.79944   0.00000  Uiso   1.00
H1617  H     0.32080   0.87367   0.81528   0.00000  Uiso   1.00
H1618  H     0.25980   0.99050   0.74824   0.00000  Uiso   1.00
H1619  H     0.04321   0.80801   0.65099   0.00000  Uiso   1.00
H1620  H     0.29579   0.53347   0.72358   0.00000  Uiso   1.00
H1621  H     0.29552   0.98797   0.64812   0.00000  Uiso   1.00
H1622  H     0.32481   0.96118   0.70243   0.00000  Uiso   1.00
H1623  H     0.26181   0.94490   0.67629   0.00000  Uiso   1.00
H1624  H     0.25734   0.98265   0.83323   0.00000  Uiso   1.00
H1625  H     0.24051   0.92966   0.85684   0.00000  Uiso   1.00
H1626  H     0.21668   0.96803   0.93041   0.00000  Uiso   1.00
H1627  H     0.28266   0.97543   0.92258   0.00000  Uiso   1.00
H1628  H     0.23920   0.51921   0.90734   0.00000  Uiso   1.00
H1629  H     0.11067   0.63967   0.64279   0.00000  Uiso   1.00
H1630  H     0.04252   0.83317   0.70989   0.00000  Uiso   1.00
H1631  H     0.11981   0.65022   0.58209   0.00000  Uiso   1.00
H1632  H     0.02966   0.61644   0.62206   0.00000  Uiso   1.00
H1633  H     0.01285   0.66654   0.59137   0.00000  Uiso   1.00
H1634  H     0.04221   0.63764   0.51605   0.00000  Uiso   1.00
H1635  H     0.32967   0.60084   0.53758   0.00000  Uiso   1.00
H1636  H     0.06275   0.58814   0.54747   0.00000  Uiso   1.00
H1637  H     0.26695   0.84072   0.85944   0.00000  Uiso   1.00
H1638  H     0.26997   0.79664   0.90210   0.00000  Uiso   1.00
H1639  H     0.23947   0.88846   0.93077   0.00000  Uiso   1.00
H1640  H     0.26432   0.84397   0.96880   0.00000  Uiso   1.00
H1641  H     0.29001   0.86185   0.68121   0.00000  Uiso   1.00
H1642  H     0.01375   0.85198   0.93587   0.00000  Uiso   1.00
H1643  H     0.33020   0.90031   0.96683   0.00000  Uiso   1.00
H1644  H     0.32270   0.89922   0.90167   0.00000  Uiso   1.00
H1645  H     0.05127   0.77705   0.50583   0.00000  Uiso   1.00
H1646  H     0.03552   0.75267   0.56119   0.00000  Uiso   1.00
H1647  H     0.30959   0.70101   0.51826   0.00000  Uiso   1.00
H1648  H     0.29711   0.75383   0.99064   0.00000  Uiso   1.00
H1649  H     0.33083   0.71343   0.96104   0.00000  Uiso   1.00
H1650  H     0.10550   0.84068   0.99360   0.00000  Uiso   1.00
H1651  H     0.10323   0.83568   0.92956   0.00000  Uiso   1.00
H1652  H     0.00591   0.88264   0.64810   0.00000  Uiso   1.00
H1653  H     0.15041   0.90481   0.92431   0.00000  Uiso   1.00
H1654  H     0.09672   0.91313   0.95597   0.00000  Uiso   1.00
H1655  H     0.15973   0.91084   0.98916   0.00000  Uiso   1.00
H1656  H     0.29529   0.84108   0.62101   0.00000  Uiso   1.00
N1657  N     0.16667   0.75001   0.62935   0.00000  Uiso   1.00
N1658  N     0.16667   0.74999   0.87066   0.00000  Uiso   1.00
O1659  O     0.16667   0.68572   0.79072   0.00000  Uiso   1.00
O1660  O     0.01144   0.73031   0.81160   0.00000  Uiso   1.00
O1661  O     0.10760   0.52640   0.80965   0.00000  Uiso   1.00
O1662  O     0.13694   0.97566   0.66280   0.00000  Uiso   1.00
O1663  O     0.13397   0.61305   0.82693   0.00000  Uiso   1.00
O1664  O     0.13460   0.88488   0.66156   0.00000  Uiso   1.00
O1665  O     0.20975   0.61654   0.67797   0.00000  Uiso   1.00
O1666  O     0.14279   0.88739   0.83284   0.00000  Uiso   1.00
O1667  O     0.22261   0.52456   0.68790   0.00000  Uiso   1.00
O1668  O     0.18081   0.97257   0.83752   0.00000  Uiso   1.00
O1669  O     0.09328   0.70294   0.62218   0.00000  Uiso   1.00
O1670  O     0.16666   0.81427   0.70929   0.00000  Uiso   1.00
O1671  O     0.19840   0.82434   0.87891   0.00000  Uiso   1.00
O1672  O     0.08062   0.71519   0.52089   0.00000  Uiso   1.00
O1673  O     0.17501   0.82800   0.97215   0.00000  Uiso   1.00
O1674  O     0.16667   0.68573   0.70928   0.00000  Uiso   1.00
O1675  O     0.16666   0.81427   0.79072   0.00000  Uiso   1.00
O1676  O     0.09161   0.74999   0.78132   0.00000  Uiso   1.00
O1677  O     0.24172   0.75000   0.71868   0.00000  Uiso   1.00
O1678  O     0.09161   0.75000   0.69989   0.00000  Uiso   1.00
O1679  O     0.24172   0.75000   0.80012   0.00000  Uiso   1.00
O1680  O     0.32313   0.78078   0.69096   0.00000  Uiso   1.00
C1681  C     0.50117   0.66491   0.75025   0.00000  Uiso   1.00
C1682  C     0.50654   0.78813   0.94833   0.00000  Uiso   1.00
C1683  C     0.49751   0.74931   0.52726   0.00000  Uiso   1.00
C1684  C     0.49699   0.74937   0.97286   0.00000  Uiso   1.00
C1685  C     0.40158   0.75196   0.73786   0.00000  Uiso   1.00
C1686  C     0.59861   0.75092   0.76227   0.00000  Uiso   1.00
C1687  C     0.34707   0.75991   0.73228   0.00000  Uiso   1.00
C1688  C     0.65379   0.74841   0.76891   0.00000  Uiso   1.00
C1689  C     0.47294   0.54756   0.78124   0.00000  Uiso   1.00
C1690  C     0.48246   0.95282   0.70552   0.00000  Uiso   1.00
C1691  C     0.48191   0.59264   0.78694   0.00000  Uiso   1.00
C1692  C     0.49690   0.83493   0.74943   0.00000  Uiso   1.00
C1693  C     0.48395   0.90674   0.70444   0.00000  Uiso   1.00
C1694  C     0.50332   0.61644   0.75106   0.00000  Uiso   1.00
C1695  C     0.49150   0.88320   0.74841   0.00000  Uiso   1.00
C1696  C     0.52726   0.59346   0.71657   0.00000  Uiso   1.00
C1697  C     0.49187   0.90651   0.79206   0.00000  Uiso   1.00
C1698  C     0.52959   0.54713   0.71928   0.00000  Uiso   1.00
C1699  C     0.50316   0.95149   0.79325   0.00000  Uiso   1.00
C1700  C     0.49998   0.52402   0.75028   0.00000  Uiso   1.00
C1701  C     0.49603   0.97544   0.74964   0.00000  Uiso   1.00
C1702  C     0.35191   0.81778   0.67818   0.00000  Uiso   1.00
C1703  C     0.53815   0.76905   0.55801   0.00000  Uiso   1.00
C1704  C     0.65003   0.85293   0.65565   0.00000  Uiso   1.00
C1705  C     0.33429   0.75467   0.85214   0.00000  Uiso   1.00
C1706  C     0.38001   0.75714   0.88993   0.00000  Uiso   1.00
C1707  C     0.38994   0.53488   0.79126   0.00000  Uiso   1.00
C1708  C     0.35770   0.53467   0.83240   0.00000  Uiso   1.00
C1709  C     0.41812   0.98461   0.65694   0.00000  Uiso   1.00
C1710  C     0.40647   0.51592   0.61469   0.00000  Uiso   1.00
C1711  C     0.50085   0.60115   0.86883   0.00000  Uiso   1.00
C1712  C     0.47090   0.59196   0.91079   0.00000  Uiso   1.00
C1713  C     0.50703   0.88623   0.63214   0.00000  Uiso   1.00
C1714  C     0.48701   0.71118   0.94458   0.00000  Uiso   1.00
C1715  C     0.48594   0.86888   0.58255   0.00000  Uiso   1.00
C1716  C     0.59643   0.61767   0.67857   0.00000  Uiso   1.00
C1717  C     0.62636   0.63336   0.72692   0.00000  Uiso   1.00
C1718  C     0.34843   0.64345   0.72155   0.00000  Uiso   1.00
C1719  C     0.42389   0.87497   0.82287   0.00000  Uiso   1.00
C1720  C     0.38920   0.91463   0.82088   0.00000  Uiso   1.00
C1721  C     0.33575   0.90249   0.79715   0.00000  Uiso   1.00
C1722  C     0.60020   0.50704   0.71416   0.00000  Uiso   1.00
C1723  C     0.62193   0.97324   0.68316   0.00000  Uiso   1.00
C1724  C     0.56527   0.96526   0.85585   0.00000  Uiso   1.00
C1725  C     0.53806   0.76990   0.60860   0.00000  Uiso   1.00
C1726  C     0.57652   0.98311   0.90724   0.00000  Uiso   1.00
C1727  C     0.42795   0.65775   0.60988   0.00000  Uiso   1.00
C1728  C     0.37378   0.63959   0.59418   0.00000  Uiso   1.00
C1729  C     0.36863   0.61510   0.54585   0.00000  Uiso   1.00
C1730  C     0.58491   0.82833   0.89194   0.00000  Uiso   1.00
C1731  C     0.59941   0.86089   0.93376   0.00000  Uiso   1.00
C1732  C     0.65328   0.87914   0.93443   0.00000  Uiso   1.00
C1733  C     0.37500   0.74565   0.52319   0.00000  Uiso   1.00
C1734  C     0.65850   0.72732   0.99660   0.00000  Uiso   1.00
C1735  C     0.46036   0.84769   0.96294   0.00000  Uiso   1.00
C1736  C     0.48661   0.71274   0.89367   0.00000  Uiso   1.00
C1737  C     0.46730   0.89715   0.95792   0.00000  Uiso   1.00
C1738  C     0.46209   0.72731   0.60066   0.00000  Uiso   1.00
C1739  C     0.51354   0.78683   0.89879   0.00000  Uiso   1.00
C1740  C     0.45742   0.73066   0.54922   0.00000  Uiso   1.00
Cu1741 Cu    0.50000   0.74999   0.79822   0.00000  Uiso   1.00
Cu1742 Cu    0.50000   0.75000   0.70179   0.00000  Uiso   1.00
H1743  H     0.56958   0.78444   0.54295   0.00000  Uiso   1.00
H1744  H     0.63707   0.73746   0.86883   0.00000  Uiso   1.00
H1745  H     0.65766   0.78927   0.84293   0.00000  Uiso   1.00
H1746  H     0.41101   0.77416   0.87429   0.00000  Uiso   1.00
H1747  H     0.37126   0.77653   0.92119   0.00000  Uiso   1.00
H1748  H     0.39025   0.72355   0.90213   0.00000  Uiso   1.00
H1749  H     0.37547   0.50875   0.76505   0.00000  Uiso   1.00
H1750  H     0.38465   0.56710   0.77277   0.00000  Uiso   1.00
H1751  H     0.36972   0.56216   0.85770   0.00000  Uiso   1.00
H1752  H     0.65070   0.53916   0.81751   0.00000  Uiso   1.00
H1753  H     0.36127   0.50320   0.85245   0.00000  Uiso   1.00
H1754  H     0.47772   0.68064   0.96152   0.00000  Uiso   1.00
H1755  H     0.40690   0.50072   0.68960   0.00000  Uiso   1.00
H1756  H     0.39529   0.95380   0.64900   0.00000  Uiso   1.00
H1757  H     0.41592   0.50072   0.58090   0.00000  Uiso   1.00
H1758  H     0.36562   0.52383   0.60978   0.00000  Uiso   1.00
H1759  H     0.42923   0.54678   0.62203   0.00000  Uiso   1.00
H1760  H     0.52839   0.62860   0.87876   0.00000  Uiso   1.00
H1761  H     0.52400   0.57178   0.86437   0.00000  Uiso   1.00
H1762  H     0.49707   0.59143   0.94534   0.00000  Uiso   1.00
H1763  H     0.44230   0.61754   0.91298   0.00000  Uiso   1.00
H1764  H     0.45127   0.55946   0.90575   0.00000  Uiso   1.00
H1765  H     0.56872   0.78626   0.63135   0.00000  Uiso   1.00
H1766  H     0.53849   0.86512   0.64767   0.00000  Uiso   1.00
H1767  H     0.52202   0.92006   0.62726   0.00000  Uiso   1.00
H1768  H     0.45746   0.89186   0.56482   0.00000  Uiso   1.00
H1769  H     0.51733   0.86583   0.56038   0.00000  Uiso   1.00
H1770  H     0.46721   0.83627   0.58567   0.00000  Uiso   1.00
H1771  H     0.60449   0.64144   0.65014   0.00000  Uiso   1.00
H1772  H     0.61019   0.58598   0.66685   0.00000  Uiso   1.00
H1773  H     0.60913   0.66337   0.73916   0.00000  Uiso   1.00
H1774  H     0.62486   0.60776   0.75513   0.00000  Uiso   1.00
H1775  H     0.36629   0.61413   0.70823   0.00000  Uiso   1.00
H1776  H     0.47321   0.68455   0.87248   0.00000  Uiso   1.00
H1777  H     0.36954   0.65325   0.75716   0.00000  Uiso   1.00
H1778  H     0.35114   0.67070   0.69548   0.00000  Uiso   1.00
H1779  H     0.41435   0.85306   0.85214   0.00000  Uiso   1.00
H1780  H     0.41513   0.85508   0.78929   0.00000  Uiso   1.00
H1781  H     0.38833   0.92713   0.85816   0.00000  Uiso   1.00
H1782  H     0.40362   0.94133   0.79919   0.00000  Uiso   1.00
H1783  H     0.33613   0.89442   0.75837   0.00000  Uiso   1.00
H1784  H     0.64384   0.93058   0.79944   0.00000  Uiso   1.00
H1785  H     0.65413   0.87367   0.81528   0.00000  Uiso   1.00
H1786  H     0.59313   0.99050   0.74824   0.00000  Uiso   1.00
H1787  H     0.37655   0.80801   0.65099   0.00000  Uiso   1.00
H1788  H     0.62912   0.53347   0.72358   0.00000  Uiso   1.00
H1789  H     0.62885   0.98797   0.64812   0.00000  Uiso   1.00
H1790  H     0.65814   0.96118   0.70243   0.00000  Uiso   1.00
H1791  H     0.59514   0.94490   0.67629   0.00000  Uiso   1.00
H1792  H     0.59067   0.98265   0.83323   0.00000  Uiso   1.00
H1793  H     0.57384   0.92966   0.85684   0.00000  Uiso   1.00
H1794  H     0.55002   0.96803   0.93041   0.00000  Uiso   1.00
H1795  H     0.61599   0.97543   0.92258   0.00000  Uiso   1.00
H1796  H     0.57253   0.51921   0.90734   0.00000  Uiso   1.00
H1797  H     0.44400   0.63967   0.64279   0.00000  Uiso   1.00
H1798  H     0.37585   0.83317   0.70989   0.00000  Uiso   1.00
H1799  H     0.45315   0.65022   0.58209   0.00000  Uiso   1.00
H1800  H     0.36300   0.61644   0.62206   0.00000  Uiso   1.00
H1801  H     0.34618   0.66654   0.59137   0.00000  Uiso   1.00
H1802  H     0.37554   0.63764   0.51605   0.00000  Uiso   1.00
H1803  H     0.66301   0.60084   0.53758   0.00000  Uiso   1.00
H1804  H     0.39609   0.58814   0.54747   0.00000  Uiso   1.00
H1805  H     0.60028   0.84072   0.85944   0.00000  Uiso   1.00
H1806  H     0.60330   0.79664   0.90210   0.00000  Uiso   1.00
H1807  H     0.57280   0.88846   0.93077   0.00000  Uiso   1.00
H1808  H     0.59765   0.84397   0.96880   0.00000  Uiso   1.00
H1809  H     0.62334   0.86185   0.68121   0.00000  Uiso   1.00
H1810  H     0.34708   0.85198   0.93587   0.00000  Uiso   1.00
H1811  H     0.66353   0.90031   0.96683   0.00000  Uiso   1.00
H1812  H     0.65604   0.89922   0.90167   0.00000  Uiso   1.00
H1813  H     0.38460   0.77705   0.50583   0.00000  Uiso   1.00
H1814  H     0.36885   0.75267   0.56119   0.00000  Uiso   1.00
H1815  H     0.64292   0.70101   0.51826   0.00000  Uiso   1.00
H1816  H     0.63044   0.75383   0.99064   0.00000  Uiso   1.00
H1817  H     0.66416   0.71343   0.96104   0.00000  Uiso   1.00
H1818  H     0.43884   0.84068   0.99360   0.00000  Uiso   1.00
H1819  H     0.43656   0.83568   0.92956   0.00000  Uiso   1.00
H1820  H     0.33925   0.88264   0.64810   0.00000  Uiso   1.00
H1821  H     0.48374   0.90481   0.92431   0.00000  Uiso   1.00
H1822  H     0.43005   0.91313   0.95597   0.00000  Uiso   1.00
H1823  H     0.49306   0.91084   0.98916   0.00000  Uiso   1.00
H1824  H     0.62863   0.84108   0.62101   0.00000  Uiso   1.00
N1825  N     0.50000   0.75001   0.62935   0.00000  Uiso   1.00
N1826  N     0.50000   0.74999   0.87066   0.00000  Uiso   1.00
O1827  O     0.50000   0.68572   0.79072   0.00000  Uiso   1.00
O1828  O     0.34477   0.73031   0.81160   0.00000  Uiso   1.00
O1829  O     0.44093   0.52640   0.80965   0.00000  Uiso   1.00
O1830  O     0.47027   0.97566   0.66280   0.00000  Uiso   1.00
O1831  O     0.46730   0.61305   0.82693   0.00000  Uiso   1.00
O1832  O     0.46793   0.88488   0.66156   0.00000  Uiso   1.00
O1833  O     0.54308   0.61654   0.67797   0.00000  Uiso   1.00
O1834  O     0.47613   0.88739   0.83284   0.00000  Uiso   1.00
O1835  O     0.55594   0.52456   0.68790   0.00000  Uiso   1.00
O1836  O     0.51415   0.97257   0.83752   0.00000  Uiso   1.00
O1837  O     0.42662   0.70294   0.62218   0.00000  Uiso   1.00
O1838  O     0.50000   0.81427   0.70929   0.00000  Uiso   1.00
O1839  O     0.53174   0.82434   0.87891   0.00000  Uiso   1.00
O1840  O     0.41395   0.71519   0.52089   0.00000  Uiso   1.00
O1841  O     0.50834   0.82800   0.97215   0.00000  Uiso   1.00
O1842  O     0.50000   0.68573   0.70928   0.00000  Uiso   1.00
O1843  O     0.50000   0.81427   0.79072   0.00000  Uiso   1.00
O1844  O     0.42495   0.74999   0.78132   0.00000  Uiso   1.00
O1845  O     0.57505   0.75000   0.71868   0.00000  Uiso   1.00
O1846  O     0.42495   0.75000   0.69989   0.00000  Uiso   1.00
O1847  O     0.57505   0.75000   0.80012   0.00000  Uiso   1.00
O1848  O     0.65646   0.78078   0.69096   0.00000  Uiso   1.00
C1849  C     0.83450   0.66491   0.75025   0.00000  Uiso   1.00
C1850  C     0.83987   0.78813   0.94833   0.00000  Uiso   1.00
C1851  C     0.83085   0.74931   0.52726   0.00000  Uiso   1.00
C1852  C     0.83032   0.74937   0.97286   0.00000  Uiso   1.00
C1853  C     0.73491   0.75196   0.73786   0.00000  Uiso   1.00
C1854  C     0.93194   0.75092   0.76227   0.00000  Uiso   1.00
C1855  C     0.68040   0.75991   0.73228   0.00000  Uiso   1.00
C1856  C     0.98712   0.74841   0.76891   0.00000  Uiso   1.00
C1857  C     0.80627   0.54756   0.78124   0.00000  Uiso   1.00
C1858  C     0.81579   0.95282   0.70552   0.00000  Uiso   1.00
C1859  C     0.81525   0.59264   0.78694   0.00000  Uiso   1.00
C1860  C     0.83023   0.83493   0.74943   0.00000  Uiso   1.00
C1861  C     0.81728   0.90674   0.70444   0.00000  Uiso   1.00
C1862  C     0.83666   0.61644   0.75106   0.00000  Uiso   1.00
C1863  C     0.82484   0.88320   0.74841   0.00000  Uiso   1.00
C1864  C     0.86059   0.59346   0.71657   0.00000  Uiso   1.00
C1865  C     0.82520   0.90651   0.79206   0.00000  Uiso   1.00
C1866  C     0.86292   0.54713   0.71928   0.00000  Uiso   1.00
C1867  C     0.83650   0.95149   0.79325   0.00000  Uiso   1.00
C1868  C     0.83331   0.52402   0.75028   0.00000  Uiso   1.00
C1869  C     0.82937   0.97544   0.74964   0.00000  Uiso   1.00
C1870  C     0.68524   0.81778   0.67818   0.00000  Uiso   1.00
C1871  C     0.87148   0.76905   0.55801   0.00000  Uiso   1.00
C1872  C     0.98336   0.85293   0.65565   0.00000  Uiso   1.00
C1873  C     0.66762   0.75467   0.85214   0.00000  Uiso   1.00
C1874  C     0.71334   0.75714   0.88993   0.00000  Uiso   1.00
C1875  C     0.72327   0.53488   0.79126   0.00000  Uiso   1.00
C1876  C     0.69103   0.53467   0.83240   0.00000  Uiso   1.00
C1877  C     0.75146   0.98461   0.65694   0.00000  Uiso   1.00
C1878  C     0.73981   0.51592   0.61469   0.00000  Uiso   1.00
C1879  C     0.83418   0.60115   0.86883   0.00000  Uiso   1.00
C1880  C     0.80424   0.59196   0.91079   0.00000  Uiso   1.00
C1881  C     0.84036   0.88623   0.63214   0.00000  Uiso   1.00
C1882  C     0.82035   0.71118   0.94458   0.00000  Uiso   1.00
C1883  C     0.81927   0.86888   0.58255   0.00000  Uiso   1.00
C1884  C     0.92977   0.61767   0.67857   0.00000  Uiso   1.00
C1885  C     0.95969   0.63336   0.72692   0.00000  Uiso   1.00
C1886  C     0.68176   0.64345   0.72155   0.00000  Uiso   1.00
C1887  C     0.75722   0.87497   0.82287   0.00000  Uiso   1.00
C1888  C     0.72253   0.91463   0.82088   0.00000  Uiso   1.00
C1889  C     0.66909   0.90249   0.79715   0.00000  Uiso   1.00
C1890  C     0.93353   0.50704   0.71416   0.00000  Uiso   1.00
C1891  C     0.95527   0.97324   0.68316   0.00000  Uiso   1.00
C1892  C     0.89860   0.96526   0.85585   0.00000  Uiso   1.00
C1893  C     0.87139   0.76990   0.60860   0.00000  Uiso   1.00
C1894  C     0.90985   0.98311   0.90724   0.00000  Uiso   1.00
C1895  C     0.76128   0.65775   0.60988   0.00000  Uiso   1.00
C1896  C     0.70711   0.63959   0.59418   0.00000  Uiso   1.00
C1897  C     0.70196   0.61510   0.54585   0.00000  Uiso   1.00
C1898  C     0.91824   0.82833   0.89194   0.00000  Uiso   1.00
C1899  C     0.93274   0.86089   0.93376   0.00000  Uiso   1.00
C1900  C     0.98661   0.87914   0.93443   0.00000  Uiso   1.00
C1901  C     0.70834   0.74565   0.52319   0.00000  Uiso   1.00
C1902  C     0.99183   0.72732   0.99660   0.00000  Uiso   1.00
C1903  C     0.79370   0.84769   0.96294   0.00000  Uiso   1.00
C1904  C     0.81995   0.71274   0.89367   0.00000  Uiso   1.00
C1905  C     0.80064   0.89715   0.95792   0.00000  Uiso   1.00
C1906  C     0.79542   0.72731   0.60066   0.00000  Uiso   1.00
C1907  C     0.84688   0.78683   0.89879   0.00000  Uiso   1.00
C1908  C     0.79076   0.73066   0.54922   0.00000  Uiso   1.00
Cu1909 Cu    0.83333   0.74999   0.79822   0.00000  Uiso   1.00
Cu1910 Cu    0.83333   0.75000   0.70179   0.00000  Uiso   1.00
H1911  H     0.90291   0.78444   0.54295   0.00000  Uiso   1.00
H1912  H     0.97040   0.73746   0.86883   0.00000  Uiso   1.00
H1913  H     0.99099   0.78927   0.84293   0.00000  Uiso   1.00
H1914  H     0.74434   0.77416   0.87429   0.00000  Uiso   1.00
H1915  H     0.70459   0.77653   0.92119   0.00000  Uiso   1.00
H1916  H     0.72358   0.72355   0.90213   0.00000  Uiso   1.00
H1917  H     0.70881   0.50875   0.76505   0.00000  Uiso   1.00
H1918  H     0.71798   0.56710   0.77277   0.00000  Uiso   1.00
H1919  H     0.70305   0.56216   0.85770   0.00000  Uiso   1.00
H1920  H     0.98404   0.53916   0.81751   0.00000  Uiso   1.00
H1921  H     0.69460   0.50320   0.85245   0.00000  Uiso   1.00
H1922  H     0.81106   0.68064   0.96152   0.00000  Uiso   1.00
H1923  H     0.74024   0.50072   0.68960   0.00000  Uiso   1.00
H1924  H     0.72863   0.95380   0.64900   0.00000  Uiso   1.00
H1925  H     0.74925   0.50072   0.58090   0.00000  Uiso   1.00
H1926  H     0.69895   0.52383   0.60978   0.00000  Uiso   1.00
H1927  H     0.76256   0.54678   0.62203   0.00000  Uiso   1.00
H1928  H     0.86172   0.62860   0.87876   0.00000  Uiso   1.00
H1929  H     0.85733   0.57178   0.86437   0.00000  Uiso   1.00
H1930  H     0.83040   0.59143   0.94534   0.00000  Uiso   1.00
H1931  H     0.77564   0.61754   0.91298   0.00000  Uiso   1.00
H1932  H     0.78460   0.55946   0.90575   0.00000  Uiso   1.00
H1933  H     0.90205   0.78626   0.63135   0.00000  Uiso   1.00
H1934  H     0.87182   0.86512   0.64767   0.00000  Uiso   1.00
H1935  H     0.85536   0.92006   0.62726   0.00000  Uiso   1.00
H1936  H     0.79079   0.89186   0.56482   0.00000  Uiso   1.00
H1937  H     0.85066   0.86583   0.56038   0.00000  Uiso   1.00
H1938  H     0.80055   0.83627   0.58567   0.00000  Uiso   1.00
H1939  H     0.93782   0.64144   0.65014   0.00000  Uiso   1.00
H1940  H     0.94352   0.58598   0.66685   0.00000  Uiso   1.00
H1941  H     0.94247   0.66337   0.73916   0.00000  Uiso   1.00
H1942  H     0.95819   0.60776   0.75513   0.00000  Uiso   1.00
H1943  H     0.69962   0.61413   0.70823   0.00000  Uiso   1.00
H1944  H     0.80654   0.68455   0.87248   0.00000  Uiso   1.00
H1945  H     0.70288   0.65325   0.75716   0.00000  Uiso   1.00
H1946  H     0.68448   0.67070   0.69548   0.00000  Uiso   1.00
H1947  H     0.74768   0.85306   0.85214   0.00000  Uiso   1.00
H1948  H     0.74847   0.85508   0.78929   0.00000  Uiso   1.00
H1949  H     0.72166   0.92713   0.85816   0.00000  Uiso   1.00
H1950  H     0.73695   0.94133   0.79919   0.00000  Uiso   1.00
H1951  H     0.66946   0.89442   0.75837   0.00000  Uiso   1.00
H1952  H     0.97717   0.93058   0.79944   0.00000  Uiso   1.00
H1953  H     0.98747   0.87367   0.81528   0.00000  Uiso   1.00
H1954  H     0.92647   0.99050   0.74824   0.00000  Uiso   1.00
H1955  H     0.70988   0.80801   0.65099   0.00000  Uiso   1.00
H1956  H     0.96246   0.53347   0.72358   0.00000  Uiso   1.00
H1957  H     0.96219   0.98797   0.64812   0.00000  Uiso   1.00
H1958  H     0.99147   0.96118   0.70243   0.00000  Uiso   1.00
H1959  H     0.92848   0.94490   0.67629   0.00000  Uiso   1.00
H1960  H     0.92400   0.98265   0.83323   0.00000  Uiso   1.00
H1961  H     0.90717   0.92966   0.85684   0.00000  Uiso   1.00
H1962  H     0.88335   0.96803   0.93041   0.00000  Uiso   1.00
H1963  H     0.94932   0.97543   0.92258   0.00000  Uiso   1.00
H1964  H     0.90587   0.51921   0.90734   0.00000  Uiso   1.00
H1965  H     0.77733   0.63967   0.64279   0.00000  Uiso   1.00
H1966  H     0.70919   0.83317   0.70989   0.00000  Uiso   1.00
H1967  H     0.78648   0.65022   0.58209   0.00000  Uiso   1.00
H1968  H     0.69633   0.61644   0.62206   0.00000  Uiso   1.00
H1969  H     0.67952   0.66654   0.59137   0.00000  Uiso   1.00
H1970  H     0.70887   0.63764   0.51605   0.00000  Uiso   1.00
H1971  H     0.99634   0.60084   0.53758   0.00000  Uiso   1.00
H1972  H     0.72942   0.58814   0.54747   0.00000  Uiso   1.00
H1973  H     0.93362   0.84072   0.85944   0.00000  Uiso   1.00
H1974  H     0.93664   0.79664   0.90210   0.00000  Uiso   1.00
H1975  H     0.90613   0.88846   0.93077   0.00000  Uiso   1.00
H1976  H     0.93099   0.84397   0.96880   0.00000  Uiso   1.00
H1977  H     0.95668   0.86185   0.68121   0.00000  Uiso   1.00
H1978  H     0.68042   0.85198   0.93587   0.00000  Uiso   1.00
H1979  H     0.99687   0.90031   0.96683   0.00000  Uiso   1.00
H1980  H     0.98937   0.89922   0.90167   0.00000  Uiso   1.00
H1981  H     0.71793   0.77705   0.50583   0.00000  Uiso   1.00
H1982  H     0.70219   0.75267   0.56119   0.00000  Uiso   1.00
H1983  H     0.97625   0.70101   0.51826   0.00000  Uiso   1.00
H1984  H     0.96377   0.75383   0.99064   0.00000  Uiso   1.00
H1985  H     0.99749   0.71343   0.96104   0.00000  Uiso   1.00
H1986  H     0.77217   0.84068   0.99360   0.00000  Uiso   1.00
H1987  H     0.76990   0.83568   0.92956   0.00000  Uiso   1.00
H1988  H     0.67258   0.88264   0.64810   0.00000  Uiso   1.00
H1989  H     0.81708   0.90481   0.92431   0.00000  Uiso   1.00
H1990  H     0.76338   0.91313   0.95597   0.00000  Uiso   1.00
H1991  H     0.82640   0.91084   0.98916   0.00000  Uiso   1.00
H1992  H     0.96196   0.84108   0.62101   0.00000  Uiso   1.00
N1993  N     0.83333   0.75001   0.62935   0.00000  Uiso   1.00
N1994  N     0.83333   0.74999   0.87066   0.00000  Uiso   1.00
O1995  O     0.83334   0.68572   0.79072   0.00000  Uiso   1.00
O1996  O     0.67810   0.73031   0.81160   0.00000  Uiso   1.00
O1997  O     0.77427   0.52640   0.80965   0.00000  Uiso   1.00
O1998  O     0.80361   0.97566   0.66280   0.00000  Uiso   1.00
O1999  O     0.80063   0.61305   0.82693   0.00000  Uiso   1.00
O2000  O     0.80127   0.88488   0.66156   0.00000  Uiso   1.00
O2001  O     0.87642   0.61654   0.67797   0.00000  Uiso   1.00
O2002  O     0.80946   0.88739   0.83284   0.00000  Uiso   1.00
O2003  O     0.88927   0.52456   0.68790   0.00000  Uiso   1.00
O2004  O     0.84748   0.97257   0.83752   0.00000  Uiso   1.00
O2005  O     0.75995   0.70294   0.62218   0.00000  Uiso   1.00
O2006  O     0.83333   0.81427   0.70929   0.00000  Uiso   1.00
O2007  O     0.86507   0.82434   0.87891   0.00000  Uiso   1.00
O2008  O     0.74729   0.71519   0.52089   0.00000  Uiso   1.00
O2009  O     0.84167   0.82800   0.97215   0.00000  Uiso   1.00
O2010  O     0.83334   0.68573   0.70928   0.00000  Uiso   1.00
O2011  O     0.83333   0.81427   0.79072   0.00000  Uiso   1.00
O2012  O     0.75828   0.74999   0.78132   0.00000  Uiso   1.00
O2013  O     0.90839   0.75000   0.71868   0.00000  Uiso   1.00
O2014  O     0.75828   0.75000   0.69989   0.00000  Uiso   1.00
O2015  O     0.90839   0.75000   0.80012   0.00000  Uiso   1.00
O2016  O     0.98979   0.78078   0.69096   0.00000  Uiso   1.00
loop_
_geom_bond_atom_site_label_1
_geom_bond_atom_site_label_2
_geom_bond_distance
_geom_bond_site_symmetry_2
_ccdc_geom_bond_type
C1     O147    1.299   .     A
C1     O162    1.302   .     A
C1     C14     1.480   .     S
C2     O161    1.382   .     S
C2     C59     1.418   .     A
C2     C4      1.399   .     A
C3     C23     1.410   .     A
C3     C60     1.408   .     A
C3     C1012   1.513   1_554 S
C4     C34     1.406   .     A
C4     C1011   1.513   .     S
C5     O164    1.287   .     A
C5     C7      1.465   .     S
C5     O166    1.299   .     A
C6     O165    1.290   .     A
C6     C8      1.460   .     S
C6     O167    1.297   .     A
C7     C344    1.359   1_455 S
C7     O504    1.399   1_455 S
C8     C175    1.359   .     S
C8     O316    1.395   .     S
C9     O149    1.386   .     S
C9     C20     1.403   .     A
C9     C11     1.395   .     A
C10    C21     1.410   .     A
C10    C13     1.407   .     A
C10    O150    1.383   .     S
C11    C14     1.408   .     A
C11    O151    1.382   .     S
C12    C15     1.482   .     S
C12    O163    1.304   .     A
C12    O158    1.297   .     A
C13    C15     1.412   .     A
C13    O152    1.380   .     S
C14    C16     1.416   .     A
C15    C17     1.408   .     A
C16    C18     1.416   .     A
C16    O153    1.391   .     S
C17    O154    1.386   .     S
C17    C19     1.396   .     A
C18    C20     1.421   .     A
C18    O155    1.385   .     S
C19    C21     1.410   .     A
C19    O156    1.384   .     S
C20    C525    1.482   1_545 S
C21    C524    1.482   .     S
C22    H107    1.111   .     S
C22    H118    1.115   .     S
C22    C360    1.519   1_455 S
C22    O504    1.421   1_455 S
C23    C45     1.410   .     A
C23    H63     1.082   .     S
C24    H129    1.109   .     S
C24    H144    1.109   .     S
C24    C190    1.519   .     S
C24    H308    1.110   .     S
C25    C26     1.500   .     S
C25    O148    1.414   .     S
C25    H400    1.111   1_455 S
C25    H401    1.115   1_455 S
C26    H67     1.106   .     S
C26    H66     1.103   .     S
C26    H68     1.107   .     S
C27    H69     1.108   .     S
C27    O149    1.415   .     S
C27    H70     1.112   .     S
C27    C28     1.521   .     S
C28    H73     1.109   .     S
C28    H71     1.109   .     S
C28    H408    1.110   1_455 S
C29    H76     1.113   .     S
C29    O150    1.409   .     S
C29    C534    1.518   .     S
C29    H579    1.113   .     S
C30    H77     1.111   .     S
C30    H79     1.111   .     S
C30    H78     1.110   .     S
C30    C533    1.518   1_545 S
C31    C32     1.523   .     S
C31    H80     1.110   .     S
C31    O151    1.423   .     S
C31    H81     1.115   .     S
C32    H84     1.109   .     S
C32    H83     1.110   .     S
C32    H82     1.110   .     S
C33    H87     1.112   .     S
C33    C35     1.511   .     S
C33    O152    1.408   .     S
C33    H86     1.109   .     S
C34    C56     1.418   .     A
C34    H74     1.082   .     S
C35    H90     1.110   .     S
C35    H88     1.111   .     S
C35    H89     1.109   .     S
C36    C37     1.541   .     S
C36    H92     1.106   .     S
C36    O153    1.418   .     S
C36    H91     1.111   .     S
C37    H93     1.107   .     S
C37    H94     1.111   .     S
C37    C206    1.527   .     S
C38    H98     1.110   .     S
C38    H95     1.109   .     S
C38    H97     1.110   .     S
C38    C373    1.527   1_455 S
C39    O154    1.424   .     S
C39    C40     1.535   .     S
C39    H100    1.111   .     S
C39    H99     1.105   .     S
C40    H101    1.110   .     S
C40    C41     1.524   .     S
C40    H102    1.105   .     S
C41    H103    1.110   .     S
C41    H440    1.108   1_455 S
C41    H441    1.105   1_455 S
C42    O155    1.416   .     S
C42    H108    1.108   .     S
C42    C547    1.519   1_545 S
C42    H610    1.110   1_545 S
C43    H110    1.109   .     S
C43    H111    1.108   .     S
C43    H109    1.110   .     S
C43    C546    1.519   .     S
C44    C46     1.521   .     S
C44    O156    1.411   .     S
C44    H112    1.110   .     S
C44    H113    1.114   .     S
C45    N145    1.362   .     A
C45    H85     1.077   .     S
C46    H115    1.110   .     S
C46    H114    1.110   .     S
C46    H620    1.108   .     S
C47    C48     1.540   .     S
C47    O157    1.422   .     S
C47    H119    1.117   .     S
C47    H117    1.110   .     S
C48    H120    1.110   .     S
C48    H121    1.111   .     S
C48    C49     1.529   .     S
C49    H124    1.109   .     S
C49    H122    1.108   .     S
C49    H459    1.110   1_455 S
C50    H126    1.112   .     S
C50    C51     1.535   .     S
C50    H125    1.105   .     S
C50    O159    1.416   .     S
C51    C52     1.524   .     S
C51    H128    1.110   .     S
C51    H127    1.108   .     S
C52    H132    1.108   .     S
C52    H131    1.110   .     S
C52    H298    1.109   .     S
C53    H133    1.112   .     S
C53    O160    1.416   .     S
C53    H134    1.114   .     S
C53    C1398   1.525   1_454 S
C54    H137    1.108   .     S
C54    H136    1.110   .     S
C54    C1229   1.525   .     S
C54    H1143   1.109   .     S
C55    H138    1.108   .     S
C55    H139    1.110   .     S
C55    O161    1.416   .     S
C55    C57     1.523   .     S
C56    H96     1.070   .     S
C56    N146    1.367   .     A
C57    H143    1.109   .     S
C57    H142    1.110   .     S
C57    H141    1.108   .     S
C58    N145    1.374   .     A
C58    C60     1.425   .     A
C58    O157    1.386   .     S
C59    O159    1.376   .     S
C59    N146    1.383   .     A
C60    O160    1.384   .     S
Cu61   O164    1.991   .     S
Cu61   O167    1.992   .     S
Cu61   N146    2.018   .     S
Cu61   O163    1.970   .     S
Cu61   O147    1.970   .     S
Cu61   Cu62    2.686   .     S
Cu62   N145    2.018   .     S
Cu62   O158    1.970   .     S
Cu62   O166    1.992   .     S
Cu62   O162    1.970   .     S
Cu62   O165    1.991   .     S
H64    C193    1.111   .     S
H65    C193    1.115   .     S
H72    C196    1.110   .     S
H75    C533    1.113   1_545 S
H104   C209    1.108   .     S
H105   C209    1.105   .     S
H106   C546    1.110   .     S
H116   C550    1.108   1_545 S
H123   C217    1.110   .     S
H130   C388    1.109   1_455 S
H135   C1062   1.109   1_554 S
H140   C360    1.110   1_455 S
O148   C344    1.395   1_455 S
O168   C190    1.421   .     S
O168   C175    1.399   .     S
C169   O315    1.299   .     A
C169   O330    1.302   .     A
C169   C182    1.480   .     S
C170   O329    1.382   .     S
C170   C227    1.418   .     A
C170   C172    1.399   .     A
C171   C191    1.410   .     A
C171   C228    1.408   .     A
C171   C1180   1.513   1_554 S
C172   C202    1.406   .     A
C172   C1179   1.513   .     S
C173   O332    1.287   .     A
C173   C175    1.465   .     S
C173   O334    1.299   .     A
C174   O333    1.290   .     A
C174   C176    1.460   .     S
C174   O335    1.297   .     A
C176   C343    1.359   .     S
C176   O484    1.395   .     S
C177   O317    1.386   .     S
C177   C188    1.403   .     A
C177   C179    1.395   .     A
C178   C189    1.410   .     A
C178   C181    1.407   .     A
C178   O318    1.383   .     S
C179   C182    1.408   .     A
C179   O319    1.382   .     S
C180   C183    1.482   .     S
C180   O331    1.304   .     A
C180   O326    1.297   .     A
C181   C183    1.412   .     A
C181   O320    1.380   .     S
C182   C184    1.416   .     A
C183   C185    1.408   .     A
C184   C186    1.416   .     A
C184   O321    1.391   .     S
C185   O322    1.386   .     S
C185   C187    1.396   .     A
C186   C188    1.421   .     A
C186   O323    1.385   .     S
C187   C189    1.410   .     A
C187   O324    1.384   .     S
C188   C693    1.482   1_545 S
C189   C692    1.482   .     S
C190   H275    1.111   .     S
C190   H286    1.115   .     S
C191   C213    1.410   .     A
C191   H231    1.082   .     S
C192   H297    1.109   .     S
C192   H312    1.109   .     S
C192   C358    1.519   .     S
C192   H476    1.110   .     S
C193   C194    1.500   .     S
C193   O316    1.414   .     S
C194   H235    1.106   .     S
C194   H234    1.103   .     S
C194   H236    1.107   .     S
C195   H237    1.108   .     S
C195   O317    1.415   .     S
C195   H238    1.112   .     S
C195   C196    1.521   .     S
C196   H241    1.109   .     S
C196   H239    1.109   .     S
C197   H244    1.113   .     S
C197   O318    1.409   .     S
C197   C702    1.518   .     S
C197   H747    1.113   .     S
C198   H245    1.111   .     S
C198   H247    1.111   .     S
C198   H246    1.110   .     S
C198   C701    1.518   1_545 S
C199   C200    1.523   .     S
C199   H248    1.110   .     S
C199   O319    1.423   .     S
C199   H249    1.115   .     S
C200   H252    1.109   .     S
C200   H251    1.110   .     S
C200   H250    1.110   .     S
C201   H255    1.112   .     S
C201   C203    1.511   .     S
C201   O320    1.408   .     S
C201   H254    1.109   .     S
C202   C224    1.418   .     A
C202   H242    1.082   .     S
C203   H258    1.110   .     S
C203   H256    1.111   .     S
C203   H257    1.109   .     S
C204   C205    1.541   .     S
C204   H260    1.106   .     S
C204   O321    1.418   .     S
C204   H259    1.111   .     S
C205   H261    1.107   .     S
C205   H262    1.111   .     S
C205   C374    1.527   .     S
C206   H266    1.110   .     S
C206   H263    1.109   .     S
C206   H265    1.110   .     S
C207   O322    1.424   .     S
C207   C208    1.535   .     S
C207   H268    1.111   .     S
C207   H267    1.105   .     S
C208   H269    1.110   .     S
C208   C209    1.524   .     S
C208   H270    1.105   .     S
C209   H271    1.110   .     S
C210   O323    1.416   .     S
C210   H276    1.108   .     S
C210   C715    1.519   1_545 S
C210   H778    1.110   1_545 S
C211   H278    1.109   .     S
C211   H279    1.108   .     S
C211   H277    1.110   .     S
C211   C714    1.519   .     S
C212   C214    1.521   .     S
C212   O324    1.411   .     S
C212   H280    1.110   .     S
C212   H281    1.114   .     S
C213   N313    1.362   .     A
C213   H253    1.077   .     S
C214   H283    1.110   .     S
C214   H282    1.110   .     S
C214   H788    1.108   .     S
C215   C216    1.540   .     S
C215   O325    1.422   .     S
C215   H287    1.117   .     S
C215   H285    1.110   .     S
C216   H288    1.110   .     S
C216   H289    1.111   .     S
C216   C217    1.529   .     S
C217   H292    1.109   .     S
C217   H290    1.108   .     S
C218   H294    1.112   .     S
C218   C219    1.535   .     S
C218   H293    1.105   .     S
C218   O327    1.416   .     S
C219   C220    1.524   .     S
C219   H296    1.110   .     S
C219   H295    1.108   .     S
C220   H300    1.108   .     S
C220   H299    1.110   .     S
C220   H466    1.109   .     S
C221   H301    1.112   .     S
C221   O328    1.416   .     S
C221   H302    1.114   .     S
C221   C1062   1.525   1_554 S
C222   H305    1.108   .     S
C222   H304    1.110   .     S
C222   C1397   1.525   .     S
C222   H1311   1.109   .     S
C223   H306    1.108   .     S
C223   H307    1.110   .     S
C223   O329    1.416   .     S
C223   C225    1.523   .     S
C224   H264    1.070   .     S
C224   N314    1.367   .     A
C225   H311    1.109   .     S
C225   H310    1.110   .     S
C225   H309    1.108   .     S
C226   N313    1.374   .     A
C226   C228    1.425   .     A
C226   O325    1.386   .     S
C227   O327    1.376   .     S
C227   N314    1.383   .     A
C228   O328    1.384   .     S
Cu229  O332    1.991   .     S
Cu229  O335    1.992   .     S
Cu229  N314    2.018   .     S
Cu229  O331    1.970   .     S
Cu229  O315    1.970   .     S
Cu229  Cu230   2.686   .     S
Cu230  N313    2.018   .     S
Cu230  O326    1.970   .     S
Cu230  O334    1.992   .     S
Cu230  O330    1.970   .     S
Cu230  O333    1.991   .     S
H232   C361    1.111   .     S
H233   C361    1.115   .     S
H240   C364    1.110   .     S
H243   C701    1.113   1_545 S
H272   C377    1.108   .     S
H273   C377    1.105   .     S
H274   C714    1.110   .     S
H284   C718    1.108   1_545 S
H291   C385    1.110   .     S
H303   C1230   1.109   1_554 S
O336   C358    1.421   .     S
O336   C343    1.399   .     S
C337   O483    1.299   .     A
C337   O498    1.302   .     A
C337   C350    1.480   .     S
C338   O497    1.382   .     S
C338   C395    1.418   .     A
C338   C340    1.399   .     A
C339   C359    1.410   .     A
C339   C396    1.408   .     A
C339   C1348   1.513   1_554 S
C340   C370    1.406   .     A
C340   C1347   1.513   .     S
C341   O500    1.287   .     A
C341   C343    1.465   .     S
C341   O502    1.299   .     A
C342   O501    1.290   .     A
C342   C344    1.460   .     S
C342   O503    1.297   .     A
C344   C7      1.359   1_655 S
C344   O148    1.395   1_655 S
C345   O485    1.386   .     S
C345   C356    1.403   .     A
C345   C347    1.395   .     A
C346   C357    1.410   .     A
C346   C349    1.407   .     A
C346   O486    1.383   .     S
C347   C350    1.408   .     A
C347   O487    1.382   .     S
C348   C351    1.482   .     S
C348   O499    1.304   .     A
C348   O494    1.297   .     A
C349   C351    1.412   .     A
C349   O488    1.380   .     S
C350   C352    1.416   .     A
C351   C353    1.408   .     A
C352   C354    1.416   .     A
C352   O489    1.391   .     S
C353   O490    1.386   .     S
C353   C355    1.396   .     A
C354   C356    1.421   .     A
C354   O491    1.385   .     S
C355   C357    1.410   .     A
C355   O492    1.384   .     S
C356   C861    1.482   1_545 S
C357   C860    1.482   .     S
C358   H443    1.111   .     S
C358   H454    1.115   .     S
C359   C381    1.410   .     A
C359   H399    1.082   .     S
C360   H465    1.109   .     S
C360   H480    1.109   .     S
C360   C22     1.519   1_655 S
C360   H140    1.110   1_655 S
C361   C362    1.500   .     S
C361   O484    1.414   .     S
C362   H403    1.106   .     S
C362   H402    1.103   .     S
C362   H404    1.107   .     S
C363   H405    1.108   .     S
C363   O485    1.415   .     S
C363   H406    1.112   .     S
C363   C364    1.521   .     S
C364   H409    1.109   .     S
C364   H407    1.109   .     S
C365   H412    1.113   .     S
C365   O486    1.409   .     S
C365   C870    1.518   .     S
C365   H915    1.113   .     S
C366   H413    1.111   .     S
C366   H415    1.111   .     S
C366   H414    1.110   .     S
C366   C869    1.518   1_545 S
C367   C368    1.523   .     S
C367   H416    1.110   .     S
C367   O487    1.423   .     S
C367   H417    1.115   .     S
C368   H420    1.109   .     S
C368   H419    1.110   .     S
C368   H418    1.110   .     S
C369   H423    1.112   .     S
C369   C371    1.511   .     S
C369   O488    1.408   .     S
C369   H422    1.109   .     S
C370   C392    1.418   .     A
C370   H410    1.082   .     S
C371   H426    1.110   .     S
C371   H424    1.111   .     S
C371   H425    1.109   .     S
C372   C373    1.541   .     S
C372   H428    1.106   .     S
C372   O489    1.418   .     S
C372   H427    1.111   .     S
C373   H429    1.107   .     S
C373   H430    1.111   .     S
C373   C38     1.527   1_655 S
C374   H434    1.110   .     S
C374   H431    1.109   .     S
C374   H433    1.110   .     S
C375   O490    1.424   .     S
C375   C376    1.535   .     S
C375   H436    1.111   .     S
C375   H435    1.105   .     S
C376   H437    1.110   .     S
C376   C377    1.524   .     S
C376   H438    1.105   .     S
C377   H439    1.110   .     S
C378   O491    1.416   .     S
C378   H444    1.108   .     S
C378   C883    1.519   1_545 S
C378   H946    1.110   1_545 S
C379   H446    1.109   .     S
C379   H447    1.108   .     S
C379   H445    1.110   .     S
C379   C882    1.519   .     S
C380   C382    1.521   .     S
C380   O492    1.411   .     S
C380   H448    1.110   .     S
C380   H449    1.114   .     S
C381   N481    1.362   .     A
C381   H421    1.077   .     S
C382   H451    1.110   .     S
C382   H450    1.110   .     S
C382   H956    1.108   .     S
C383   C384    1.540   .     S
C383   O493    1.422   .     S
C383   H455    1.117   .     S
C383   H453    1.110   .     S
C384   H456    1.110   .     S
C384   H457    1.111   .     S
C384   C385    1.529   .     S
C385   H460    1.109   .     S
C385   H458    1.108   .     S
C386   H462    1.112   .     S
C386   C387    1.535   .     S
C386   H461    1.105   .     S
C386   O495    1.416   .     S
C387   C388    1.524   .     S
C387   H464    1.110   .     S
C387   H463    1.108   .     S
C388   H468    1.108   .     S
C388   H467    1.110   .     S
C388   H130    1.109   1_655 S
C389   H469    1.112   .     S
C389   O496    1.416   .     S
C389   H470    1.114   .     S
C389   C1230   1.525   1_554 S
C390   H473    1.108   .     S
C390   H472    1.110   .     S
C390   C1061   1.525   1_655 S
C390   H1479   1.109   .     S
C391   H474    1.108   .     S
C391   H475    1.110   .     S
C391   O497    1.416   .     S
C391   C393    1.523   .     S
C392   H432    1.070   .     S
C392   N482    1.367   .     A
C393   H479    1.109   .     S
C393   H478    1.110   .     S
C393   H477    1.108   .     S
C394   N481    1.374   .     A
C394   C396    1.425   .     A
C394   O493    1.386   .     S
C395   O495    1.376   .     S
C395   N482    1.383   .     A
C396   O496    1.384   .     S
Cu397  O500    1.991   .     S
Cu397  O503    1.992   .     S
Cu397  N482    2.018   .     S
Cu397  O499    1.970   .     S
Cu397  O483    1.970   .     S
Cu397  Cu398   2.686   .     S
Cu398  N481    2.018   .     S
Cu398  O494    1.970   .     S
Cu398  O502    1.992   .     S
Cu398  O498    1.970   .     S
Cu398  O501    1.991   .     S
H400   C25     1.111   1_655 S
H401   C25     1.115   1_655 S
H408   C28     1.110   1_655 S
H411   C869    1.113   1_545 S
H440   C41     1.108   1_655 S
H441   C41     1.105   1_655 S
H442   C882    1.110   .     S
H452   C886    1.108   1_545 S
H459   C49     1.110   1_655 S
H471   C1398   1.109   1_554 S
O504   C22     1.421   1_655 S
O504   C7      1.399   1_655 S
C505   O651    1.299   .     A
C505   O666    1.302   .     A
C505   C518    1.480   .     S
C506   O665    1.382   .     S
C506   C563    1.418   .     A
C506   C508    1.399   .     A
C507   C527    1.410   .     A
C507   C564    1.408   .     A
C507   C1516   1.513   1_554 S
C508   C538    1.406   .     A
C508   C1515   1.513   .     S
C509   O668    1.287   .     A
C509   C511    1.465   .     S
C509   O670    1.299   .     A
C510   O669    1.290   .     A
C510   C512    1.460   .     S
C510   O671    1.297   .     A
C511   C848    1.359   1_455 S
C511   O1008   1.399   1_455 S
C512   C679    1.359   .     S
C512   O820    1.395   .     S
C513   O653    1.386   .     S
C513   C524    1.403   .     A
C513   C515    1.395   .     A
C514   C525    1.410   .     A
C514   C517    1.407   .     A
C514   O654    1.383   .     S
C515   C518    1.408   .     A
C515   O655    1.382   .     S
C516   C519    1.482   .     S
C516   O667    1.304   .     A
C516   O662    1.297   .     A
C517   C519    1.412   .     A
C517   O656    1.380   .     S
C518   C520    1.416   .     A
C519   C521    1.408   .     A
C520   C522    1.416   .     A
C520   O657    1.391   .     S
C521   O658    1.386   .     S
C521   C523    1.396   .     A
C522   C524    1.421   .     A
C522   O659    1.385   .     S
C523   C525    1.410   .     A
C523   O660    1.384   .     S
C525   C20     1.482   1_565 S
C526   H611    1.111   .     S
C526   H622    1.115   .     S
C526   C864    1.519   1_455 S
C526   O1008   1.421   1_455 S
C527   C549    1.410   .     A
C527   H567    1.082   .     S
C528   H633    1.109   .     S
C528   H648    1.109   .     S
C528   C694    1.519   .     S
C528   H812    1.110   .     S
C529   C530    1.500   .     S
C529   O652    1.414   .     S
C529   H904    1.111   1_455 S
C529   H905    1.115   1_455 S
C530   H571    1.106   .     S
C530   H570    1.103   .     S
C530   H572    1.107   .     S
C531   H573    1.108   .     S
C531   O653    1.415   .     S
C531   H574    1.112   .     S
C531   C532    1.521   .     S
C532   H577    1.109   .     S
C532   H575    1.109   .     S
C532   H912    1.110   1_455 S
C533   H580    1.113   .     S
C533   O654    1.409   .     S
C533   C30     1.518   1_565 S
C533   H75     1.113   1_565 S
C534   H581    1.111   .     S
C534   H583    1.111   .     S
C534   H582    1.110   .     S
C535   C536    1.523   .     S
C535   H584    1.110   .     S
C535   O655    1.423   .     S
C535   H585    1.115   .     S
C536   H588    1.109   .     S
C536   H587    1.110   .     S
C536   H586    1.110   .     S
C537   H591    1.112   .     S
C537   C539    1.511   .     S
C537   O656    1.408   .     S
C537   H590    1.109   .     S
C538   C560    1.418   .     A
C538   H578    1.082   .     S
C539   H594    1.110   .     S
C539   H592    1.111   .     S
C539   H593    1.109   .     S
C540   C541    1.541   .     S
C540   H596    1.106   .     S
C540   O657    1.418   .     S
C540   H595    1.111   .     S
C541   H597    1.107   .     S
C541   H598    1.111   .     S
C541   C710    1.527   .     S
C542   H602    1.110   .     S
C542   H599    1.109   .     S
C542   H601    1.110   .     S
C542   C877    1.527   1_455 S
C543   O658    1.424   .     S
C543   C544    1.535   .     S
C543   H604    1.111   .     S
C543   H603    1.105   .     S
C544   H605    1.110   .     S
C544   C545    1.524   .     S
C544   H606    1.105   .     S
C545   H607    1.110   .     S
C545   H944    1.108   1_455 S
C545   H945    1.105   1_455 S
C546   O659    1.416   .     S
C546   H612    1.108   .     S
C547   H614    1.109   .     S
C547   H615    1.108   .     S
C547   H613    1.110   .     S
C547   C42     1.519   1_565 S
C548   C550    1.521   .     S
C548   O660    1.411   .     S
C548   H616    1.110   .     S
C548   H617    1.114   .     S
C549   N649    1.362   .     A
C549   H589    1.077   .     S
C550   H619    1.110   .     S
C550   H618    1.110   .     S
C550   H116    1.108   1_565 S
C551   C552    1.540   .     S
C551   O661    1.422   .     S
C551   H623    1.117   .     S
C551   H621    1.110   .     S
C552   H624    1.110   .     S
C552   H625    1.111   .     S
C552   C553    1.529   .     S
C553   H628    1.109   .     S
C553   H626    1.108   .     S
C553   H963    1.110   1_455 S
C554   H630    1.112   .     S
C554   C555    1.535   .     S
C554   H629    1.105   .     S
C554   O663    1.416   .     S
C555   C556    1.524   .     S
C555   H632    1.110   .     S
C555   H631    1.108   .     S
C556   H636    1.108   .     S
C556   H635    1.110   .     S
C556   H802    1.109   .     S
C557   H637    1.112   .     S
C557   O664    1.416   .     S
C557   H638    1.114   .     S
C557   C1902   1.525   1_454 S
C558   H641    1.108   .     S
C558   H640    1.110   .     S
C558   C1733   1.525   .     S
C558   H1647   1.109   .     S
C559   H642    1.108   .     S
C559   H643    1.110   .     S
C559   O665    1.416   .     S
C559   C561    1.523   .     S
C560   H600    1.070   .     S
C560   N650    1.367   .     A
C561   H647    1.109   .     S
C561   H646    1.110   .     S
C561   H645    1.108   .     S
C562   N649    1.374   .     A
C562   C564    1.425   .     A
C562   O661    1.386   .     S
C563   O663    1.376   .     S
C563   N650    1.383   .     A
C564   O664    1.384   .     S
Cu565  O668    1.991   .     S
Cu565  O671    1.992   .     S
Cu565  N650    2.018   .     S
Cu565  O667    1.970   .     S
Cu565  O651    1.970   .     S
Cu565  Cu566   2.686   .     S
Cu566  N649    2.018   .     S
Cu566  O662    1.970   .     S
Cu566  O670    1.992   .     S
Cu566  O666    1.970   .     S
Cu566  O669    1.991   .     S
H568   C697    1.111   .     S
H569   C697    1.115   .     S
H576   C700    1.110   .     S
H608   C713    1.108   .     S
H609   C713    1.105   .     S
H610   C42     1.110   1_565 S
H627   C721    1.110   .     S
H634   C892    1.109   1_455 S
H639   C1566   1.109   1_554 S
H644   C864    1.110   1_455 S
O652   C848    1.395   1_455 S
O672   C694    1.421   .     S
O672   C679    1.399   .     S
C673   O819    1.299   .     A
C673   O834    1.302   .     A
C673   C686    1.480   .     S
C674   O833    1.382   .     S
C674   C731    1.418   .     A
C674   C676    1.399   .     A
C675   C695    1.410   .     A
C675   C732    1.408   .     A
C675   C1684   1.513   1_554 S
C676   C706    1.406   .     A
C676   C1683   1.513   .     S
C677   O836    1.287   .     A
C677   C679    1.465   .     S
C677   O838    1.299   .     A
C678   O837    1.290   .     A
C678   C680    1.460   .     S
C678   O839    1.297   .     A
C680   C847    1.359   .     S
C680   O988    1.395   .     S
C681   O821    1.386   .     S
C681   C692    1.403   .     A
C681   C683    1.395   .     A
C682   C693    1.410   .     A
C682   C685    1.407   .     A
C682   O822    1.383   .     S
C683   C686    1.408   .     A
C683   O823    1.382   .     S
C684   C687    1.482   .     S
C684   O835    1.304   .     A
C684   O830    1.297   .     A
C685   C687    1.412   .     A
C685   O824    1.380   .     S
C686   C688    1.416   .     A
C687   C689    1.408   .     A
C688   C690    1.416   .     A
C688   O825    1.391   .     S
C689   O826    1.386   .     S
C689   C691    1.396   .     A
C690   C692    1.421   .     A
C690   O827    1.385   .     S
C691   C693    1.410   .     A
C691   O828    1.384   .     S
C693   C188    1.482   1_565 S
C694   H779    1.111   .     S
C694   H790    1.115   .     S
C695   C717    1.410   .     A
C695   H735    1.082   .     S
C696   H801    1.109   .     S
C696   H816    1.109   .     S
C696   C862    1.519   .     S
C696   H980    1.110   .     S
C697   C698    1.500   .     S
C697   O820    1.414   .     S
C698   H739    1.106   .     S
C698   H738    1.103   .     S
C698   H740    1.107   .     S
C699   H741    1.108   .     S
C699   O821    1.415   .     S
C699   H742    1.112   .     S
C699   C700    1.521   .     S
C700   H745    1.109   .     S
C700   H743    1.109   .     S
C701   H748    1.113   .     S
C701   O822    1.409   .     S
C701   C198    1.518   1_565 S
C701   H243    1.113   1_565 S
C702   H749    1.111   .     S
C702   H751    1.111   .     S
C702   H750    1.110   .     S
C703   C704    1.523   .     S
C703   H752    1.110   .     S
C703   O823    1.423   .     S
C703   H753    1.115   .     S
C704   H756    1.109   .     S
C704   H755    1.110   .     S
C704   H754    1.110   .     S
C705   H759    1.112   .     S
C705   C707    1.511   .     S
C705   O824    1.408   .     S
C705   H758    1.109   .     S
C706   C728    1.418   .     A
C706   H746    1.082   .     S
C707   H762    1.110   .     S
C707   H760    1.111   .     S
C707   H761    1.109   .     S
C708   C709    1.541   .     S
C708   H764    1.106   .     S
C708   O825    1.418   .     S
C708   H763    1.111   .     S
C709   H765    1.107   .     S
C709   H766    1.111   .     S
C709   C878    1.527   .     S
C710   H770    1.110   .     S
C710   H767    1.109   .     S
C710   H769    1.110   .     S
C711   O826    1.424   .     S
C711   C712    1.535   .     S
C711   H772    1.111   .     S
C711   H771    1.105   .     S
C712   H773    1.110   .     S
C712   C713    1.524   .     S
C712   H774    1.105   .     S
C713   H775    1.110   .     S
C714   O827    1.416   .     S
C714   H780    1.108   .     S
C715   H782    1.109   .     S
C715   H783    1.108   .     S
C715   H781    1.110   .     S
C715   C210    1.519   1_565 S
C716   C718    1.521   .     S
C716   O828    1.411   .     S
C716   H784    1.110   .     S
C716   H785    1.114   .     S
C717   N817    1.362   .     A
C717   H757    1.077   .     S
C718   H787    1.110   .     S
C718   H786    1.110   .     S
C718   H284    1.108   1_565 S
C719   C720    1.540   .     S
C719   O829    1.422   .     S
C719   H791    1.117   .     S
C719   H789    1.110   .     S
C720   H792    1.110   .     S
C720   H793    1.111   .     S
C720   C721    1.529   .     S
C721   H796    1.109   .     S
C721   H794    1.108   .     S
C722   H798    1.112   .     S
C722   C723    1.535   .     S
C722   H797    1.105   .     S
C722   O831    1.416   .     S
C723   C724    1.524   .     S
C723   H800    1.110   .     S
C723   H799    1.108   .     S
C724   H804    1.108   .     S
C724   H803    1.110   .     S
C724   H970    1.109   .     S
C725   H805    1.112   .     S
C725   O832    1.416   .     S
C725   H806    1.114   .     S
C725   C1566   1.525   1_554 S
C726   H809    1.108   .     S
C726   H808    1.110   .     S
C726   C1901   1.525   .     S
C726   H1815   1.109   .     S
C727   H810    1.108   .     S
C727   H811    1.110   .     S
C727   O833    1.416   .     S
C727   C729    1.523   .     S
C728   H768    1.070   .     S
C728   N818    1.367   .     A
C729   H815    1.109   .     S
C729   H814    1.110   .     S
C729   H813    1.108   .     S
C730   N817    1.374   .     A
C730   C732    1.425   .     A
C730   O829    1.386   .     S
C731   O831    1.376   .     S
C731   N818    1.383   .     A
C732   O832    1.384   .     S
Cu733  O836    1.991   .     S
Cu733  O839    1.992   .     S
Cu733  N818    2.018   .     S
Cu733  O835    1.970   .     S
Cu733  O819    1.970   .     S
Cu733  Cu734   2.686   .     S
Cu734  N817    2.018   .     S
Cu734  O830    1.970   .     S
Cu734  O838    1.992   .     S
Cu734  O834    1.970   .     S
Cu734  O837    1.991   .     S
H736   C865    1.111   .     S
H737   C865    1.115   .     S
H744   C868    1.110   .     S
H776   C881    1.108   .     S
H777   C881    1.105   .     S
H778   C210    1.110   1_565 S
H795   C889    1.110   .     S
H807   C1734   1.109   1_554 S
O840   C862    1.421   .     S
O840   C847    1.399   .     S
C841   O987    1.299   .     A
C841   O1002   1.302   .     A
C841   C854    1.480   .     S
C842   O1001   1.382   .     S
C842   C899    1.418   .     A
C842   C844    1.399   .     A
C843   C863    1.410   .     A
C843   C900    1.408   .     A
C843   C1852   1.513   1_554 S
C844   C874    1.406   .     A
C844   C1851   1.513   .     S
C845   O1004   1.287   .     A
C845   C847    1.465   .     S
C845   O1006   1.299   .     A
C846   O1005   1.290   .     A
C846   C848    1.460   .     S
C846   O1007   1.297   .     A
C848   C511    1.359   1_655 S
C848   O652    1.395   1_655 S
C849   O989    1.386   .     S
C849   C860    1.403   .     A
C849   C851    1.395   .     A
C850   C861    1.410   .     A
C850   C853    1.407   .     A
C850   O990    1.383   .     S
C851   C854    1.408   .     A
C851   O991    1.382   .     S
C852   C855    1.482   .     S
C852   O1003   1.304   .     A
C852   O998    1.297   .     A
C853   C855    1.412   .     A
C853   O992    1.380   .     S
C854   C856    1.416   .     A
C855   C857    1.408   .     A
C856   C858    1.416   .     A
C856   O993    1.391   .     S
C857   O994    1.386   .     S
C857   C859    1.396   .     A
C858   C860    1.421   .     A
C858   O995    1.385   .     S
C859   C861    1.410   .     A
C859   O996    1.384   .     S
C861   C356    1.482   1_565 S
C862   H947    1.111   .     S
C862   H958    1.115   .     S
C863   C885    1.410   .     A
C863   H903    1.082   .     S
C864   H969    1.109   .     S
C864   H984    1.109   .     S
C864   C526    1.519   1_655 S
C864   H644    1.110   1_655 S
C865   C866    1.500   .     S
C865   O988    1.414   .     S
C866   H907    1.106   .     S
C866   H906    1.103   .     S
C866   H908    1.107   .     S
C867   H909    1.108   .     S
C867   O989    1.415   .     S
C867   H910    1.112   .     S
C867   C868    1.521   .     S
C868   H913    1.109   .     S
C868   H911    1.109   .     S
C869   H916    1.113   .     S
C869   O990    1.409   .     S
C869   C366    1.518   1_565 S
C869   H411    1.113   1_565 S
C870   H917    1.111   .     S
C870   H919    1.111   .     S
C870   H918    1.110   .     S
C871   C872    1.523   .     S
C871   H920    1.110   .     S
C871   O991    1.423   .     S
C871   H921    1.115   .     S
C872   H924    1.109   .     S
C872   H923    1.110   .     S
C872   H922    1.110   .     S
C873   H927    1.112   .     S
C873   C875    1.511   .     S
C873   O992    1.408   .     S
C873   H926    1.109   .     S
C874   C896    1.418   .     A
C874   H914    1.082   .     S
C875   H930    1.110   .     S
C875   H928    1.111   .     S
C875   H929    1.109   .     S
C876   C877    1.541   .     S
C876   H932    1.106   .     S
C876   O993    1.418   .     S
C876   H931    1.111   .     S
C877   H933    1.107   .     S
C877   H934    1.111   .     S
C877   C542    1.527   1_655 S
C878   H938    1.110   .     S
C878   H935    1.109   .     S
C878   H937    1.110   .     S
C879   O994    1.424   .     S
C879   C880    1.535   .     S
C879   H940    1.111   .     S
C879   H939    1.105   .     S
C880   H941    1.110   .     S
C880   C881    1.524   .     S
C880   H942    1.105   .     S
C881   H943    1.110   .     S
C882   O995    1.416   .     S
C882   H948    1.108   .     S
C883   H950    1.109   .     S
C883   H951    1.108   .     S
C883   H949    1.110   .     S
C883   C378    1.519   1_565 S
C884   C886    1.521   .     S
C884   O996    1.411   .     S
C884   H952    1.110   .     S
C884   H953    1.114   .     S
C885   N985    1.362   .     A
C885   H925    1.077   .     S
C886   H955    1.110   .     S
C886   H954    1.110   .     S
C886   H452    1.108   1_565 S
C887   C888    1.540   .     S
C887   O997    1.422   .     S
C887   H959    1.117   .     S
C887   H957    1.110   .     S
C888   H960    1.110   .     S
C888   H961    1.111   .     S
C888   C889    1.529   .     S
C889   H964    1.109   .     S
C889   H962    1.108   .     S
C890   H966    1.112   .     S
C890   C891    1.535   .     S
C890   H965    1.105   .     S
C890   O999    1.416   .     S
C891   C892    1.524   .     S
C891   H968    1.110   .     S
C891   H967    1.108   .     S
C892   H972    1.108   .     S
C892   H971    1.110   .     S
C892   H634    1.109   1_655 S
C893   H973    1.112   .     S
C893   O1000   1.416   .     S
C893   H974    1.114   .     S
C893   C1734   1.525   1_554 S
C894   H977    1.108   .     S
C894   H976    1.110   .     S
C894   C1565   1.525   1_655 S
C894   H1983   1.109   .     S
C895   H978    1.108   .     S
C895   H979    1.110   .     S
C895   O1001   1.416   .     S
C895   C897    1.523   .     S
C896   H936    1.070   .     S
C896   N986    1.367   .     A
C897   H983    1.109   .     S
C897   H982    1.110   .     S
C897   H981    1.108   .     S
C898   N985    1.374   .     A
C898   C900    1.425   .     A
C898   O997    1.386   .     S
C899   O999    1.376   .     S
C899   N986    1.383   .     A
C900   O1000   1.384   .     S
Cu901  O1004   1.991   .     S
Cu901  O1007   1.992   .     S
Cu901  N986    2.018   .     S
Cu901  O1003   1.970   .     S
Cu901  O987    1.970   .     S
Cu901  Cu902   2.686   .     S
Cu902  N985    2.018   .     S
Cu902  O998    1.970   .     S
Cu902  O1006   1.992   .     S
Cu902  O1002   1.970   .     S
Cu902  O1005   1.991   .     S
H904   C529    1.111   1_655 S
H905   C529    1.115   1_655 S
H912   C532    1.110   1_655 S
H944   C545    1.108   1_655 S
H945   C545    1.105   1_655 S
H946   C378    1.110   1_565 S
H963   C553    1.110   1_655 S
H975   C1902   1.109   1_554 S
O1008  C526    1.421   1_655 S
O1008  C511    1.399   1_655 S
C1009  O1155   1.299   .     A
C1009  O1170   1.302   .     A
C1009  C1022   1.480   .     S
C1010  O1169   1.382   .     S
C1010  C1067   1.418   .     A
C1010  C1012   1.399   .     A
C1011  C1031   1.410   .     A
C1011  C1068   1.408   .     A
C1012  C1042   1.406   .     A
C1012  C3      1.513   1_556 S
C1013  O1172   1.287   .     A
C1013  C1015   1.465   .     S
C1013  O1174   1.299   .     A
C1014  O1173   1.290   .     A
C1014  C1016   1.460   .     S
C1014  O1175   1.297   .     A
C1015  C1352   1.359   1_455 S
C1015  O1512   1.399   1_455 S
C1016  C1183   1.359   .     S
C1016  O1324   1.395   .     S
C1017  O1157   1.386   .     S
C1017  C1028   1.403   .     A
C1017  C1019   1.395   .     A
C1018  C1029   1.410   .     A
C1018  C1021   1.407   .     A
C1018  O1158   1.383   .     S
C1019  C1022   1.408   .     A
C1019  O1159   1.382   .     S
C1020  C1023   1.482   .     S
C1020  O1171   1.304   .     A
C1020  O1166   1.297   .     A
C1021  C1023   1.412   .     A
C1021  O1160   1.380   .     S
C1022  C1024   1.416   .     A
C1023  C1025   1.408   .     A
C1024  C1026   1.416   .     A
C1024  O1161   1.391   .     S
C1025  O1162   1.386   .     S
C1025  C1027   1.396   .     A
C1026  C1028   1.421   .     A
C1026  O1163   1.385   .     S
C1027  C1029   1.410   .     A
C1027  O1164   1.384   .     S
C1028  C1533   1.482   1_545 S
C1029  C1532   1.482   .     S
C1030  H1115   1.111   .     S
C1030  H1126   1.115   .     S
C1030  C1368   1.519   1_455 S
C1030  O1512   1.421   1_455 S
C1031  C1053   1.410   .     A
C1031  H1071   1.082   .     S
C1032  H1137   1.109   .     S
C1032  H1152   1.109   .     S
C1032  C1198   1.519   .     S
C1032  H1316   1.110   .     S
C1033  C1034   1.500   .     S
C1033  O1156   1.414   .     S
C1033  H1408   1.111   1_455 S
C1033  H1409   1.115   1_455 S
C1034  H1075   1.106   .     S
C1034  H1074   1.103   .     S
C1034  H1076   1.107   .     S
C1035  H1077   1.108   .     S
C1035  O1157   1.415   .     S
C1035  H1078   1.112   .     S
C1035  C1036   1.521   .     S
C1036  H1081   1.109   .     S
C1036  H1079   1.109   .     S
C1036  H1416   1.110   1_455 S
C1037  H1084   1.113   .     S
C1037  O1158   1.409   .     S
C1037  C1542   1.518   .     S
C1037  H1587   1.113   .     S
C1038  H1085   1.111   .     S
C1038  H1087   1.111   .     S
C1038  H1086   1.110   .     S
C1038  C1541   1.518   1_545 S
C1039  C1040   1.523   .     S
C1039  H1088   1.110   .     S
C1039  O1159   1.423   .     S
C1039  H1089   1.115   .     S
C1040  H1092   1.109   .     S
C1040  H1091   1.110   .     S
C1040  H1090   1.110   .     S
C1041  H1095   1.112   .     S
C1041  C1043   1.511   .     S
C1041  O1160   1.408   .     S
C1041  H1094   1.109   .     S
C1042  C1064   1.418   .     A
C1042  H1082   1.082   .     S
C1043  H1098   1.110   .     S
C1043  H1096   1.111   .     S
C1043  H1097   1.109   .     S
C1044  C1045   1.541   .     S
C1044  H1100   1.106   .     S
C1044  O1161   1.418   .     S
C1044  H1099   1.111   .     S
C1045  H1101   1.107   .     S
C1045  H1102   1.111   .     S
C1045  C1214   1.527   .     S
C1046  H1106   1.110   .     S
C1046  H1103   1.109   .     S
C1046  H1105   1.110   .     S
C1046  C1381   1.527   1_455 S
C1047  O1162   1.424   .     S
C1047  C1048   1.535   .     S
C1047  H1108   1.111   .     S
C1047  H1107   1.105   .     S
C1048  H1109   1.110   .     S
C1048  C1049   1.524   .     S
C1048  H1110   1.105   .     S
C1049  H1111   1.110   .     S
C1049  H1448   1.108   1_455 S
C1049  H1449   1.105   1_455 S
C1050  O1163   1.416   .     S
C1050  H1116   1.108   .     S
C1050  C1555   1.519   1_545 S
C1050  H1618   1.110   1_545 S
C1051  H1118   1.109   .     S
C1051  H1119   1.108   .     S
C1051  H1117   1.110   .     S
C1051  C1554   1.519   .     S
C1052  C1054   1.521   .     S
C1052  O1164   1.411   .     S
C1052  H1120   1.110   .     S
C1052  H1121   1.114   .     S
C1053  N1153   1.362   .     A
C1053  H1093   1.077   .     S
C1054  H1123   1.110   .     S
C1054  H1122   1.110   .     S
C1054  H1628   1.108   .     S
C1055  C1056   1.540   .     S
C1055  O1165   1.422   .     S
C1055  H1127   1.117   .     S
C1055  H1125   1.110   .     S
C1056  H1128   1.110   .     S
C1056  H1129   1.111   .     S
C1056  C1057   1.529   .     S
C1057  H1132   1.109   .     S
C1057  H1130   1.108   .     S
C1057  H1467   1.110   1_455 S
C1058  H1134   1.112   .     S
C1058  C1059   1.535   .     S
C1058  H1133   1.105   .     S
C1058  O1167   1.416   .     S
C1059  C1060   1.524   .     S
C1059  H1136   1.110   .     S
C1059  H1135   1.108   .     S
C1060  H1140   1.108   .     S
C1060  H1139   1.110   .     S
C1060  H1306   1.109   .     S
C1061  H1141   1.112   .     S
C1061  O1168   1.416   .     S
C1061  H1142   1.114   .     S
C1061  C390    1.525   1_455 S
C1062  H1145   1.108   .     S
C1062  H1144   1.110   .     S
C1062  C221    1.525   1_556 S
C1062  H135    1.109   1_556 S
C1063  H1146   1.108   .     S
C1063  H1147   1.110   .     S
C1063  O1169   1.416   .     S
C1063  C1065   1.523   .     S
C1064  H1104   1.070   .     S
C1064  N1154   1.367   .     A
C1065  H1151   1.109   .     S
C1065  H1150   1.110   .     S
C1065  H1149   1.108   .     S
C1066  N1153   1.374   .     A
C1066  C1068   1.425   .     A
C1066  O1165   1.386   .     S
C1067  O1167   1.376   .     S
C1067  N1154   1.383   .     A
C1068  O1168   1.384   .     S
Cu1069 O1172   1.991   .     S
Cu1069 O1175   1.992   .     S
Cu1069 N1154   2.018   .     S
Cu1069 O1171   1.970   .     S
Cu1069 O1155   1.970   .     S
Cu1069 Cu1070  2.686   .     S
Cu1070 N1153   2.018   .     S
Cu1070 O1166   1.970   .     S
Cu1070 O1174   1.992   .     S
Cu1070 O1170   1.970   .     S
Cu1070 O1173   1.991   .     S
H1072  C1201   1.111   .     S
H1073  C1201   1.115   .     S
H1080  C1204   1.110   .     S
H1083  C1541   1.113   1_545 S
H1112  C1217   1.108   .     S
H1113  C1217   1.105   .     S
H1114  C1554   1.110   .     S
H1124  C1558   1.108   1_545 S
H1131  C1225   1.110   .     S
H1138  C1396   1.109   1_455 S
H1148  C1368   1.110   1_455 S
O1156  C1352   1.395   1_455 S
O1176  C1198   1.421   .     S
O1176  C1183   1.399   .     S
C1177  O1323   1.299   .     A
C1177  O1338   1.302   .     A
C1177  C1190   1.480   .     S
C1178  O1337   1.382   .     S
C1178  C1235   1.418   .     A
C1178  C1180   1.399   .     A
C1179  C1199   1.410   .     A
C1179  C1236   1.408   .     A
C1180  C1210   1.406   .     A
C1180  C171    1.513   1_556 S
C1181  O1340   1.287   .     A
C1181  C1183   1.465   .     S
C1181  O1342   1.299   .     A
C1182  O1341   1.290   .     A
C1182  C1184   1.460   .     S
C1182  O1343   1.297   .     A
C1184  C1351   1.359   .     S
C1184  O1492   1.395   .     S
C1185  O1325   1.386   .     S
C1185  C1196   1.403   .     A
C1185  C1187   1.395   .     A
C1186  C1197   1.410   .     A
C1186  C1189   1.407   .     A
C1186  O1326   1.383   .     S
C1187  C1190   1.408   .     A
C1187  O1327   1.382   .     S
C1188  C1191   1.482   .     S
C1188  O1339   1.304   .     A
C1188  O1334   1.297   .     A
C1189  C1191   1.412   .     A
C1189  O1328   1.380   .     S
C1190  C1192   1.416   .     A
C1191  C1193   1.408   .     A
C1192  C1194   1.416   .     A
C1192  O1329   1.391   .     S
C1193  O1330   1.386   .     S
C1193  C1195   1.396   .     A
C1194  C1196   1.421   .     A
C1194  O1331   1.385   .     S
C1195  C1197   1.410   .     A
C1195  O1332   1.384   .     S
C1196  C1701   1.482   1_545 S
C1197  C1700   1.482   .     S
C1198  H1283   1.111   .     S
C1198  H1294   1.115   .     S
C1199  C1221   1.410   .     A
C1199  H1239   1.082   .     S
C1200  H1305   1.109   .     S
C1200  H1320   1.109   .     S
C1200  C1366   1.519   .     S
C1200  H1484   1.110   .     S
C1201  C1202   1.500   .     S
C1201  O1324   1.414   .     S
C1202  H1243   1.106   .     S
C1202  H1242   1.103   .     S
C1202  H1244   1.107   .     S
C1203  H1245   1.108   .     S
C1203  O1325   1.415   .     S
C1203  H1246   1.112   .     S
C1203  C1204   1.521   .     S
C1204  H1249   1.109   .     S
C1204  H1247   1.109   .     S
C1205  H1252   1.113   .     S
C1205  O1326   1.409   .     S
C1205  C1710   1.518   .     S
C1205  H1755   1.113   .     S
C1206  H1253   1.111   .     S
C1206  H1255   1.111   .     S
C1206  H1254   1.110   .     S
C1206  C1709   1.518   1_545 S
C1207  C1208   1.523   .     S
C1207  H1256   1.110   .     S
C1207  O1327   1.423   .     S
C1207  H1257   1.115   .     S
C1208  H1260   1.109   .     S
C1208  H1259   1.110   .     S
C1208  H1258   1.110   .     S
C1209  H1263   1.112   .     S
C1209  C1211   1.511   .     S
C1209  O1328   1.408   .     S
C1209  H1262   1.109   .     S
C1210  C1232   1.418   .     A
C1210  H1250   1.082   .     S
C1211  H1266   1.110   .     S
C1211  H1264   1.111   .     S
C1211  H1265   1.109   .     S
C1212  C1213   1.541   .     S
C1212  H1268   1.106   .     S
C1212  O1329   1.418   .     S
C1212  H1267   1.111   .     S
C1213  H1269   1.107   .     S
C1213  H1270   1.111   .     S
C1213  C1382   1.527   .     S
C1214  H1274   1.110   .     S
C1214  H1271   1.109   .     S
C1214  H1273   1.110   .     S
C1215  O1330   1.424   .     S
C1215  C1216   1.535   .     S
C1215  H1276   1.111   .     S
C1215  H1275   1.105   .     S
C1216  H1277   1.110   .     S
C1216  C1217   1.524   .     S
C1216  H1278   1.105   .     S
C1217  H1279   1.110   .     S
C1218  O1331   1.416   .     S
C1218  H1284   1.108   .     S
C1218  C1723   1.519   1_545 S
C1218  H1786   1.110   1_545 S
C1219  H1286   1.109   .     S
C1219  H1287   1.108   .     S
C1219  H1285   1.110   .     S
C1219  C1722   1.519   .     S
C1220  C1222   1.521   .     S
C1220  O1332   1.411   .     S
C1220  H1288   1.110   .     S
C1220  H1289   1.114   .     S
C1221  N1321   1.362   .     A
C1221  H1261   1.077   .     S
C1222  H1291   1.110   .     S
C1222  H1290   1.110   .     S
C1222  H1796   1.108   .     S
C1223  C1224   1.540   .     S
C1223  O1333   1.422   .     S
C1223  H1295   1.117   .     S
C1223  H1293   1.110   .     S
C1224  H1296   1.110   .     S
C1224  H1297   1.111   .     S
C1224  C1225   1.529   .     S
C1225  H1300   1.109   .     S
C1225  H1298   1.108   .     S
C1226  H1302   1.112   .     S
C1226  C1227   1.535   .     S
C1226  H1301   1.105   .     S
C1226  O1335   1.416   .     S
C1227  C1228   1.524   .     S
C1227  H1304   1.110   .     S
C1227  H1303   1.108   .     S
C1228  H1308   1.108   .     S
C1228  H1307   1.110   .     S
C1228  H1474   1.109   .     S
C1229  H1309   1.112   .     S
C1229  O1336   1.416   .     S
C1229  H1310   1.114   .     S
C1230  H1313   1.108   .     S
C1230  H1312   1.110   .     S
C1230  C389    1.525   1_556 S
C1230  H303    1.109   1_556 S
C1231  H1314   1.108   .     S
C1231  H1315   1.110   .     S
C1231  O1337   1.416   .     S
C1231  C1233   1.523   .     S
C1232  H1272   1.070   .     S
C1232  N1322   1.367   .     A
C1233  H1319   1.109   .     S
C1233  H1318   1.110   .     S
C1233  H1317   1.108   .     S
C1234  N1321   1.374   .     A
C1234  C1236   1.425   .     A
C1234  O1333   1.386   .     S
C1235  O1335   1.376   .     S
C1235  N1322   1.383   .     A
C1236  O1336   1.384   .     S
Cu1237 O1340   1.991   .     S
Cu1237 O1343   1.992   .     S
Cu1237 N1322   2.018   .     S
Cu1237 O1339   1.970   .     S
Cu1237 O1323   1.970   .     S
Cu1237 Cu1238  2.686   .     S
Cu1238 N1321   2.018   .     S
Cu1238 O1334   1.970   .     S
Cu1238 O1342   1.992   .     S
Cu1238 O1338   1.970   .     S
Cu1238 O1341   1.991   .     S
H1240  C1369   1.111   .     S
H1241  C1369   1.115   .     S
H1248  C1372   1.110   .     S
H1251  C1709   1.113   1_545 S
H1280  C1385   1.108   .     S
H1281  C1385   1.105   .     S
H1282  C1722   1.110   .     S
H1292  C1726   1.108   1_545 S
H1299  C1393   1.110   .     S
O1344  C1366   1.421   .     S
O1344  C1351   1.399   .     S
C1345  O1491   1.299   .     A
C1345  O1506   1.302   .     A
C1345  C1358   1.480   .     S
C1346  O1505   1.382   .     S
C1346  C1403   1.418   .     A
C1346  C1348   1.399   .     A
C1347  C1367   1.410   .     A
C1347  C1404   1.408   .     A
C1348  C1378   1.406   .     A
C1348  C339    1.513   1_556 S
C1349  O1508   1.287   .     A
C1349  C1351   1.465   .     S
C1349  O1510   1.299   .     A
C1350  O1509   1.290   .     A
C1350  C1352   1.460   .     S
C1350  O1511   1.297   .     A
C1352  C1015   1.359   1_655 S
C1352  O1156   1.395   1_655 S
C1353  O1493   1.386   .     S
C1353  C1364   1.403   .     A
C1353  C1355   1.395   .     A
C1354  C1365   1.410   .     A
C1354  C1357   1.407   .     A
C1354  O1494   1.383   .     S
C1355  C1358   1.408   .     A
C1355  O1495   1.382   .     S
C1356  C1359   1.482   .     S
C1356  O1507   1.304   .     A
C1356  O1502   1.297   .     A
C1357  C1359   1.412   .     A
C1357  O1496   1.380   .     S
C1358  C1360   1.416   .     A
C1359  C1361   1.408   .     A
C1360  C1362   1.416   .     A
C1360  O1497   1.391   .     S
C1361  O1498   1.386   .     S
C1361  C1363   1.396   .     A
C1362  C1364   1.421   .     A
C1362  O1499   1.385   .     S
C1363  C1365   1.410   .     A
C1363  O1500   1.384   .     S
C1364  C1869   1.482   1_545 S
C1365  C1868   1.482   .     S
C1366  H1451   1.111   .     S
C1366  H1462   1.115   .     S
C1367  C1389   1.410   .     A
C1367  H1407   1.082   .     S
C1368  H1473   1.109   .     S
C1368  H1488   1.109   .     S
C1368  C1030   1.519   1_655 S
C1368  H1148   1.110   1_655 S
C1369  C1370   1.500   .     S
C1369  O1492   1.414   .     S
C1370  H1411   1.106   .     S
C1370  H1410   1.103   .     S
C1370  H1412   1.107   .     S
C1371  H1413   1.108   .     S
C1371  O1493   1.415   .     S
C1371  H1414   1.112   .     S
C1371  C1372   1.521   .     S
C1372  H1417   1.109   .     S
C1372  H1415   1.109   .     S
C1373  H1420   1.113   .     S
C1373  O1494   1.409   .     S
C1373  C1878   1.518   .     S
C1373  H1923   1.113   .     S
C1374  H1421   1.111   .     S
C1374  H1423   1.111   .     S
C1374  H1422   1.110   .     S
C1374  C1877   1.518   1_545 S
C1375  C1376   1.523   .     S
C1375  H1424   1.110   .     S
C1375  O1495   1.423   .     S
C1375  H1425   1.115   .     S
C1376  H1428   1.109   .     S
C1376  H1427   1.110   .     S
C1376  H1426   1.110   .     S
C1377  H1431   1.112   .     S
C1377  C1379   1.511   .     S
C1377  O1496   1.408   .     S
C1377  H1430   1.109   .     S
C1378  C1400   1.418   .     A
C1378  H1418   1.082   .     S
C1379  H1434   1.110   .     S
C1379  H1432   1.111   .     S
C1379  H1433   1.109   .     S
C1380  C1381   1.541   .     S
C1380  H1436   1.106   .     S
C1380  O1497   1.418   .     S
C1380  H1435   1.111   .     S
C1381  H1437   1.107   .     S
C1381  H1438   1.111   .     S
C1381  C1046   1.527   1_655 S
C1382  H1442   1.110   .     S
C1382  H1439   1.109   .     S
C1382  H1441   1.110   .     S
C1383  O1498   1.424   .     S
C1383  C1384   1.535   .     S
C1383  H1444   1.111   .     S
C1383  H1443   1.105   .     S
C1384  H1445   1.110   .     S
C1384  C1385   1.524   .     S
C1384  H1446   1.105   .     S
C1385  H1447   1.110   .     S
C1386  O1499   1.416   .     S
C1386  H1452   1.108   .     S
C1386  C1891   1.519   1_545 S
C1386  H1954   1.110   1_545 S
C1387  H1454   1.109   .     S
C1387  H1455   1.108   .     S
C1387  H1453   1.110   .     S
C1387  C1890   1.519   .     S
C1388  C1390   1.521   .     S
C1388  O1500   1.411   .     S
C1388  H1456   1.110   .     S
C1388  H1457   1.114   .     S
C1389  N1489   1.362   .     A
C1389  H1429   1.077   .     S
C1390  H1459   1.110   .     S
C1390  H1458   1.110   .     S
C1390  H1964   1.108   .     S
C1391  C1392   1.540   .     S
C1391  O1501   1.422   .     S
C1391  H1463   1.117   .     S
C1391  H1461   1.110   .     S
C1392  H1464   1.110   .     S
C1392  H1465   1.111   .     S
C1392  C1393   1.529   .     S
C1393  H1468   1.109   .     S
C1393  H1466   1.108   .     S
C1394  H1470   1.112   .     S
C1394  C1395   1.535   .     S
C1394  H1469   1.105   .     S
C1394  O1503   1.416   .     S
C1395  C1396   1.524   .     S
C1395  H1472   1.110   .     S
C1395  H1471   1.108   .     S
C1396  H1476   1.108   .     S
C1396  H1475   1.110   .     S
C1396  H1138   1.109   1_655 S
C1397  H1477   1.112   .     S
C1397  O1504   1.416   .     S
C1397  H1478   1.114   .     S
C1398  H1481   1.108   .     S
C1398  H1480   1.110   .     S
C1398  C53     1.525   1_656 S
C1398  H471    1.109   1_556 S
C1399  H1482   1.108   .     S
C1399  H1483   1.110   .     S
C1399  O1505   1.416   .     S
C1399  C1401   1.523   .     S
C1400  H1440   1.070   .     S
C1400  N1490   1.367   .     A
C1401  H1487   1.109   .     S
C1401  H1486   1.110   .     S
C1401  H1485   1.108   .     S
C1402  N1489   1.374   .     A
C1402  C1404   1.425   .     A
C1402  O1501   1.386   .     S
C1403  O1503   1.376   .     S
C1403  N1490   1.383   .     A
C1404  O1504   1.384   .     S
Cu1405 O1508   1.991   .     S
Cu1405 O1511   1.992   .     S
Cu1405 N1490   2.018   .     S
Cu1405 O1507   1.970   .     S
Cu1405 O1491   1.970   .     S
Cu1405 Cu1406  2.686   .     S
Cu1406 N1489   2.018   .     S
Cu1406 O1502   1.970   .     S
Cu1406 O1510   1.992   .     S
Cu1406 O1506   1.970   .     S
Cu1406 O1509   1.991   .     S
H1408  C1033   1.111   1_655 S
H1409  C1033   1.115   1_655 S
H1416  C1036   1.110   1_655 S
H1419  C1877   1.113   1_545 S
H1448  C1049   1.108   1_655 S
H1449  C1049   1.105   1_655 S
H1450  C1890   1.110   .     S
H1460  C1894   1.108   1_545 S
H1467  C1057   1.110   1_655 S
O1512  C1030   1.421   1_655 S
O1512  C1015   1.399   1_655 S
C1513  O1659   1.299   .     A
C1513  O1674   1.302   .     A
C1513  C1526   1.480   .     S
C1514  O1673   1.382   .     S
C1514  C1571   1.418   .     A
C1514  C1516   1.399   .     A
C1515  C1535   1.410   .     A
C1515  C1572   1.408   .     A
C1516  C1546   1.406   .     A
C1516  C507    1.513   1_556 S
C1517  O1676   1.287   .     A
C1517  C1519   1.465   .     S
C1517  O1678   1.299   .     A
C1518  O1677   1.290   .     A
C1518  C1520   1.460   .     S
C1518  O1679   1.297   .     A
C1519  C1856   1.359   1_455 S
C1519  O2016   1.399   1_455 S
C1520  C1687   1.359   .     S
C1520  O1828   1.395   .     S
C1521  O1661   1.386   .     S
C1521  C1532   1.403   .     A
C1521  C1523   1.395   .     A
C1522  C1533   1.410   .     A
C1522  C1525   1.407   .     A
C1522  O1662   1.383   .     S
C1523  C1526   1.408   .     A
C1523  O1663   1.382   .     S
C1524  C1527   1.482   .     S
C1524  O1675   1.304   .     A
C1524  O1670   1.297   .     A
C1525  C1527   1.412   .     A
C1525  O1664   1.380   .     S
C1526  C1528   1.416   .     A
C1527  C1529   1.408   .     A
C1528  C1530   1.416   .     A
C1528  O1665   1.391   .     S
C1529  O1666   1.386   .     S
C1529  C1531   1.396   .     A
C1530  C1532   1.421   .     A
C1530  O1667   1.385   .     S
C1531  C1533   1.410   .     A
C1531  O1668   1.384   .     S
C1533  C1028   1.482   1_565 S
C1534  H1619   1.111   .     S
C1534  H1630   1.115   .     S
C1534  C1872   1.519   1_455 S
C1534  O2016   1.421   1_455 S
C1535  C1557   1.410   .     A
C1535  H1575   1.082   .     S
C1536  H1641   1.109   .     S
C1536  H1656   1.109   .     S
C1536  C1702   1.519   .     S
C1536  H1820   1.110   .     S
C1537  C1538   1.500   .     S
C1537  O1660   1.414   .     S
C1537  H1912   1.111   1_455 S
C1537  H1913   1.115   1_455 S
C1538  H1579   1.106   .     S
C1538  H1578   1.103   .     S
C1538  H1580   1.107   .     S
C1539  H1581   1.108   .     S
C1539  O1661   1.415   .     S
C1539  H1582   1.112   .     S
C1539  C1540   1.521   .     S
C1540  H1585   1.109   .     S
C1540  H1583   1.109   .     S
C1540  H1920   1.110   1_455 S
C1541  H1588   1.113   .     S
C1541  O1662   1.409   .     S
C1541  C1038   1.518   1_565 S
C1541  H1083   1.113   1_565 S
C1542  H1589   1.111   .     S
C1542  H1591   1.111   .     S
C1542  H1590   1.110   .     S
C1543  C1544   1.523   .     S
C1543  H1592   1.110   .     S
C1543  O1663   1.423   .     S
C1543  H1593   1.115   .     S
C1544  H1596   1.109   .     S
C1544  H1595   1.110   .     S
C1544  H1594   1.110   .     S
C1545  H1599   1.112   .     S
C1545  C1547   1.511   .     S
C1545  O1664   1.408   .     S
C1545  H1598   1.109   .     S
C1546  C1568   1.418   .     A
C1546  H1586   1.082   .     S
C1547  H1602   1.110   .     S
C1547  H1600   1.111   .     S
C1547  H1601   1.109   .     S
C1548  C1549   1.541   .     S
C1548  H1604   1.106   .     S
C1548  O1665   1.418   .     S
C1548  H1603   1.111   .     S
C1549  H1605   1.107   .     S
C1549  H1606   1.111   .     S
C1549  C1718   1.527   .     S
C1550  H1610   1.110   .     S
C1550  H1607   1.109   .     S
C1550  H1609   1.110   .     S
C1550  C1885   1.527   1_455 S
C1551  O1666   1.424   .     S
C1551  C1552   1.535   .     S
C1551  H1612   1.111   .     S
C1551  H1611   1.105   .     S
C1552  H1613   1.110   .     S
C1552  C1553   1.524   .     S
C1552  H1614   1.105   .     S
C1553  H1615   1.110   .     S
C1553  H1952   1.108   1_455 S
C1553  H1953   1.105   1_455 S
C1554  O1667   1.416   .     S
C1554  H1620   1.108   .     S
C1555  H1622   1.109   .     S
C1555  H1623   1.108   .     S
C1555  H1621   1.110   .     S
C1555  C1050   1.519   1_565 S
C1556  C1558   1.521   .     S
C1556  O1668   1.411   .     S
C1556  H1624   1.110   .     S
C1556  H1625   1.114   .     S
C1557  N1657   1.362   .     A
C1557  H1597   1.077   .     S
C1558  H1627   1.110   .     S
C1558  H1626   1.110   .     S
C1558  H1124   1.108   1_565 S
C1559  C1560   1.540   .     S
C1559  O1669   1.422   .     S
C1559  H1631   1.117   .     S
C1559  H1629   1.110   .     S
C1560  H1632   1.110   .     S
C1560  H1633   1.111   .     S
C1560  C1561   1.529   .     S
C1561  H1636   1.109   .     S
C1561  H1634   1.108   .     S
C1561  H1971   1.110   1_455 S
C1562  H1638   1.112   .     S
C1562  C1563   1.535   .     S
C1562  H1637   1.105   .     S
C1562  O1671   1.416   .     S
C1563  C1564   1.524   .     S
C1563  H1640   1.110   .     S
C1563  H1639   1.108   .     S
C1564  H1644   1.108   .     S
C1564  H1643   1.110   .     S
C1564  H1810   1.109   .     S
C1565  H1645   1.112   .     S
C1565  O1672   1.416   .     S
C1565  H1646   1.114   .     S
C1565  C894    1.525   1_455 S
C1566  H1649   1.108   .     S
C1566  H1648   1.110   .     S
C1566  C725    1.525   1_556 S
C1566  H639    1.109   1_556 S
C1567  H1650   1.108   .     S
C1567  H1651   1.110   .     S
C1567  O1673   1.416   .     S
C1567  C1569   1.523   .     S
C1568  H1608   1.070   .     S
C1568  N1658   1.367   .     A
C1569  H1655   1.109   .     S
C1569  H1654   1.110   .     S
C1569  H1653   1.108   .     S
C1570  N1657   1.374   .     A
C1570  C1572   1.425   .     A
C1570  O1669   1.386   .     S
C1571  O1671   1.376   .     S
C1571  N1658   1.383   .     A
C1572  O1672   1.384   .     S
Cu1573 O1676   1.991   .     S
Cu1573 O1679   1.992   .     S
Cu1573 N1658   2.018   .     S
Cu1573 O1675   1.970   .     S
Cu1573 O1659   1.970   .     S
Cu1573 Cu1574  2.686   .     S
Cu1574 N1657   2.018   .     S
Cu1574 O1670   1.970   .     S
Cu1574 O1678   1.992   .     S
Cu1574 O1674   1.970   .     S
Cu1574 O1677   1.991   .     S
H1576  C1705   1.111   .     S
H1577  C1705   1.115   .     S
H1584  C1708   1.110   .     S
H1616  C1721   1.108   .     S
H1617  C1721   1.105   .     S
H1618  C1050   1.110   1_565 S
H1635  C1729   1.110   .     S
H1642  C1900   1.109   1_455 S
H1652  C1872   1.110   1_455 S
O1660  C1856   1.395   1_455 S
O1680  C1702   1.421   .     S
O1680  C1687   1.399   .     S
C1681  O1827   1.299   .     A
C1681  O1842   1.302   .     A
C1681  C1694   1.480   .     S
C1682  O1841   1.382   .     S
C1682  C1739   1.418   .     A
C1682  C1684   1.399   .     A
C1683  C1703   1.410   .     A
C1683  C1740   1.408   .     A
C1684  C1714   1.406   .     A
C1684  C675    1.513   1_556 S
C1685  O1844   1.287   .     A
C1685  C1687   1.465   .     S
C1685  O1846   1.299   .     A
C1686  O1845   1.290   .     A
C1686  C1688   1.460   .     S
C1686  O1847   1.297   .     A
C1688  C1855   1.359   .     S
C1688  O1996   1.395   .     S
C1689  O1829   1.386   .     S
C1689  C1700   1.403   .     A
C1689  C1691   1.395   .     A
C1690  C1701   1.410   .     A
C1690  C1693   1.407   .     A
C1690  O1830   1.383   .     S
C1691  C1694   1.408   .     A
C1691  O1831   1.382   .     S
C1692  C1695   1.482   .     S
C1692  O1843   1.304   .     A
C1692  O1838   1.297   .     A
C1693  C1695   1.412   .     A
C1693  O1832   1.380   .     S
C1694  C1696   1.416   .     A
C1695  C1697   1.408   .     A
C1696  C1698   1.416   .     A
C1696  O1833   1.391   .     S
C1697  O1834   1.386   .     S
C1697  C1699   1.396   .     A
C1698  C1700   1.421   .     A
C1698  O1835   1.385   .     S
C1699  C1701   1.410   .     A
C1699  O1836   1.384   .     S
C1701  C1196   1.482   1_565 S
C1702  H1787   1.111   .     S
C1702  H1798   1.115   .     S
C1703  C1725   1.410   .     A
C1703  H1743   1.082   .     S
C1704  H1809   1.109   .     S
C1704  H1824   1.109   .     S
C1704  C1870   1.519   .     S
C1704  H1988   1.110   .     S
C1705  C1706   1.500   .     S
C1705  O1828   1.414   .     S
C1706  H1747   1.106   .     S
C1706  H1746   1.103   .     S
C1706  H1748   1.107   .     S
C1707  H1749   1.108   .     S
C1707  O1829   1.415   .     S
C1707  H1750   1.112   .     S
C1707  C1708   1.521   .     S
C1708  H1753   1.109   .     S
C1708  H1751   1.109   .     S
C1709  H1756   1.113   .     S
C1709  O1830   1.409   .     S
C1709  C1206   1.518   1_565 S
C1709  H1251   1.113   1_565 S
C1710  H1757   1.111   .     S
C1710  H1759   1.111   .     S
C1710  H1758   1.110   .     S
C1711  C1712   1.523   .     S
C1711  H1760   1.110   .     S
C1711  O1831   1.423   .     S
C1711  H1761   1.115   .     S
C1712  H1764   1.109   .     S
C1712  H1763   1.110   .     S
C1712  H1762   1.110   .     S
C1713  H1767   1.112   .     S
C1713  C1715   1.511   .     S
C1713  O1832   1.408   .     S
C1713  H1766   1.109   .     S
C1714  C1736   1.418   .     A
C1714  H1754   1.082   .     S
C1715  H1770   1.110   .     S
C1715  H1768   1.111   .     S
C1715  H1769   1.109   .     S
C1716  C1717   1.541   .     S
C1716  H1772   1.106   .     S
C1716  O1833   1.418   .     S
C1716  H1771   1.111   .     S
C1717  H1773   1.107   .     S
C1717  H1774   1.111   .     S
C1717  C1886   1.527   .     S
C1718  H1778   1.110   .     S
C1718  H1775   1.109   .     S
C1718  H1777   1.110   .     S
C1719  O1834   1.424   .     S
C1719  C1720   1.535   .     S
C1719  H1780   1.111   .     S
C1719  H1779   1.105   .     S
C1720  H1781   1.110   .     S
C1720  C1721   1.524   .     S
C1720  H1782   1.105   .     S
C1721  H1783   1.110   .     S
C1722  O1835   1.416   .     S
C1722  H1788   1.108   .     S
C1723  H1790   1.109   .     S
C1723  H1791   1.108   .     S
C1723  H1789   1.110   .     S
C1723  C1218   1.519   1_565 S
C1724  C1726   1.521   .     S
C1724  O1836   1.411   .     S
C1724  H1792   1.110   .     S
C1724  H1793   1.114   .     S
C1725  N1825   1.362   .     A
C1725  H1765   1.077   .     S
C1726  H1795   1.110   .     S
C1726  H1794   1.110   .     S
C1726  H1292   1.108   1_565 S
C1727  C1728   1.540   .     S
C1727  O1837   1.422   .     S
C1727  H1799   1.117   .     S
C1727  H1797   1.110   .     S
C1728  H1800   1.110   .     S
C1728  H1801   1.111   .     S
C1728  C1729   1.529   .     S
C1729  H1804   1.109   .     S
C1729  H1802   1.108   .     S
C1730  H1806   1.112   .     S
C1730  C1731   1.535   .     S
C1730  H1805   1.105   .     S
C1730  O1839   1.416   .     S
C1731  C1732   1.524   .     S
C1731  H1808   1.110   .     S
C1731  H1807   1.108   .     S
C1732  H1812   1.108   .     S
C1732  H1811   1.110   .     S
C1732  H1978   1.109   .     S
C1733  H1813   1.112   .     S
C1733  O1840   1.416   .     S
C1733  H1814   1.114   .     S
C1734  H1817   1.108   .     S
C1734  H1816   1.110   .     S
C1734  C893    1.525   1_556 S
C1734  H807    1.109   1_556 S
C1735  H1818   1.108   .     S
C1735  H1819   1.110   .     S
C1735  O1841   1.416   .     S
C1735  C1737   1.523   .     S
C1736  H1776   1.070   .     S
C1736  N1826   1.367   .     A
C1737  H1823   1.109   .     S
C1737  H1822   1.110   .     S
C1737  H1821   1.108   .     S
C1738  N1825   1.374   .     A
C1738  C1740   1.425   .     A
C1738  O1837   1.386   .     S
C1739  O1839   1.376   .     S
C1739  N1826   1.383   .     A
C1740  O1840   1.384   .     S
Cu1741 O1844   1.991   .     S
Cu1741 O1847   1.992   .     S
Cu1741 N1826   2.018   .     S
Cu1741 O1843   1.970   .     S
Cu1741 O1827   1.970   .     S
Cu1741 Cu1742  2.686   .     S
Cu1742 N1825   2.018   .     S
Cu1742 O1838   1.970   .     S
Cu1742 O1846   1.992   .     S
Cu1742 O1842   1.970   .     S
Cu1742 O1845   1.991   .     S
H1744  C1873   1.111   .     S
H1745  C1873   1.115   .     S
H1752  C1876   1.110   .     S
H1784  C1889   1.108   .     S
H1785  C1889   1.105   .     S
H1786  C1218   1.110   1_565 S
H1803  C1897   1.110   .     S
O1848  C1870   1.421   .     S
O1848  C1855   1.399   .     S
C1849  O1995   1.299   .     A
C1849  O2010   1.302   .     A
C1849  C1862   1.480   .     S
C1850  O2009   1.382   .     S
C1850  C1907   1.418   .     A
C1850  C1852   1.399   .     A
C1851  C1871   1.410   .     A
C1851  C1908   1.408   .     A
C1852  C1882   1.406   .     A
C1852  C843    1.513   1_556 S
C1853  O2012   1.287   .     A
C1853  C1855   1.465   .     S
C1853  O2014   1.299   .     A
C1854  O2013   1.290   .     A
C1854  C1856   1.460   .     S
C1854  O2015   1.297   .     A
C1856  C1519   1.359   1_655 S
C1856  O1660   1.395   1_655 S
C1857  O1997   1.386   .     S
C1857  C1868   1.403   .     A
C1857  C1859   1.395   .     A
C1858  C1869   1.410   .     A
C1858  C1861   1.407   .     A
C1858  O1998   1.383   .     S
C1859  C1862   1.408   .     A
C1859  O1999   1.382   .     S
C1860  C1863   1.482   .     S
C1860  O2011   1.304   .     A
C1860  O2006   1.297   .     A
C1861  C1863   1.412   .     A
C1861  O2000   1.380   .     S
C1862  C1864   1.416   .     A
C1863  C1865   1.408   .     A
C1864  C1866   1.416   .     A
C1864  O2001   1.391   .     S
C1865  O2002   1.386   .     S
C1865  C1867   1.396   .     A
C1866  C1868   1.421   .     A
C1866  O2003   1.385   .     S
C1867  C1869   1.410   .     A
C1867  O2004   1.384   .     S
C1869  C1364   1.482   1_565 S
C1870  H1955   1.111   .     S
C1870  H1966   1.115   .     S
C1871  C1893   1.410   .     A
C1871  H1911   1.082   .     S
C1872  H1977   1.109   .     S
C1872  H1992   1.109   .     S
C1872  C1534   1.519   1_655 S
C1872  H1652   1.110   1_655 S
C1873  C1874   1.500   .     S
C1873  O1996   1.414   .     S
C1874  H1915   1.106   .     S
C1874  H1914   1.103   .     S
C1874  H1916   1.107   .     S
C1875  H1917   1.108   .     S
C1875  O1997   1.415   .     S
C1875  H1918   1.112   .     S
C1875  C1876   1.521   .     S
C1876  H1921   1.109   .     S
C1876  H1919   1.109   .     S
C1877  H1924   1.113   .     S
C1877  O1998   1.409   .     S
C1877  C1374   1.518   1_565 S
C1877  H1419   1.113   1_565 S
C1878  H1925   1.111   .     S
C1878  H1927   1.111   .     S
C1878  H1926   1.110   .     S
C1879  C1880   1.523   .     S
C1879  H1928   1.110   .     S
C1879  O1999   1.423   .     S
C1879  H1929   1.115   .     S
C1880  H1932   1.109   .     S
C1880  H1931   1.110   .     S
C1880  H1930   1.110   .     S
C1881  H1935   1.112   .     S
C1881  C1883   1.511   .     S
C1881  O2000   1.408   .     S
C1881  H1934   1.109   .     S
C1882  C1904   1.418   .     A
C1882  H1922   1.082   .     S
C1883  H1938   1.110   .     S
C1883  H1936   1.111   .     S
C1883  H1937   1.109   .     S
C1884  C1885   1.541   .     S
C1884  H1940   1.106   .     S
C1884  O2001   1.418   .     S
C1884  H1939   1.111   .     S
C1885  H1941   1.107   .     S
C1885  H1942   1.111   .     S
C1885  C1550   1.527   1_655 S
C1886  H1946   1.110   .     S
C1886  H1943   1.109   .     S
C1886  H1945   1.110   .     S
C1887  O2002   1.424   .     S
C1887  C1888   1.535   .     S
C1887  H1948   1.111   .     S
C1887  H1947   1.105   .     S
C1888  H1949   1.110   .     S
C1888  C1889   1.524   .     S
C1888  H1950   1.105   .     S
C1889  H1951   1.110   .     S
C1890  O2003   1.416   .     S
C1890  H1956   1.108   .     S
C1891  H1958   1.109   .     S
C1891  H1959   1.108   .     S
C1891  H1957   1.110   .     S
C1891  C1386   1.519   1_565 S
C1892  C1894   1.521   .     S
C1892  O2004   1.411   .     S
C1892  H1960   1.110   .     S
C1892  H1961   1.114   .     S
C1893  N1993   1.362   .     A
C1893  H1933   1.077   .     S
C1894  H1963   1.110   .     S
C1894  H1962   1.110   .     S
C1894  H1460   1.108   1_565 S
C1895  C1896   1.540   .     S
C1895  O2005   1.422   .     S
C1895  H1967   1.117   .     S
C1895  H1965   1.110   .     S
C1896  H1968   1.110   .     S
C1896  H1969   1.111   .     S
C1896  C1897   1.529   .     S
C1897  H1972   1.109   .     S
C1897  H1970   1.108   .     S
C1898  H1974   1.112   .     S
C1898  C1899   1.535   .     S
C1898  H1973   1.105   .     S
C1898  O2007   1.416   .     S
C1899  C1900   1.524   .     S
C1899  H1976   1.110   .     S
C1899  H1975   1.108   .     S
C1900  H1980   1.108   .     S
C1900  H1979   1.110   .     S
C1900  H1642   1.109   1_655 S
C1901  H1981   1.112   .     S
C1901  O2008   1.416   .     S
C1901  H1982   1.114   .     S
C1902  H1985   1.108   .     S
C1902  H1984   1.110   .     S
C1902  C557    1.525   1_656 S
C1902  H975    1.109   1_556 S
C1903  H1986   1.108   .     S
C1903  H1987   1.110   .     S
C1903  O2009   1.416   .     S
C1903  C1905   1.523   .     S
C1904  H1944   1.070   .     S
C1904  N1994   1.367   .     A
C1905  H1991   1.109   .     S
C1905  H1990   1.110   .     S
C1905  H1989   1.108   .     S
C1906  N1993   1.374   .     A
C1906  C1908   1.425   .     A
C1906  O2005   1.386   .     S
C1907  O2007   1.376   .     S
C1907  N1994   1.383   .     A
C1908  O2008   1.384   .     S
Cu1909 O2012   1.991   .     S
Cu1909 O2015   1.992   .     S
Cu1909 N1994   2.018   .     S
Cu1909 O2011   1.970   .     S
Cu1909 O1995   1.970   .     S
Cu1909 Cu1910  2.686   .     S
Cu1910 N1993   2.018   .     S
Cu1910 O2006   1.970   .     S
Cu1910 O2014   1.992   .     S
Cu1910 O2010   1.970   .     S
Cu1910 O2013   1.991   .     S
H1912  C1537   1.111   1_655 S
H1913  C1537   1.115   1_655 S
H1920  C1540   1.110   1_655 S
H1952  C1553   1.108   1_655 S
H1953  C1553   1.105   1_655 S
H1954  C1386   1.110   1_565 S
H1971  C1561   1.110   1_655 S
O2016  C1534   1.421   1_655 S
O2016  C1519   1.399   1_655 S
