data_str_m1_o10_o16_pcu_sym.108
_audit_creation_date              2020-01-03
_audit_creation_method            'Materials Studio'
_symmetry_space_group_name_H-M    'P1'
_symmetry_Int_Tables_number       1
_symmetry_cell_setting            triclinic
loop_
_symmetry_equiv_pos_as_xyz
  x,y,z
_cell_length_a                    32.6342
_cell_length_b                    32.6334
_cell_length_c                    30.8509
_cell_angle_alpha                 95.4788
_cell_angle_beta                  75.1754
_cell_angle_gamma                 98.3976
loop_
_atom_site_label
_atom_site_type_symbol
_atom_site_fract_x
_atom_site_fract_y
_atom_site_fract_z
_atom_site_U_iso_or_equiv
_atom_site_adp_type
_atom_site_occupancy
C1     C     0.05319   0.15895   0.26037   0.00000  Uiso   1.00
C2     C     0.17085   0.15483   0.05772   0.00000  Uiso   1.00
C3     C     0.23004   0.11787   0.05919   0.00000  Uiso   1.00
C4     C     0.28098   0.17436   0.24062   0.00000  Uiso   1.00
C5     C     0.14662   0.19378   0.42039   0.00000  Uiso   1.00
C6     C     0.32686   0.17944   0.23951   0.00000  Uiso   1.00
C7     C     0.00817   0.15428   0.26377   0.00000  Uiso   1.00
C8     C     0.17845   0.32287   0.23472   0.00000  Uiso   1.00
C9     C     0.15216   0.01268   0.26647   0.00000  Uiso   1.00
C10    C     0.15605   0.05628   0.26084   0.00000  Uiso   1.00
C11    C     0.17640   0.27803   0.23972   0.00000  Uiso   1.00
C12    C     0.09231   0.20225   0.49019   0.00000  Uiso   1.00
C13    C     0.18534   0.14832   0.12951   0.00000  Uiso   1.00
C14    C     0.15113   0.18632   0.37080   0.00000  Uiso   1.00
C15    C     0.24234   0.11559   0.01145   0.00000  Uiso   1.00
C16    C     0.19527   0.13923   0.08133   0.00000  Uiso   1.00
C17    C     0.11475   0.21691   0.44736   0.00000  Uiso   1.00
C18    C     0.25382   0.09822   0.08688   0.00000  Uiso   1.00
C19    C     0.28715   0.12919   0.10385   0.00000  Uiso   1.00
C20    C     0.31472   0.11765   0.28988   0.00000  Uiso   1.00
C21    C     0.00630   0.09000   0.30853   0.00000  Uiso   1.00
C22    C     0.20930   0.01126   0.19420   0.00000  Uiso   1.00
C23    C     0.10882   0.17097   0.00765   0.00000  Uiso   1.00
C24    C     0.23794   0.31857   0.15842   0.00000  Uiso   1.00
C25    C     0.12130   0.33031   0.30996   0.00000  Uiso   1.00
C26    C     0.09882   0.03016   0.34226   0.00000  Uiso   1.00
C27    C     0.24553   0.09360   0.40969   0.00000  Uiso   1.00
C28    C     0.21980   0.07304   0.37650   0.00000  Uiso   1.00
C29    C     0.28879   0.10949   0.48846   0.00000  Uiso   1.00
C30    C     0.29721   0.06392   0.48089   0.00000  Uiso   1.00
C31    C     0.10637   0.25675   0.43060   0.00000  Uiso   1.00
C32    C     0.11700   0.29522   0.46015   0.00000  Uiso   1.00
C33    C     0.07908   0.13998   0.03966   0.00000  Uiso   1.00
C34    C     0.15191   0.16379   0.48801   0.00000  Uiso   1.00
C35    C     0.07631   0.09627   0.01697   0.00000  Uiso   1.00
C36    C     0.05050   0.21808   0.01584   0.00000  Uiso   1.00
C37    C     0.05309   0.23797   0.06220   0.00000  Uiso   1.00
C38    C     0.02560   0.21274   0.21185   0.00000  Uiso   1.00
C39    C     0.00860   0.24156   0.18619   0.00000  Uiso   1.00
C40    C     0.16936   0.17209   0.44257   0.00000  Uiso   1.00
C41    C     0.17786   0.14760   0.01139   0.00000  Uiso   1.00
C42    C     0.21463   0.12880   0.48738   0.00000  Uiso   1.00
C43    C     0.22387   0.12761   0.44000   0.00000  Uiso   1.00
C44    C     0.20794   0.15653   0.42036   0.00000  Uiso   1.00
H45    H     0.29968   0.15524   0.08151   0.00000  Uiso   1.00
H46    H     0.29759   0.09704   0.26760   0.00000  Uiso   1.00
H47    H     0.26112   0.30599   0.17276   0.00000  Uiso   1.00
H48    H     0.21844   0.29330   0.14313   0.00000  Uiso   1.00
H49    H     0.25665   0.00535   0.13121   0.00000  Uiso   1.00
H50    H     0.19008   0.02582   0.17637   0.00000  Uiso   1.00
H51    H     0.23071   0.03652   0.20708   0.00000  Uiso   1.00
H52    H     0.12244   0.05321   0.35465   0.00000  Uiso   1.00
H53    H     0.07986   0.04614   0.32547   0.00000  Uiso   1.00
H54    H     0.07669   0.01518   0.37175   0.00000  Uiso   1.00
H55    H     0.09553   0.30737   0.30116   0.00000  Uiso   1.00
H56    H     0.27314   0.14208   0.13809   0.00000  Uiso   1.00
H57    H     0.13921   0.31552   0.32910   0.00000  Uiso   1.00
H58    H     0.18654   0.06206   0.39469   0.00000  Uiso   1.00
H59    H     0.21915   0.09496   0.35144   0.00000  Uiso   1.00
H60    H     0.23483   0.04594   0.35811   0.00000  Uiso   1.00
H61    H     0.27791   0.10639   0.39116   0.00000  Uiso   1.00
H62    H     0.24782   0.06824   0.42975   0.00000  Uiso   1.00
H63    H     0.31885   0.05773   0.00136   0.00000  Uiso   1.00
H64    H     0.26714   0.04227   0.48987   0.00000  Uiso   1.00
H65    H     0.31338   0.05712   0.44513   0.00000  Uiso   1.00
H66    H     0.30001   0.12510   0.45644   0.00000  Uiso   1.00
H67    H     0.31424   0.11308   0.10592   0.00000  Uiso   1.00
H68    H     0.31022   0.12634   0.00873   0.00000  Uiso   1.00
H69    H     0.14772   0.17499   0.07580   0.00000  Uiso   1.00
H70    H     0.09332   0.29656   0.49290   0.00000  Uiso   1.00
H71    H     0.14933   0.29569   0.46587   0.00000  Uiso   1.00
H72    H     0.11672   0.32360   0.44304   0.00000  Uiso   1.00
H73    H     0.12748   0.26311   0.39704   0.00000  Uiso   1.00
H74    H     0.07304   0.25434   0.42722   0.00000  Uiso   1.00
H75    H     0.05254   0.07499   0.03971   0.00000  Uiso   1.00
H76    H     0.06604   0.09645   0.48531   0.00000  Uiso   1.00
H77    H     0.10768   0.08427   0.00932   0.00000  Uiso   1.00
H78    H     0.23067   0.08359   0.11601   0.00000  Uiso   1.00
H79    H     0.08869   0.13898   0.07129   0.00000  Uiso   1.00
H80    H     0.04607   0.14767   0.05052   0.00000  Uiso   1.00
H81    H     0.02343   0.25205   0.07808   0.00000  Uiso   1.00
H82    H     0.08079   0.26260   0.05935   0.00000  Uiso   1.00
H83    H     0.05643   0.21465   0.08456   0.00000  Uiso   1.00
H84    H     0.04088   0.24117   0.49768   0.00000  Uiso   1.00
H85    H     0.02365   0.19261   0.01913   0.00000  Uiso   1.00
H86    H     0.22525   0.16429   0.38684   0.00000  Uiso   1.00
H87    H     0.32903   0.22383   0.15900   0.00000  Uiso   1.00
H88    H     0.31738   0.25884   0.20940   0.00000  Uiso   1.00
H89    H     0.26944   0.07205   0.06758   0.00000  Uiso   1.00
H90    H     0.03530   0.26469   0.17010   0.00000  Uiso   1.00
H91    H     0.04184   0.23322   0.23496   0.00000  Uiso   1.00
H92    H     0.05034   0.19696   0.18690   0.00000  Uiso   1.00
H93    H     0.02886   0.07452   0.28084   0.00000  Uiso   1.00
H94    H     0.02396   0.10847   0.33172   0.00000  Uiso   1.00
H95    H     0.31704   0.06527   0.32746   0.00000  Uiso   1.00
H96    H     0.29144   0.13024   0.31911   0.00000  Uiso   1.00
O97    O     0.16667   0.16667   0.25000   0.00000  Uiso   1.00
O98    O     0.15451   0.12637   0.15459   0.00000  Uiso   1.00
O99    O     0.12940   0.20391   0.34968   0.00000  Uiso   1.00
O100   O     0.20824   0.17759   0.14606   0.00000  Uiso   1.00
O101   O     0.17451   0.15880   0.34968   0.00000  Uiso   1.00
O102   O     0.17930   0.08019   0.28214   0.00000  Uiso   1.00
O103   O     0.14632   0.26085   0.27014   0.00000  Uiso   1.00
O104   O     0.07412   0.13291   0.23413   0.00000  Uiso   1.00
O105   O     0.26693   0.19272   0.21361   0.00000  Uiso   1.00
O106   O     0.07071   0.18878   0.28213   0.00000  Uiso   1.00
O107   O     0.25491   0.15226   0.27014   0.00000  Uiso   1.00
O108   O     0.13760   0.06944   0.23413   0.00000  Uiso   1.00
O109   O     0.20345   0.25620   0.21361   0.00000  Uiso   1.00
Zn110  Zn    0.19338   0.13994   0.28734   0.00000  Uiso   1.00
Zn111  Zn    0.13379   0.12458   0.21876   0.00000  Uiso   1.00
Zn112  Zn    0.21056   0.19775   0.20657   0.00000  Uiso   1.00
Zn113  Zn    0.12893   0.20439   0.28734   0.00000  Uiso   1.00
C114   C     0.38652   0.15895   0.26037   0.00000  Uiso   1.00
C115   C     0.50419   0.15483   0.05772   0.00000  Uiso   1.00
C116   C     0.56337   0.11787   0.05919   0.00000  Uiso   1.00
C117   C     0.61431   0.17436   0.24062   0.00000  Uiso   1.00
C118   C     0.47995   0.19378   0.42039   0.00000  Uiso   1.00
C119   C     0.66019   0.17944   0.23951   0.00000  Uiso   1.00
C120   C     0.34150   0.15428   0.26377   0.00000  Uiso   1.00
C121   C     0.51178   0.32287   0.23472   0.00000  Uiso   1.00
C122   C     0.48549   0.01268   0.26647   0.00000  Uiso   1.00
C123   C     0.48939   0.05628   0.26084   0.00000  Uiso   1.00
C124   C     0.50974   0.27803   0.23972   0.00000  Uiso   1.00
C125   C     0.42564   0.20225   0.49019   0.00000  Uiso   1.00
C126   C     0.51868   0.14832   0.12951   0.00000  Uiso   1.00
C127   C     0.48446   0.18632   0.37080   0.00000  Uiso   1.00
C128   C     0.57567   0.11559   0.01145   0.00000  Uiso   1.00
C129   C     0.52860   0.13923   0.08133   0.00000  Uiso   1.00
C130   C     0.44808   0.21691   0.44736   0.00000  Uiso   1.00
C131   C     0.58715   0.09822   0.08688   0.00000  Uiso   1.00
C132   C     0.62048   0.12919   0.10385   0.00000  Uiso   1.00
C133   C     0.64805   0.11765   0.28988   0.00000  Uiso   1.00
C134   C     0.33963   0.09000   0.30853   0.00000  Uiso   1.00
C135   C     0.54263   0.01126   0.19420   0.00000  Uiso   1.00
C136   C     0.44215   0.17097   0.00765   0.00000  Uiso   1.00
C137   C     0.57127   0.31857   0.15842   0.00000  Uiso   1.00
C138   C     0.45463   0.33031   0.30996   0.00000  Uiso   1.00
C139   C     0.43215   0.03016   0.34226   0.00000  Uiso   1.00
C140   C     0.57886   0.09360   0.40969   0.00000  Uiso   1.00
C141   C     0.55314   0.07304   0.37650   0.00000  Uiso   1.00
C142   C     0.62212   0.10949   0.48846   0.00000  Uiso   1.00
C143   C     0.63055   0.06392   0.48089   0.00000  Uiso   1.00
C144   C     0.43970   0.25675   0.43060   0.00000  Uiso   1.00
C145   C     0.45033   0.29522   0.46015   0.00000  Uiso   1.00
C146   C     0.41242   0.13998   0.03966   0.00000  Uiso   1.00
C147   C     0.48524   0.16379   0.48801   0.00000  Uiso   1.00
C148   C     0.40964   0.09627   0.01697   0.00000  Uiso   1.00
C149   C     0.38383   0.21808   0.01584   0.00000  Uiso   1.00
C150   C     0.38643   0.23797   0.06220   0.00000  Uiso   1.00
C151   C     0.35893   0.21274   0.21185   0.00000  Uiso   1.00
C152   C     0.34193   0.24156   0.18619   0.00000  Uiso   1.00
C153   C     0.50269   0.17209   0.44257   0.00000  Uiso   1.00
C154   C     0.51120   0.14760   0.01139   0.00000  Uiso   1.00
C155   C     0.54796   0.12880   0.48738   0.00000  Uiso   1.00
C156   C     0.55721   0.12761   0.44000   0.00000  Uiso   1.00
C157   C     0.54128   0.15653   0.42036   0.00000  Uiso   1.00
H158   H     0.63301   0.15524   0.08151   0.00000  Uiso   1.00
H159   H     0.63092   0.09704   0.26760   0.00000  Uiso   1.00
H160   H     0.59445   0.30599   0.17276   0.00000  Uiso   1.00
H161   H     0.55177   0.29330   0.14313   0.00000  Uiso   1.00
H162   H     0.58999   0.00535   0.13121   0.00000  Uiso   1.00
H163   H     0.52341   0.02582   0.17637   0.00000  Uiso   1.00
H164   H     0.56404   0.03652   0.20708   0.00000  Uiso   1.00
H165   H     0.45578   0.05321   0.35465   0.00000  Uiso   1.00
H166   H     0.41319   0.04614   0.32547   0.00000  Uiso   1.00
H167   H     0.41003   0.01518   0.37175   0.00000  Uiso   1.00
H168   H     0.42887   0.30737   0.30116   0.00000  Uiso   1.00
H169   H     0.60647   0.14208   0.13809   0.00000  Uiso   1.00
H170   H     0.47255   0.31552   0.32910   0.00000  Uiso   1.00
H171   H     0.51987   0.06206   0.39469   0.00000  Uiso   1.00
H172   H     0.55248   0.09496   0.35144   0.00000  Uiso   1.00
H173   H     0.56816   0.04594   0.35811   0.00000  Uiso   1.00
H174   H     0.61125   0.10639   0.39116   0.00000  Uiso   1.00
H175   H     0.58116   0.06824   0.42975   0.00000  Uiso   1.00
H176   H     0.65219   0.05773   0.00136   0.00000  Uiso   1.00
H177   H     0.60047   0.04227   0.48987   0.00000  Uiso   1.00
H178   H     0.64671   0.05712   0.44513   0.00000  Uiso   1.00
H179   H     0.63334   0.12510   0.45644   0.00000  Uiso   1.00
H180   H     0.64757   0.11308   0.10592   0.00000  Uiso   1.00
H181   H     0.64355   0.12634   0.00873   0.00000  Uiso   1.00
H182   H     0.48106   0.17499   0.07580   0.00000  Uiso   1.00
H183   H     0.42665   0.29656   0.49290   0.00000  Uiso   1.00
H184   H     0.48267   0.29569   0.46587   0.00000  Uiso   1.00
H185   H     0.45005   0.32360   0.44304   0.00000  Uiso   1.00
H186   H     0.46081   0.26311   0.39704   0.00000  Uiso   1.00
H187   H     0.40637   0.25434   0.42722   0.00000  Uiso   1.00
H188   H     0.38587   0.07499   0.03971   0.00000  Uiso   1.00
H189   H     0.39937   0.09645   0.48531   0.00000  Uiso   1.00
H190   H     0.44101   0.08427   0.00932   0.00000  Uiso   1.00
H191   H     0.56400   0.08359   0.11601   0.00000  Uiso   1.00
H192   H     0.42203   0.13898   0.07129   0.00000  Uiso   1.00
H193   H     0.37941   0.14767   0.05052   0.00000  Uiso   1.00
H194   H     0.35676   0.25205   0.07808   0.00000  Uiso   1.00
H195   H     0.41412   0.26260   0.05935   0.00000  Uiso   1.00
H196   H     0.38976   0.21465   0.08456   0.00000  Uiso   1.00
H197   H     0.37421   0.24117   0.49768   0.00000  Uiso   1.00
H198   H     0.35698   0.19261   0.01913   0.00000  Uiso   1.00
H199   H     0.55858   0.16429   0.38684   0.00000  Uiso   1.00
H200   H     0.66236   0.22383   0.15900   0.00000  Uiso   1.00
H201   H     0.65071   0.25884   0.20940   0.00000  Uiso   1.00
H202   H     0.60278   0.07205   0.06758   0.00000  Uiso   1.00
H203   H     0.36864   0.26469   0.17010   0.00000  Uiso   1.00
H204   H     0.37517   0.23322   0.23496   0.00000  Uiso   1.00
H205   H     0.38368   0.19696   0.18690   0.00000  Uiso   1.00
H206   H     0.36219   0.07452   0.28084   0.00000  Uiso   1.00
H207   H     0.35730   0.10847   0.33172   0.00000  Uiso   1.00
H208   H     0.65038   0.06527   0.32746   0.00000  Uiso   1.00
H209   H     0.62477   0.13024   0.31911   0.00000  Uiso   1.00
O210   O     0.50000   0.16667   0.25000   0.00000  Uiso   1.00
O211   O     0.48784   0.12637   0.15459   0.00000  Uiso   1.00
O212   O     0.46274   0.20391   0.34968   0.00000  Uiso   1.00
O213   O     0.54157   0.17759   0.14606   0.00000  Uiso   1.00
O214   O     0.50785   0.15880   0.34968   0.00000  Uiso   1.00
O215   O     0.51264   0.08019   0.28214   0.00000  Uiso   1.00
O216   O     0.47965   0.26085   0.27014   0.00000  Uiso   1.00
O217   O     0.40745   0.13291   0.23413   0.00000  Uiso   1.00
O218   O     0.60026   0.19272   0.21361   0.00000  Uiso   1.00
O219   O     0.40405   0.18878   0.28213   0.00000  Uiso   1.00
O220   O     0.58824   0.15226   0.27014   0.00000  Uiso   1.00
O221   O     0.47093   0.06944   0.23413   0.00000  Uiso   1.00
O222   O     0.53678   0.25620   0.21361   0.00000  Uiso   1.00
Zn223  Zn    0.52672   0.13994   0.28734   0.00000  Uiso   1.00
Zn224  Zn    0.46713   0.12458   0.21876   0.00000  Uiso   1.00
Zn225  Zn    0.54389   0.19775   0.20657   0.00000  Uiso   1.00
Zn226  Zn    0.46226   0.20439   0.28734   0.00000  Uiso   1.00
C227   C     0.71985   0.15895   0.26037   0.00000  Uiso   1.00
C228   C     0.83752   0.15483   0.05772   0.00000  Uiso   1.00
C229   C     0.89671   0.11787   0.05919   0.00000  Uiso   1.00
C230   C     0.94765   0.17436   0.24062   0.00000  Uiso   1.00
C231   C     0.81328   0.19378   0.42039   0.00000  Uiso   1.00
C232   C     0.99353   0.17944   0.23951   0.00000  Uiso   1.00
C233   C     0.67484   0.15428   0.26377   0.00000  Uiso   1.00
C234   C     0.84512   0.32287   0.23472   0.00000  Uiso   1.00
C235   C     0.81882   0.01268   0.26647   0.00000  Uiso   1.00
C236   C     0.82272   0.05628   0.26084   0.00000  Uiso   1.00
C237   C     0.84307   0.27803   0.23972   0.00000  Uiso   1.00
C238   C     0.75898   0.20225   0.49019   0.00000  Uiso   1.00
C239   C     0.85201   0.14832   0.12951   0.00000  Uiso   1.00
C240   C     0.81779   0.18632   0.37080   0.00000  Uiso   1.00
C241   C     0.90901   0.11559   0.01145   0.00000  Uiso   1.00
C242   C     0.86194   0.13923   0.08133   0.00000  Uiso   1.00
C243   C     0.78141   0.21691   0.44736   0.00000  Uiso   1.00
C244   C     0.92049   0.09822   0.08688   0.00000  Uiso   1.00
C245   C     0.95382   0.12919   0.10385   0.00000  Uiso   1.00
C246   C     0.98139   0.11765   0.28988   0.00000  Uiso   1.00
C247   C     0.67296   0.09000   0.30853   0.00000  Uiso   1.00
C248   C     0.87596   0.01126   0.19420   0.00000  Uiso   1.00
C249   C     0.77548   0.17097   0.00765   0.00000  Uiso   1.00
C250   C     0.90460   0.31857   0.15842   0.00000  Uiso   1.00
C251   C     0.78797   0.33031   0.30996   0.00000  Uiso   1.00
C252   C     0.76549   0.03016   0.34226   0.00000  Uiso   1.00
C253   C     0.91219   0.09360   0.40969   0.00000  Uiso   1.00
C254   C     0.88647   0.07304   0.37650   0.00000  Uiso   1.00
C255   C     0.95545   0.10949   0.48846   0.00000  Uiso   1.00
C256   C     0.96388   0.06392   0.48089   0.00000  Uiso   1.00
C257   C     0.77303   0.25675   0.43060   0.00000  Uiso   1.00
C258   C     0.78366   0.29522   0.46015   0.00000  Uiso   1.00
C259   C     0.74575   0.13998   0.03966   0.00000  Uiso   1.00
C260   C     0.81857   0.16379   0.48801   0.00000  Uiso   1.00
C261   C     0.74298   0.09627   0.01697   0.00000  Uiso   1.00
C262   C     0.71716   0.21808   0.01584   0.00000  Uiso   1.00
C263   C     0.71976   0.23797   0.06220   0.00000  Uiso   1.00
C264   C     0.69226   0.21274   0.21185   0.00000  Uiso   1.00
C265   C     0.67526   0.24156   0.18619   0.00000  Uiso   1.00
C266   C     0.83602   0.17209   0.44257   0.00000  Uiso   1.00
C267   C     0.84453   0.14760   0.01139   0.00000  Uiso   1.00
C268   C     0.88130   0.12880   0.48738   0.00000  Uiso   1.00
C269   C     0.89054   0.12761   0.44000   0.00000  Uiso   1.00
C270   C     0.87461   0.15653   0.42036   0.00000  Uiso   1.00
H271   H     0.96634   0.15524   0.08151   0.00000  Uiso   1.00
H272   H     0.96425   0.09704   0.26760   0.00000  Uiso   1.00
H273   H     0.92779   0.30599   0.17276   0.00000  Uiso   1.00
H274   H     0.88511   0.29330   0.14313   0.00000  Uiso   1.00
H275   H     0.92332   0.00535   0.13121   0.00000  Uiso   1.00
H276   H     0.85674   0.02582   0.17637   0.00000  Uiso   1.00
H277   H     0.89737   0.03652   0.20708   0.00000  Uiso   1.00
H278   H     0.78911   0.05321   0.35465   0.00000  Uiso   1.00
H279   H     0.74653   0.04614   0.32547   0.00000  Uiso   1.00
H280   H     0.74336   0.01518   0.37175   0.00000  Uiso   1.00
H281   H     0.76220   0.30737   0.30116   0.00000  Uiso   1.00
H282   H     0.93981   0.14208   0.13809   0.00000  Uiso   1.00
H283   H     0.80588   0.31552   0.32910   0.00000  Uiso   1.00
H284   H     0.85321   0.06206   0.39469   0.00000  Uiso   1.00
H285   H     0.88581   0.09496   0.35144   0.00000  Uiso   1.00
H286   H     0.90150   0.04594   0.35811   0.00000  Uiso   1.00
H287   H     0.94458   0.10639   0.39116   0.00000  Uiso   1.00
H288   H     0.91449   0.06824   0.42975   0.00000  Uiso   1.00
H289   H     0.98552   0.05773   0.00136   0.00000  Uiso   1.00
H290   H     0.93381   0.04227   0.48987   0.00000  Uiso   1.00
H291   H     0.98004   0.05712   0.44513   0.00000  Uiso   1.00
H292   H     0.96667   0.12510   0.45644   0.00000  Uiso   1.00
H293   H     0.98091   0.11308   0.10592   0.00000  Uiso   1.00
H294   H     0.97688   0.12634   0.00873   0.00000  Uiso   1.00
H295   H     0.81439   0.17499   0.07580   0.00000  Uiso   1.00
H296   H     0.75998   0.29656   0.49290   0.00000  Uiso   1.00
H297   H     0.81600   0.29569   0.46587   0.00000  Uiso   1.00
H298   H     0.78339   0.32360   0.44304   0.00000  Uiso   1.00
H299   H     0.79415   0.26311   0.39704   0.00000  Uiso   1.00
H300   H     0.73970   0.25434   0.42722   0.00000  Uiso   1.00
H301   H     0.71920   0.07499   0.03971   0.00000  Uiso   1.00
H302   H     0.73271   0.09645   0.48531   0.00000  Uiso   1.00
H303   H     0.77434   0.08427   0.00932   0.00000  Uiso   1.00
H304   H     0.89733   0.08359   0.11601   0.00000  Uiso   1.00
H305   H     0.75536   0.13898   0.07129   0.00000  Uiso   1.00
H306   H     0.71274   0.14767   0.05052   0.00000  Uiso   1.00
H307   H     0.69009   0.25205   0.07808   0.00000  Uiso   1.00
H308   H     0.74745   0.26260   0.05935   0.00000  Uiso   1.00
H309   H     0.72310   0.21465   0.08456   0.00000  Uiso   1.00
H310   H     0.70755   0.24117   0.49768   0.00000  Uiso   1.00
H311   H     0.69031   0.19261   0.01913   0.00000  Uiso   1.00
H312   H     0.89192   0.16429   0.38684   0.00000  Uiso   1.00
H313   H     0.99570   0.22383   0.15900   0.00000  Uiso   1.00
H314   H     0.98405   0.25884   0.20940   0.00000  Uiso   1.00
H315   H     0.93611   0.07205   0.06758   0.00000  Uiso   1.00
H316   H     0.70197   0.26469   0.17010   0.00000  Uiso   1.00
H317   H     0.70851   0.23322   0.23496   0.00000  Uiso   1.00
H318   H     0.71701   0.19696   0.18690   0.00000  Uiso   1.00
H319   H     0.69553   0.07452   0.28084   0.00000  Uiso   1.00
H320   H     0.69063   0.10847   0.33172   0.00000  Uiso   1.00
H321   H     0.98371   0.06527   0.32746   0.00000  Uiso   1.00
H322   H     0.95810   0.13024   0.31911   0.00000  Uiso   1.00
O323   O     0.83333   0.16667   0.25000   0.00000  Uiso   1.00
O324   O     0.82118   0.12637   0.15459   0.00000  Uiso   1.00
O325   O     0.79607   0.20391   0.34968   0.00000  Uiso   1.00
O326   O     0.87491   0.17759   0.14606   0.00000  Uiso   1.00
O327   O     0.84118   0.15880   0.34968   0.00000  Uiso   1.00
O328   O     0.84597   0.08019   0.28214   0.00000  Uiso   1.00
O329   O     0.81298   0.26085   0.27014   0.00000  Uiso   1.00
O330   O     0.74078   0.13291   0.23413   0.00000  Uiso   1.00
O331   O     0.93360   0.19272   0.21361   0.00000  Uiso   1.00
O332   O     0.73738   0.18878   0.28213   0.00000  Uiso   1.00
O333   O     0.92158   0.15226   0.27014   0.00000  Uiso   1.00
O334   O     0.80426   0.06944   0.23413   0.00000  Uiso   1.00
O335   O     0.87012   0.25620   0.21361   0.00000  Uiso   1.00
Zn336  Zn    0.86005   0.13994   0.28734   0.00000  Uiso   1.00
Zn337  Zn    0.80046   0.12458   0.21876   0.00000  Uiso   1.00
Zn338  Zn    0.87723   0.19775   0.20657   0.00000  Uiso   1.00
Zn339  Zn    0.79560   0.20439   0.28734   0.00000  Uiso   1.00
C340   C     0.05319   0.49229   0.26037   0.00000  Uiso   1.00
C341   C     0.17085   0.48817   0.05772   0.00000  Uiso   1.00
C342   C     0.23004   0.45120   0.05919   0.00000  Uiso   1.00
C343   C     0.28098   0.50769   0.24062   0.00000  Uiso   1.00
C344   C     0.14662   0.52711   0.42039   0.00000  Uiso   1.00
C345   C     0.32686   0.51277   0.23951   0.00000  Uiso   1.00
C346   C     0.00817   0.48761   0.26377   0.00000  Uiso   1.00
C347   C     0.17845   0.65620   0.23472   0.00000  Uiso   1.00
C348   C     0.15216   0.34601   0.26647   0.00000  Uiso   1.00
C349   C     0.15605   0.38961   0.26084   0.00000  Uiso   1.00
C350   C     0.17640   0.61137   0.23972   0.00000  Uiso   1.00
C351   C     0.09231   0.53558   0.49019   0.00000  Uiso   1.00
C352   C     0.18534   0.48166   0.12951   0.00000  Uiso   1.00
C353   C     0.15113   0.51965   0.37080   0.00000  Uiso   1.00
C354   C     0.24234   0.44893   0.01145   0.00000  Uiso   1.00
C355   C     0.19527   0.47256   0.08133   0.00000  Uiso   1.00
C356   C     0.11475   0.55025   0.44736   0.00000  Uiso   1.00
C357   C     0.25382   0.43155   0.08688   0.00000  Uiso   1.00
C358   C     0.28715   0.46252   0.10385   0.00000  Uiso   1.00
C359   C     0.31472   0.45099   0.28988   0.00000  Uiso   1.00
C360   C     0.00630   0.42334   0.30853   0.00000  Uiso   1.00
C361   C     0.20930   0.34459   0.19420   0.00000  Uiso   1.00
C362   C     0.10882   0.50430   0.00765   0.00000  Uiso   1.00
C363   C     0.23794   0.65191   0.15842   0.00000  Uiso   1.00
C364   C     0.12130   0.66364   0.30996   0.00000  Uiso   1.00
C365   C     0.09882   0.36349   0.34226   0.00000  Uiso   1.00
C366   C     0.24553   0.42693   0.40969   0.00000  Uiso   1.00
C367   C     0.21980   0.40638   0.37650   0.00000  Uiso   1.00
C368   C     0.28879   0.44283   0.48846   0.00000  Uiso   1.00
C369   C     0.29721   0.39725   0.48089   0.00000  Uiso   1.00
C370   C     0.10637   0.59009   0.43060   0.00000  Uiso   1.00
C371   C     0.11700   0.62855   0.46015   0.00000  Uiso   1.00
C372   C     0.07908   0.47331   0.03966   0.00000  Uiso   1.00
C373   C     0.15191   0.49713   0.48801   0.00000  Uiso   1.00
C374   C     0.07631   0.42961   0.01697   0.00000  Uiso   1.00
C375   C     0.05050   0.55141   0.01584   0.00000  Uiso   1.00
C376   C     0.05309   0.57130   0.06220   0.00000  Uiso   1.00
C377   C     0.02560   0.54607   0.21185   0.00000  Uiso   1.00
C378   C     0.00860   0.57489   0.18619   0.00000  Uiso   1.00
C379   C     0.16936   0.50542   0.44257   0.00000  Uiso   1.00
C380   C     0.17786   0.48093   0.01139   0.00000  Uiso   1.00
C381   C     0.21463   0.46213   0.48738   0.00000  Uiso   1.00
C382   C     0.22387   0.46094   0.44000   0.00000  Uiso   1.00
C383   C     0.20794   0.48986   0.42036   0.00000  Uiso   1.00
H384   H     0.29968   0.48857   0.08151   0.00000  Uiso   1.00
H385   H     0.29759   0.43037   0.26760   0.00000  Uiso   1.00
H386   H     0.26112   0.63932   0.17276   0.00000  Uiso   1.00
H387   H     0.21844   0.62663   0.14313   0.00000  Uiso   1.00
H388   H     0.25665   0.33869   0.13121   0.00000  Uiso   1.00
H389   H     0.19008   0.35916   0.17637   0.00000  Uiso   1.00
H390   H     0.23071   0.36985   0.20708   0.00000  Uiso   1.00
H391   H     0.12244   0.38655   0.35465   0.00000  Uiso   1.00
H392   H     0.07986   0.37948   0.32547   0.00000  Uiso   1.00
H393   H     0.07669   0.34851   0.37175   0.00000  Uiso   1.00
H394   H     0.09553   0.64070   0.30116   0.00000  Uiso   1.00
H395   H     0.27314   0.47542   0.13809   0.00000  Uiso   1.00
H396   H     0.13921   0.64885   0.32910   0.00000  Uiso   1.00
H397   H     0.18654   0.39539   0.39469   0.00000  Uiso   1.00
H398   H     0.21915   0.42829   0.35144   0.00000  Uiso   1.00
H399   H     0.23483   0.37927   0.35811   0.00000  Uiso   1.00
H400   H     0.27791   0.43972   0.39116   0.00000  Uiso   1.00
H401   H     0.24782   0.40157   0.42975   0.00000  Uiso   1.00
H402   H     0.31885   0.39106   0.00136   0.00000  Uiso   1.00
H403   H     0.26714   0.37560   0.48987   0.00000  Uiso   1.00
H404   H     0.31338   0.39045   0.44513   0.00000  Uiso   1.00
H405   H     0.30001   0.45844   0.45644   0.00000  Uiso   1.00
H406   H     0.31424   0.44641   0.10592   0.00000  Uiso   1.00
H407   H     0.31022   0.45967   0.00873   0.00000  Uiso   1.00
H408   H     0.14772   0.50833   0.07580   0.00000  Uiso   1.00
H409   H     0.09332   0.62989   0.49290   0.00000  Uiso   1.00
H410   H     0.14933   0.62902   0.46587   0.00000  Uiso   1.00
H411   H     0.11672   0.65693   0.44304   0.00000  Uiso   1.00
H412   H     0.12748   0.59644   0.39704   0.00000  Uiso   1.00
H413   H     0.07304   0.58767   0.42722   0.00000  Uiso   1.00
H414   H     0.05254   0.40833   0.03971   0.00000  Uiso   1.00
H415   H     0.06604   0.42978   0.48531   0.00000  Uiso   1.00
H416   H     0.10768   0.41760   0.00932   0.00000  Uiso   1.00
H417   H     0.23067   0.41692   0.11601   0.00000  Uiso   1.00
H418   H     0.08869   0.47231   0.07129   0.00000  Uiso   1.00
H419   H     0.04607   0.48101   0.05052   0.00000  Uiso   1.00
H420   H     0.02343   0.58539   0.07808   0.00000  Uiso   1.00
H421   H     0.08079   0.59594   0.05935   0.00000  Uiso   1.00
H422   H     0.05643   0.54799   0.08456   0.00000  Uiso   1.00
H423   H     0.04088   0.57450   0.49768   0.00000  Uiso   1.00
H424   H     0.02365   0.52595   0.01913   0.00000  Uiso   1.00
H425   H     0.22525   0.49762   0.38684   0.00000  Uiso   1.00
H426   H     0.32903   0.55716   0.15900   0.00000  Uiso   1.00
H427   H     0.31738   0.59217   0.20940   0.00000  Uiso   1.00
H428   H     0.26944   0.40538   0.06758   0.00000  Uiso   1.00
H429   H     0.03530   0.59803   0.17010   0.00000  Uiso   1.00
H430   H     0.04184   0.56655   0.23496   0.00000  Uiso   1.00
H431   H     0.05034   0.53030   0.18690   0.00000  Uiso   1.00
H432   H     0.02886   0.40785   0.28084   0.00000  Uiso   1.00
H433   H     0.02396   0.44181   0.33172   0.00000  Uiso   1.00
H434   H     0.31704   0.39861   0.32746   0.00000  Uiso   1.00
H435   H     0.29144   0.46357   0.31911   0.00000  Uiso   1.00
O436   O     0.16667   0.50000   0.25000   0.00000  Uiso   1.00
O437   O     0.15451   0.45970   0.15459   0.00000  Uiso   1.00
O438   O     0.12940   0.53724   0.34968   0.00000  Uiso   1.00
O439   O     0.20824   0.51092   0.14606   0.00000  Uiso   1.00
O440   O     0.17451   0.49213   0.34968   0.00000  Uiso   1.00
O441   O     0.17930   0.41352   0.28214   0.00000  Uiso   1.00
O442   O     0.14632   0.59418   0.27014   0.00000  Uiso   1.00
O443   O     0.07412   0.46625   0.23413   0.00000  Uiso   1.00
O444   O     0.26693   0.52605   0.21361   0.00000  Uiso   1.00
O445   O     0.07071   0.52211   0.28213   0.00000  Uiso   1.00
O446   O     0.25491   0.48559   0.27014   0.00000  Uiso   1.00
O447   O     0.13760   0.40277   0.23413   0.00000  Uiso   1.00
O448   O     0.20345   0.58953   0.21361   0.00000  Uiso   1.00
Zn449  Zn    0.19338   0.47327   0.28734   0.00000  Uiso   1.00
Zn450  Zn    0.13379   0.45791   0.21876   0.00000  Uiso   1.00
Zn451  Zn    0.21056   0.53109   0.20657   0.00000  Uiso   1.00
Zn452  Zn    0.12893   0.53773   0.28734   0.00000  Uiso   1.00
C453   C     0.38652   0.49229   0.26037   0.00000  Uiso   1.00
C454   C     0.50419   0.48817   0.05772   0.00000  Uiso   1.00
C455   C     0.56337   0.45120   0.05919   0.00000  Uiso   1.00
C456   C     0.61431   0.50769   0.24062   0.00000  Uiso   1.00
C457   C     0.47995   0.52711   0.42039   0.00000  Uiso   1.00
C458   C     0.66019   0.51277   0.23951   0.00000  Uiso   1.00
C459   C     0.34150   0.48761   0.26377   0.00000  Uiso   1.00
C460   C     0.51178   0.65620   0.23472   0.00000  Uiso   1.00
C461   C     0.48549   0.34601   0.26647   0.00000  Uiso   1.00
C462   C     0.48939   0.38961   0.26084   0.00000  Uiso   1.00
C463   C     0.50974   0.61137   0.23972   0.00000  Uiso   1.00
C464   C     0.42564   0.53558   0.49019   0.00000  Uiso   1.00
C465   C     0.51868   0.48166   0.12951   0.00000  Uiso   1.00
C466   C     0.48446   0.51965   0.37080   0.00000  Uiso   1.00
C467   C     0.57567   0.44893   0.01145   0.00000  Uiso   1.00
C468   C     0.52860   0.47256   0.08133   0.00000  Uiso   1.00
C469   C     0.44808   0.55025   0.44736   0.00000  Uiso   1.00
C470   C     0.58715   0.43155   0.08688   0.00000  Uiso   1.00
C471   C     0.62048   0.46252   0.10385   0.00000  Uiso   1.00
C472   C     0.64805   0.45099   0.28988   0.00000  Uiso   1.00
C473   C     0.33963   0.42334   0.30853   0.00000  Uiso   1.00
C474   C     0.54263   0.34459   0.19420   0.00000  Uiso   1.00
C475   C     0.44215   0.50430   0.00765   0.00000  Uiso   1.00
C476   C     0.57127   0.65191   0.15842   0.00000  Uiso   1.00
C477   C     0.45463   0.66364   0.30996   0.00000  Uiso   1.00
C478   C     0.43215   0.36349   0.34226   0.00000  Uiso   1.00
C479   C     0.57886   0.42693   0.40969   0.00000  Uiso   1.00
C480   C     0.55314   0.40638   0.37650   0.00000  Uiso   1.00
C481   C     0.62212   0.44283   0.48846   0.00000  Uiso   1.00
C482   C     0.63055   0.39725   0.48089   0.00000  Uiso   1.00
C483   C     0.43970   0.59009   0.43060   0.00000  Uiso   1.00
C484   C     0.45033   0.62855   0.46015   0.00000  Uiso   1.00
C485   C     0.41242   0.47331   0.03966   0.00000  Uiso   1.00
C486   C     0.48524   0.49713   0.48801   0.00000  Uiso   1.00
C487   C     0.40964   0.42961   0.01697   0.00000  Uiso   1.00
C488   C     0.38383   0.55141   0.01584   0.00000  Uiso   1.00
C489   C     0.38643   0.57130   0.06220   0.00000  Uiso   1.00
C490   C     0.35893   0.54607   0.21185   0.00000  Uiso   1.00
C491   C     0.34193   0.57489   0.18619   0.00000  Uiso   1.00
C492   C     0.50269   0.50542   0.44257   0.00000  Uiso   1.00
C493   C     0.51120   0.48093   0.01139   0.00000  Uiso   1.00
C494   C     0.54796   0.46213   0.48738   0.00000  Uiso   1.00
C495   C     0.55721   0.46094   0.44000   0.00000  Uiso   1.00
C496   C     0.54128   0.48986   0.42036   0.00000  Uiso   1.00
H497   H     0.63301   0.48857   0.08151   0.00000  Uiso   1.00
H498   H     0.63092   0.43037   0.26760   0.00000  Uiso   1.00
H499   H     0.59445   0.63932   0.17276   0.00000  Uiso   1.00
H500   H     0.55177   0.62663   0.14313   0.00000  Uiso   1.00
H501   H     0.58999   0.33869   0.13121   0.00000  Uiso   1.00
H502   H     0.52341   0.35916   0.17637   0.00000  Uiso   1.00
H503   H     0.56404   0.36985   0.20708   0.00000  Uiso   1.00
H504   H     0.45578   0.38655   0.35465   0.00000  Uiso   1.00
H505   H     0.41319   0.37948   0.32547   0.00000  Uiso   1.00
H506   H     0.41003   0.34851   0.37175   0.00000  Uiso   1.00
H507   H     0.42887   0.64070   0.30116   0.00000  Uiso   1.00
H508   H     0.60647   0.47542   0.13809   0.00000  Uiso   1.00
H509   H     0.47255   0.64885   0.32910   0.00000  Uiso   1.00
H510   H     0.51987   0.39539   0.39469   0.00000  Uiso   1.00
H511   H     0.55248   0.42829   0.35144   0.00000  Uiso   1.00
H512   H     0.56816   0.37927   0.35811   0.00000  Uiso   1.00
H513   H     0.61125   0.43972   0.39116   0.00000  Uiso   1.00
H514   H     0.58116   0.40157   0.42975   0.00000  Uiso   1.00
H515   H     0.65219   0.39106   0.00136   0.00000  Uiso   1.00
H516   H     0.60047   0.37560   0.48987   0.00000  Uiso   1.00
H517   H     0.64671   0.39045   0.44513   0.00000  Uiso   1.00
H518   H     0.63334   0.45844   0.45644   0.00000  Uiso   1.00
H519   H     0.64757   0.44641   0.10592   0.00000  Uiso   1.00
H520   H     0.64355   0.45967   0.00873   0.00000  Uiso   1.00
H521   H     0.48106   0.50833   0.07580   0.00000  Uiso   1.00
H522   H     0.42665   0.62989   0.49290   0.00000  Uiso   1.00
H523   H     0.48267   0.62902   0.46587   0.00000  Uiso   1.00
H524   H     0.45005   0.65693   0.44304   0.00000  Uiso   1.00
H525   H     0.46081   0.59644   0.39704   0.00000  Uiso   1.00
H526   H     0.40637   0.58767   0.42722   0.00000  Uiso   1.00
H527   H     0.38587   0.40833   0.03971   0.00000  Uiso   1.00
H528   H     0.39937   0.42978   0.48531   0.00000  Uiso   1.00
H529   H     0.44101   0.41760   0.00932   0.00000  Uiso   1.00
H530   H     0.56400   0.41692   0.11601   0.00000  Uiso   1.00
H531   H     0.42203   0.47231   0.07129   0.00000  Uiso   1.00
H532   H     0.37941   0.48101   0.05052   0.00000  Uiso   1.00
H533   H     0.35676   0.58539   0.07808   0.00000  Uiso   1.00
H534   H     0.41412   0.59594   0.05935   0.00000  Uiso   1.00
H535   H     0.38976   0.54799   0.08456   0.00000  Uiso   1.00
H536   H     0.37421   0.57450   0.49768   0.00000  Uiso   1.00
H537   H     0.35698   0.52595   0.01913   0.00000  Uiso   1.00
H538   H     0.55858   0.49762   0.38684   0.00000  Uiso   1.00
H539   H     0.66236   0.55716   0.15900   0.00000  Uiso   1.00
H540   H     0.65071   0.59217   0.20940   0.00000  Uiso   1.00
H541   H     0.60278   0.40538   0.06758   0.00000  Uiso   1.00
H542   H     0.36864   0.59803   0.17010   0.00000  Uiso   1.00
H543   H     0.37517   0.56655   0.23496   0.00000  Uiso   1.00
H544   H     0.38368   0.53030   0.18690   0.00000  Uiso   1.00
H545   H     0.36219   0.40785   0.28084   0.00000  Uiso   1.00
H546   H     0.35730   0.44181   0.33172   0.00000  Uiso   1.00
H547   H     0.65038   0.39861   0.32746   0.00000  Uiso   1.00
H548   H     0.62477   0.46357   0.31911   0.00000  Uiso   1.00
O549   O     0.50000   0.50000   0.25000   0.00000  Uiso   1.00
O550   O     0.48784   0.45970   0.15459   0.00000  Uiso   1.00
O551   O     0.46274   0.53724   0.34968   0.00000  Uiso   1.00
O552   O     0.54157   0.51092   0.14606   0.00000  Uiso   1.00
O553   O     0.50785   0.49213   0.34968   0.00000  Uiso   1.00
O554   O     0.51264   0.41352   0.28214   0.00000  Uiso   1.00
O555   O     0.47965   0.59418   0.27014   0.00000  Uiso   1.00
O556   O     0.40745   0.46625   0.23413   0.00000  Uiso   1.00
O557   O     0.60026   0.52605   0.21361   0.00000  Uiso   1.00
O558   O     0.40405   0.52211   0.28213   0.00000  Uiso   1.00
O559   O     0.58824   0.48559   0.27014   0.00000  Uiso   1.00
O560   O     0.47093   0.40277   0.23413   0.00000  Uiso   1.00
O561   O     0.53678   0.58953   0.21361   0.00000  Uiso   1.00
Zn562  Zn    0.52672   0.47327   0.28734   0.00000  Uiso   1.00
Zn563  Zn    0.46713   0.45791   0.21876   0.00000  Uiso   1.00
Zn564  Zn    0.54389   0.53109   0.20657   0.00000  Uiso   1.00
Zn565  Zn    0.46226   0.53773   0.28734   0.00000  Uiso   1.00
C566   C     0.71985   0.49229   0.26037   0.00000  Uiso   1.00
C567   C     0.83752   0.48817   0.05772   0.00000  Uiso   1.00
C568   C     0.89671   0.45120   0.05919   0.00000  Uiso   1.00
C569   C     0.94765   0.50769   0.24062   0.00000  Uiso   1.00
C570   C     0.81328   0.52711   0.42039   0.00000  Uiso   1.00
C571   C     0.99353   0.51277   0.23951   0.00000  Uiso   1.00
C572   C     0.67484   0.48761   0.26377   0.00000  Uiso   1.00
C573   C     0.84512   0.65620   0.23472   0.00000  Uiso   1.00
C574   C     0.81882   0.34601   0.26647   0.00000  Uiso   1.00
C575   C     0.82272   0.38961   0.26084   0.00000  Uiso   1.00
C576   C     0.84307   0.61137   0.23972   0.00000  Uiso   1.00
C577   C     0.75898   0.53558   0.49019   0.00000  Uiso   1.00
C578   C     0.85201   0.48166   0.12951   0.00000  Uiso   1.00
C579   C     0.81779   0.51965   0.37080   0.00000  Uiso   1.00
C580   C     0.90901   0.44893   0.01145   0.00000  Uiso   1.00
C581   C     0.86194   0.47256   0.08133   0.00000  Uiso   1.00
C582   C     0.78141   0.55025   0.44736   0.00000  Uiso   1.00
C583   C     0.92049   0.43155   0.08688   0.00000  Uiso   1.00
C584   C     0.95382   0.46252   0.10385   0.00000  Uiso   1.00
C585   C     0.98139   0.45099   0.28988   0.00000  Uiso   1.00
C586   C     0.67296   0.42334   0.30853   0.00000  Uiso   1.00
C587   C     0.87596   0.34459   0.19420   0.00000  Uiso   1.00
C588   C     0.77548   0.50430   0.00765   0.00000  Uiso   1.00
C589   C     0.90460   0.65191   0.15842   0.00000  Uiso   1.00
C590   C     0.78797   0.66364   0.30996   0.00000  Uiso   1.00
C591   C     0.76549   0.36349   0.34226   0.00000  Uiso   1.00
C592   C     0.91219   0.42693   0.40969   0.00000  Uiso   1.00
C593   C     0.88647   0.40638   0.37650   0.00000  Uiso   1.00
C594   C     0.95545   0.44283   0.48846   0.00000  Uiso   1.00
C595   C     0.96388   0.39725   0.48089   0.00000  Uiso   1.00
C596   C     0.77303   0.59009   0.43060   0.00000  Uiso   1.00
C597   C     0.78366   0.62855   0.46015   0.00000  Uiso   1.00
C598   C     0.74575   0.47331   0.03966   0.00000  Uiso   1.00
C599   C     0.81857   0.49713   0.48801   0.00000  Uiso   1.00
C600   C     0.74298   0.42961   0.01697   0.00000  Uiso   1.00
C601   C     0.71716   0.55141   0.01584   0.00000  Uiso   1.00
C602   C     0.71976   0.57130   0.06220   0.00000  Uiso   1.00
C603   C     0.69226   0.54607   0.21185   0.00000  Uiso   1.00
C604   C     0.67526   0.57489   0.18619   0.00000  Uiso   1.00
C605   C     0.83602   0.50542   0.44257   0.00000  Uiso   1.00
C606   C     0.84453   0.48093   0.01139   0.00000  Uiso   1.00
C607   C     0.88130   0.46213   0.48738   0.00000  Uiso   1.00
C608   C     0.89054   0.46094   0.44000   0.00000  Uiso   1.00
C609   C     0.87461   0.48986   0.42036   0.00000  Uiso   1.00
H610   H     0.96634   0.48857   0.08151   0.00000  Uiso   1.00
H611   H     0.96425   0.43037   0.26760   0.00000  Uiso   1.00
H612   H     0.92779   0.63932   0.17276   0.00000  Uiso   1.00
H613   H     0.88511   0.62663   0.14313   0.00000  Uiso   1.00
H614   H     0.92332   0.33869   0.13121   0.00000  Uiso   1.00
H615   H     0.85674   0.35916   0.17637   0.00000  Uiso   1.00
H616   H     0.89737   0.36985   0.20708   0.00000  Uiso   1.00
H617   H     0.78911   0.38655   0.35465   0.00000  Uiso   1.00
H618   H     0.74653   0.37948   0.32547   0.00000  Uiso   1.00
H619   H     0.74336   0.34851   0.37175   0.00000  Uiso   1.00
H620   H     0.76220   0.64070   0.30116   0.00000  Uiso   1.00
H621   H     0.93981   0.47542   0.13809   0.00000  Uiso   1.00
H622   H     0.80588   0.64885   0.32910   0.00000  Uiso   1.00
H623   H     0.85321   0.39539   0.39469   0.00000  Uiso   1.00
H624   H     0.88581   0.42829   0.35144   0.00000  Uiso   1.00
H625   H     0.90150   0.37927   0.35811   0.00000  Uiso   1.00
H626   H     0.94458   0.43972   0.39116   0.00000  Uiso   1.00
H627   H     0.91449   0.40157   0.42975   0.00000  Uiso   1.00
H628   H     0.98552   0.39106   0.00136   0.00000  Uiso   1.00
H629   H     0.93381   0.37560   0.48987   0.00000  Uiso   1.00
H630   H     0.98004   0.39045   0.44513   0.00000  Uiso   1.00
H631   H     0.96667   0.45844   0.45644   0.00000  Uiso   1.00
H632   H     0.98091   0.44641   0.10592   0.00000  Uiso   1.00
H633   H     0.97688   0.45967   0.00873   0.00000  Uiso   1.00
H634   H     0.81439   0.50833   0.07580   0.00000  Uiso   1.00
H635   H     0.75998   0.62989   0.49290   0.00000  Uiso   1.00
H636   H     0.81600   0.62902   0.46587   0.00000  Uiso   1.00
H637   H     0.78339   0.65693   0.44304   0.00000  Uiso   1.00
H638   H     0.79415   0.59644   0.39704   0.00000  Uiso   1.00
H639   H     0.73970   0.58767   0.42722   0.00000  Uiso   1.00
H640   H     0.71920   0.40833   0.03971   0.00000  Uiso   1.00
H641   H     0.73271   0.42978   0.48531   0.00000  Uiso   1.00
H642   H     0.77434   0.41760   0.00932   0.00000  Uiso   1.00
H643   H     0.89733   0.41692   0.11601   0.00000  Uiso   1.00
H644   H     0.75536   0.47231   0.07129   0.00000  Uiso   1.00
H645   H     0.71274   0.48101   0.05052   0.00000  Uiso   1.00
H646   H     0.69009   0.58539   0.07808   0.00000  Uiso   1.00
H647   H     0.74745   0.59594   0.05935   0.00000  Uiso   1.00
H648   H     0.72310   0.54799   0.08456   0.00000  Uiso   1.00
H649   H     0.70755   0.57450   0.49768   0.00000  Uiso   1.00
H650   H     0.69031   0.52595   0.01913   0.00000  Uiso   1.00
H651   H     0.89192   0.49762   0.38684   0.00000  Uiso   1.00
H652   H     0.99570   0.55716   0.15900   0.00000  Uiso   1.00
H653   H     0.98405   0.59217   0.20940   0.00000  Uiso   1.00
H654   H     0.93611   0.40538   0.06758   0.00000  Uiso   1.00
H655   H     0.70197   0.59803   0.17010   0.00000  Uiso   1.00
H656   H     0.70851   0.56655   0.23496   0.00000  Uiso   1.00
H657   H     0.71701   0.53030   0.18690   0.00000  Uiso   1.00
H658   H     0.69553   0.40785   0.28084   0.00000  Uiso   1.00
H659   H     0.69063   0.44181   0.33172   0.00000  Uiso   1.00
H660   H     0.98371   0.39861   0.32746   0.00000  Uiso   1.00
H661   H     0.95810   0.46357   0.31911   0.00000  Uiso   1.00
O662   O     0.83333   0.50000   0.25000   0.00000  Uiso   1.00
O663   O     0.82118   0.45970   0.15459   0.00000  Uiso   1.00
O664   O     0.79607   0.53724   0.34968   0.00000  Uiso   1.00
O665   O     0.87491   0.51092   0.14606   0.00000  Uiso   1.00
O666   O     0.84118   0.49213   0.34968   0.00000  Uiso   1.00
O667   O     0.84597   0.41352   0.28214   0.00000  Uiso   1.00
O668   O     0.81298   0.59418   0.27014   0.00000  Uiso   1.00
O669   O     0.74078   0.46625   0.23413   0.00000  Uiso   1.00
O670   O     0.93360   0.52605   0.21361   0.00000  Uiso   1.00
O671   O     0.73738   0.52211   0.28213   0.00000  Uiso   1.00
O672   O     0.92158   0.48559   0.27014   0.00000  Uiso   1.00
O673   O     0.80426   0.40277   0.23413   0.00000  Uiso   1.00
O674   O     0.87012   0.58953   0.21361   0.00000  Uiso   1.00
Zn675  Zn    0.86005   0.47327   0.28734   0.00000  Uiso   1.00
Zn676  Zn    0.80046   0.45791   0.21876   0.00000  Uiso   1.00
Zn677  Zn    0.87723   0.53109   0.20657   0.00000  Uiso   1.00
Zn678  Zn    0.79560   0.53773   0.28734   0.00000  Uiso   1.00
C679   C     0.05319   0.82562   0.26037   0.00000  Uiso   1.00
C680   C     0.17085   0.82150   0.05772   0.00000  Uiso   1.00
C681   C     0.23004   0.78454   0.05919   0.00000  Uiso   1.00
C682   C     0.28098   0.84103   0.24062   0.00000  Uiso   1.00
C683   C     0.14662   0.86045   0.42039   0.00000  Uiso   1.00
C684   C     0.32686   0.84610   0.23951   0.00000  Uiso   1.00
C685   C     0.00817   0.82094   0.26377   0.00000  Uiso   1.00
C686   C     0.17845   0.98954   0.23472   0.00000  Uiso   1.00
C687   C     0.15216   0.67934   0.26647   0.00000  Uiso   1.00
C688   C     0.15605   0.72295   0.26084   0.00000  Uiso   1.00
C689   C     0.17640   0.94470   0.23972   0.00000  Uiso   1.00
C690   C     0.09231   0.86891   0.49019   0.00000  Uiso   1.00
C691   C     0.18534   0.81499   0.12951   0.00000  Uiso   1.00
C692   C     0.15113   0.85299   0.37080   0.00000  Uiso   1.00
C693   C     0.24234   0.78226   0.01145   0.00000  Uiso   1.00
C694   C     0.19527   0.80589   0.08133   0.00000  Uiso   1.00
C695   C     0.11475   0.88358   0.44736   0.00000  Uiso   1.00
C696   C     0.25382   0.76488   0.08688   0.00000  Uiso   1.00
C697   C     0.28715   0.79585   0.10385   0.00000  Uiso   1.00
C698   C     0.31472   0.78432   0.28988   0.00000  Uiso   1.00
C699   C     0.00630   0.75667   0.30853   0.00000  Uiso   1.00
C700   C     0.20930   0.67792   0.19420   0.00000  Uiso   1.00
C701   C     0.10882   0.83763   0.00765   0.00000  Uiso   1.00
C702   C     0.23794   0.98524   0.15842   0.00000  Uiso   1.00
C703   C     0.12130   0.99697   0.30996   0.00000  Uiso   1.00
C704   C     0.09882   0.69682   0.34226   0.00000  Uiso   1.00
C705   C     0.24553   0.76026   0.40969   0.00000  Uiso   1.00
C706   C     0.21980   0.73971   0.37650   0.00000  Uiso   1.00
C707   C     0.28879   0.77616   0.48846   0.00000  Uiso   1.00
C708   C     0.29721   0.73059   0.48089   0.00000  Uiso   1.00
C709   C     0.10637   0.92342   0.43060   0.00000  Uiso   1.00
C710   C     0.11700   0.96188   0.46015   0.00000  Uiso   1.00
C711   C     0.07908   0.80665   0.03966   0.00000  Uiso   1.00
C712   C     0.15191   0.83046   0.48801   0.00000  Uiso   1.00
C713   C     0.07631   0.76294   0.01697   0.00000  Uiso   1.00
C714   C     0.05050   0.88474   0.01584   0.00000  Uiso   1.00
C715   C     0.05309   0.90464   0.06220   0.00000  Uiso   1.00
C716   C     0.02560   0.87940   0.21185   0.00000  Uiso   1.00
C717   C     0.00860   0.90823   0.18619   0.00000  Uiso   1.00
C718   C     0.16936   0.83876   0.44257   0.00000  Uiso   1.00
C719   C     0.17786   0.81426   0.01139   0.00000  Uiso   1.00
C720   C     0.21463   0.79546   0.48738   0.00000  Uiso   1.00
C721   C     0.22387   0.79427   0.44000   0.00000  Uiso   1.00
C722   C     0.20794   0.82319   0.42036   0.00000  Uiso   1.00
H723   H     0.29968   0.82190   0.08151   0.00000  Uiso   1.00
H724   H     0.29759   0.76371   0.26760   0.00000  Uiso   1.00
H725   H     0.26112   0.97265   0.17276   0.00000  Uiso   1.00
H726   H     0.21844   0.95997   0.14313   0.00000  Uiso   1.00
H727   H     0.25665   0.67202   0.13121   0.00000  Uiso   1.00
H728   H     0.19008   0.69249   0.17637   0.00000  Uiso   1.00
H729   H     0.23071   0.70319   0.20708   0.00000  Uiso   1.00
H730   H     0.12244   0.71988   0.35465   0.00000  Uiso   1.00
H731   H     0.07986   0.71281   0.32547   0.00000  Uiso   1.00
H732   H     0.07669   0.68185   0.37175   0.00000  Uiso   1.00
H733   H     0.09553   0.97404   0.30116   0.00000  Uiso   1.00
H734   H     0.27314   0.80875   0.13809   0.00000  Uiso   1.00
H735   H     0.13921   0.98219   0.32910   0.00000  Uiso   1.00
H736   H     0.18654   0.72872   0.39469   0.00000  Uiso   1.00
H737   H     0.21915   0.76162   0.35144   0.00000  Uiso   1.00
H738   H     0.23483   0.71261   0.35811   0.00000  Uiso   1.00
H739   H     0.27791   0.77305   0.39116   0.00000  Uiso   1.00
H740   H     0.24782   0.73491   0.42975   0.00000  Uiso   1.00
H741   H     0.31885   0.72440   0.00136   0.00000  Uiso   1.00
H742   H     0.26714   0.70894   0.48987   0.00000  Uiso   1.00
H743   H     0.31338   0.72378   0.44513   0.00000  Uiso   1.00
H744   H     0.30001   0.79177   0.45644   0.00000  Uiso   1.00
H745   H     0.31424   0.77974   0.10592   0.00000  Uiso   1.00
H746   H     0.31022   0.79301   0.00873   0.00000  Uiso   1.00
H747   H     0.14772   0.84166   0.07580   0.00000  Uiso   1.00
H748   H     0.09332   0.96322   0.49290   0.00000  Uiso   1.00
H749   H     0.14933   0.96236   0.46587   0.00000  Uiso   1.00
H750   H     0.11672   0.99027   0.44304   0.00000  Uiso   1.00
H751   H     0.12748   0.92977   0.39704   0.00000  Uiso   1.00
H752   H     0.07304   0.92101   0.42722   0.00000  Uiso   1.00
H753   H     0.05254   0.74166   0.03971   0.00000  Uiso   1.00
H754   H     0.06604   0.76311   0.48531   0.00000  Uiso   1.00
H755   H     0.10768   0.75093   0.00932   0.00000  Uiso   1.00
H756   H     0.23067   0.75025   0.11601   0.00000  Uiso   1.00
H757   H     0.08869   0.80564   0.07129   0.00000  Uiso   1.00
H758   H     0.04607   0.81434   0.05052   0.00000  Uiso   1.00
H759   H     0.02343   0.91872   0.07808   0.00000  Uiso   1.00
H760   H     0.08079   0.92927   0.05935   0.00000  Uiso   1.00
H761   H     0.05643   0.88132   0.08456   0.00000  Uiso   1.00
H762   H     0.04088   0.90784   0.49768   0.00000  Uiso   1.00
H763   H     0.02365   0.85928   0.01913   0.00000  Uiso   1.00
H764   H     0.22525   0.83096   0.38684   0.00000  Uiso   1.00
H765   H     0.32903   0.89050   0.15900   0.00000  Uiso   1.00
H766   H     0.31738   0.92550   0.20940   0.00000  Uiso   1.00
H767   H     0.26944   0.73871   0.06758   0.00000  Uiso   1.00
H768   H     0.03530   0.93136   0.17010   0.00000  Uiso   1.00
H769   H     0.04184   0.89988   0.23496   0.00000  Uiso   1.00
H770   H     0.05034   0.86363   0.18690   0.00000  Uiso   1.00
H771   H     0.02886   0.74118   0.28084   0.00000  Uiso   1.00
H772   H     0.02396   0.77514   0.33172   0.00000  Uiso   1.00
H773   H     0.31704   0.73194   0.32746   0.00000  Uiso   1.00
H774   H     0.29144   0.79690   0.31911   0.00000  Uiso   1.00
O775   O     0.16667   0.83333   0.25000   0.00000  Uiso   1.00
O776   O     0.15451   0.79304   0.15459   0.00000  Uiso   1.00
O777   O     0.12940   0.87058   0.34968   0.00000  Uiso   1.00
O778   O     0.20824   0.84425   0.14606   0.00000  Uiso   1.00
O779   O     0.17451   0.82546   0.34968   0.00000  Uiso   1.00
O780   O     0.17930   0.74686   0.28214   0.00000  Uiso   1.00
O781   O     0.14632   0.92751   0.27014   0.00000  Uiso   1.00
O782   O     0.07412   0.79958   0.23413   0.00000  Uiso   1.00
O783   O     0.26693   0.85939   0.21361   0.00000  Uiso   1.00
O784   O     0.07071   0.85544   0.28213   0.00000  Uiso   1.00
O785   O     0.25491   0.81892   0.27014   0.00000  Uiso   1.00
O786   O     0.13760   0.73610   0.23413   0.00000  Uiso   1.00
O787   O     0.20345   0.92286   0.21361   0.00000  Uiso   1.00
Zn788  Zn    0.19338   0.80661   0.28734   0.00000  Uiso   1.00
Zn789  Zn    0.13379   0.79124   0.21876   0.00000  Uiso   1.00
Zn790  Zn    0.21056   0.86442   0.20657   0.00000  Uiso   1.00
Zn791  Zn    0.12893   0.87106   0.28734   0.00000  Uiso   1.00
C792   C     0.38652   0.82562   0.26037   0.00000  Uiso   1.00
C793   C     0.50419   0.82150   0.05772   0.00000  Uiso   1.00
C794   C     0.56337   0.78454   0.05919   0.00000  Uiso   1.00
C795   C     0.61431   0.84103   0.24062   0.00000  Uiso   1.00
C796   C     0.47995   0.86045   0.42039   0.00000  Uiso   1.00
C797   C     0.66019   0.84610   0.23951   0.00000  Uiso   1.00
C798   C     0.34150   0.82094   0.26377   0.00000  Uiso   1.00
C799   C     0.51178   0.98954   0.23472   0.00000  Uiso   1.00
C800   C     0.48549   0.67934   0.26647   0.00000  Uiso   1.00
C801   C     0.48939   0.72295   0.26084   0.00000  Uiso   1.00
C802   C     0.50974   0.94470   0.23972   0.00000  Uiso   1.00
C803   C     0.42564   0.86891   0.49019   0.00000  Uiso   1.00
C804   C     0.51868   0.81499   0.12951   0.00000  Uiso   1.00
C805   C     0.48446   0.85299   0.37080   0.00000  Uiso   1.00
C806   C     0.57567   0.78226   0.01145   0.00000  Uiso   1.00
C807   C     0.52860   0.80589   0.08133   0.00000  Uiso   1.00
C808   C     0.44808   0.88358   0.44736   0.00000  Uiso   1.00
C809   C     0.58715   0.76488   0.08688   0.00000  Uiso   1.00
C810   C     0.62048   0.79585   0.10385   0.00000  Uiso   1.00
C811   C     0.64805   0.78432   0.28988   0.00000  Uiso   1.00
C812   C     0.33963   0.75667   0.30853   0.00000  Uiso   1.00
C813   C     0.54263   0.67792   0.19420   0.00000  Uiso   1.00
C814   C     0.44215   0.83763   0.00765   0.00000  Uiso   1.00
C815   C     0.57127   0.98524   0.15842   0.00000  Uiso   1.00
C816   C     0.45463   0.99697   0.30996   0.00000  Uiso   1.00
C817   C     0.43215   0.69682   0.34226   0.00000  Uiso   1.00
C818   C     0.57886   0.76026   0.40969   0.00000  Uiso   1.00
C819   C     0.55314   0.73971   0.37650   0.00000  Uiso   1.00
C820   C     0.62212   0.77616   0.48846   0.00000  Uiso   1.00
C821   C     0.63055   0.73059   0.48089   0.00000  Uiso   1.00
C822   C     0.43970   0.92342   0.43060   0.00000  Uiso   1.00
C823   C     0.45033   0.96188   0.46015   0.00000  Uiso   1.00
C824   C     0.41242   0.80665   0.03966   0.00000  Uiso   1.00
C825   C     0.48524   0.83046   0.48801   0.00000  Uiso   1.00
C826   C     0.40964   0.76294   0.01697   0.00000  Uiso   1.00
C827   C     0.38383   0.88474   0.01584   0.00000  Uiso   1.00
C828   C     0.38643   0.90464   0.06220   0.00000  Uiso   1.00
C829   C     0.35893   0.87940   0.21185   0.00000  Uiso   1.00
C830   C     0.34193   0.90823   0.18619   0.00000  Uiso   1.00
C831   C     0.50269   0.83876   0.44257   0.00000  Uiso   1.00
C832   C     0.51120   0.81426   0.01139   0.00000  Uiso   1.00
C833   C     0.54796   0.79546   0.48738   0.00000  Uiso   1.00
C834   C     0.55721   0.79427   0.44000   0.00000  Uiso   1.00
C835   C     0.54128   0.82319   0.42036   0.00000  Uiso   1.00
H836   H     0.63301   0.82190   0.08151   0.00000  Uiso   1.00
H837   H     0.63092   0.76371   0.26760   0.00000  Uiso   1.00
H838   H     0.59445   0.97265   0.17276   0.00000  Uiso   1.00
H839   H     0.55177   0.95997   0.14313   0.00000  Uiso   1.00
H840   H     0.58999   0.67202   0.13121   0.00000  Uiso   1.00
H841   H     0.52341   0.69249   0.17637   0.00000  Uiso   1.00
H842   H     0.56404   0.70319   0.20708   0.00000  Uiso   1.00
H843   H     0.45578   0.71988   0.35465   0.00000  Uiso   1.00
H844   H     0.41319   0.71281   0.32547   0.00000  Uiso   1.00
H845   H     0.41003   0.68185   0.37175   0.00000  Uiso   1.00
H846   H     0.42887   0.97404   0.30116   0.00000  Uiso   1.00
H847   H     0.60647   0.80875   0.13809   0.00000  Uiso   1.00
H848   H     0.47255   0.98219   0.32910   0.00000  Uiso   1.00
H849   H     0.51987   0.72872   0.39469   0.00000  Uiso   1.00
H850   H     0.55248   0.76162   0.35144   0.00000  Uiso   1.00
H851   H     0.56816   0.71261   0.35811   0.00000  Uiso   1.00
H852   H     0.61125   0.77305   0.39116   0.00000  Uiso   1.00
H853   H     0.58116   0.73491   0.42975   0.00000  Uiso   1.00
H854   H     0.65219   0.72440   0.00136   0.00000  Uiso   1.00
H855   H     0.60047   0.70894   0.48987   0.00000  Uiso   1.00
H856   H     0.64671   0.72378   0.44513   0.00000  Uiso   1.00
H857   H     0.63334   0.79177   0.45644   0.00000  Uiso   1.00
H858   H     0.64757   0.77974   0.10592   0.00000  Uiso   1.00
H859   H     0.64355   0.79301   0.00873   0.00000  Uiso   1.00
H860   H     0.48106   0.84166   0.07580   0.00000  Uiso   1.00
H861   H     0.42665   0.96322   0.49290   0.00000  Uiso   1.00
H862   H     0.48267   0.96236   0.46587   0.00000  Uiso   1.00
H863   H     0.45005   0.99027   0.44304   0.00000  Uiso   1.00
H864   H     0.46081   0.92977   0.39704   0.00000  Uiso   1.00
H865   H     0.40637   0.92101   0.42722   0.00000  Uiso   1.00
H866   H     0.38587   0.74166   0.03971   0.00000  Uiso   1.00
H867   H     0.39937   0.76311   0.48531   0.00000  Uiso   1.00
H868   H     0.44101   0.75093   0.00932   0.00000  Uiso   1.00
H869   H     0.56400   0.75025   0.11601   0.00000  Uiso   1.00
H870   H     0.42203   0.80564   0.07129   0.00000  Uiso   1.00
H871   H     0.37941   0.81434   0.05052   0.00000  Uiso   1.00
H872   H     0.35676   0.91872   0.07808   0.00000  Uiso   1.00
H873   H     0.41412   0.92927   0.05935   0.00000  Uiso   1.00
H874   H     0.38976   0.88132   0.08456   0.00000  Uiso   1.00
H875   H     0.37421   0.90784   0.49768   0.00000  Uiso   1.00
H876   H     0.35698   0.85928   0.01913   0.00000  Uiso   1.00
H877   H     0.55858   0.83096   0.38684   0.00000  Uiso   1.00
H878   H     0.66236   0.89050   0.15900   0.00000  Uiso   1.00
H879   H     0.65071   0.92550   0.20940   0.00000  Uiso   1.00
H880   H     0.60278   0.73871   0.06758   0.00000  Uiso   1.00
H881   H     0.36864   0.93136   0.17010   0.00000  Uiso   1.00
H882   H     0.37517   0.89988   0.23496   0.00000  Uiso   1.00
H883   H     0.38368   0.86363   0.18690   0.00000  Uiso   1.00
H884   H     0.36219   0.74118   0.28084   0.00000  Uiso   1.00
H885   H     0.35730   0.77514   0.33172   0.00000  Uiso   1.00
H886   H     0.65038   0.73194   0.32746   0.00000  Uiso   1.00
H887   H     0.62477   0.79690   0.31911   0.00000  Uiso   1.00
O888   O     0.50000   0.83333   0.25000   0.00000  Uiso   1.00
O889   O     0.48784   0.79304   0.15459   0.00000  Uiso   1.00
O890   O     0.46274   0.87058   0.34968   0.00000  Uiso   1.00
O891   O     0.54157   0.84425   0.14606   0.00000  Uiso   1.00
O892   O     0.50785   0.82546   0.34968   0.00000  Uiso   1.00
O893   O     0.51264   0.74686   0.28214   0.00000  Uiso   1.00
O894   O     0.47965   0.92751   0.27014   0.00000  Uiso   1.00
O895   O     0.40745   0.79958   0.23413   0.00000  Uiso   1.00
O896   O     0.60026   0.85939   0.21361   0.00000  Uiso   1.00
O897   O     0.40405   0.85544   0.28213   0.00000  Uiso   1.00
O898   O     0.58824   0.81892   0.27014   0.00000  Uiso   1.00
O899   O     0.47093   0.73610   0.23413   0.00000  Uiso   1.00
O900   O     0.53678   0.92286   0.21361   0.00000  Uiso   1.00
Zn901  Zn    0.52672   0.80661   0.28734   0.00000  Uiso   1.00
Zn902  Zn    0.46713   0.79124   0.21876   0.00000  Uiso   1.00
Zn903  Zn    0.54389   0.86442   0.20657   0.00000  Uiso   1.00
Zn904  Zn    0.46226   0.87106   0.28734   0.00000  Uiso   1.00
C905   C     0.71985   0.82562   0.26037   0.00000  Uiso   1.00
C906   C     0.83752   0.82150   0.05772   0.00000  Uiso   1.00
C907   C     0.89671   0.78454   0.05919   0.00000  Uiso   1.00
C908   C     0.94765   0.84103   0.24062   0.00000  Uiso   1.00
C909   C     0.81328   0.86045   0.42039   0.00000  Uiso   1.00
C910   C     0.99353   0.84610   0.23951   0.00000  Uiso   1.00
C911   C     0.67484   0.82094   0.26377   0.00000  Uiso   1.00
C912   C     0.84512   0.98954   0.23472   0.00000  Uiso   1.00
C913   C     0.81882   0.67934   0.26647   0.00000  Uiso   1.00
C914   C     0.82272   0.72295   0.26084   0.00000  Uiso   1.00
C915   C     0.84307   0.94470   0.23972   0.00000  Uiso   1.00
C916   C     0.75898   0.86891   0.49019   0.00000  Uiso   1.00
C917   C     0.85201   0.81499   0.12951   0.00000  Uiso   1.00
C918   C     0.81779   0.85299   0.37080   0.00000  Uiso   1.00
C919   C     0.90901   0.78226   0.01145   0.00000  Uiso   1.00
C920   C     0.86194   0.80589   0.08133   0.00000  Uiso   1.00
C921   C     0.78141   0.88358   0.44736   0.00000  Uiso   1.00
C922   C     0.92049   0.76488   0.08688   0.00000  Uiso   1.00
C923   C     0.95382   0.79585   0.10385   0.00000  Uiso   1.00
C924   C     0.98139   0.78432   0.28988   0.00000  Uiso   1.00
C925   C     0.67296   0.75667   0.30853   0.00000  Uiso   1.00
C926   C     0.87596   0.67792   0.19420   0.00000  Uiso   1.00
C927   C     0.77548   0.83763   0.00765   0.00000  Uiso   1.00
C928   C     0.90460   0.98524   0.15842   0.00000  Uiso   1.00
C929   C     0.78797   0.99697   0.30996   0.00000  Uiso   1.00
C930   C     0.76549   0.69682   0.34226   0.00000  Uiso   1.00
C931   C     0.91219   0.76026   0.40969   0.00000  Uiso   1.00
C932   C     0.88647   0.73971   0.37650   0.00000  Uiso   1.00
C933   C     0.95545   0.77616   0.48846   0.00000  Uiso   1.00
C934   C     0.96388   0.73059   0.48089   0.00000  Uiso   1.00
C935   C     0.77303   0.92342   0.43060   0.00000  Uiso   1.00
C936   C     0.78366   0.96188   0.46015   0.00000  Uiso   1.00
C937   C     0.74575   0.80665   0.03966   0.00000  Uiso   1.00
C938   C     0.81857   0.83046   0.48801   0.00000  Uiso   1.00
C939   C     0.74298   0.76294   0.01697   0.00000  Uiso   1.00
C940   C     0.71716   0.88474   0.01584   0.00000  Uiso   1.00
C941   C     0.71976   0.90464   0.06220   0.00000  Uiso   1.00
C942   C     0.69226   0.87940   0.21185   0.00000  Uiso   1.00
C943   C     0.67526   0.90823   0.18619   0.00000  Uiso   1.00
C944   C     0.83602   0.83876   0.44257   0.00000  Uiso   1.00
C945   C     0.84453   0.81426   0.01139   0.00000  Uiso   1.00
C946   C     0.88130   0.79546   0.48738   0.00000  Uiso   1.00
C947   C     0.89054   0.79427   0.44000   0.00000  Uiso   1.00
C948   C     0.87461   0.82319   0.42036   0.00000  Uiso   1.00
H949   H     0.96634   0.82190   0.08151   0.00000  Uiso   1.00
H950   H     0.96425   0.76371   0.26760   0.00000  Uiso   1.00
H951   H     0.92779   0.97265   0.17276   0.00000  Uiso   1.00
H952   H     0.88511   0.95997   0.14313   0.00000  Uiso   1.00
H953   H     0.92332   0.67202   0.13121   0.00000  Uiso   1.00
H954   H     0.85674   0.69249   0.17637   0.00000  Uiso   1.00
H955   H     0.89737   0.70319   0.20708   0.00000  Uiso   1.00
H956   H     0.78911   0.71988   0.35465   0.00000  Uiso   1.00
H957   H     0.74653   0.71281   0.32547   0.00000  Uiso   1.00
H958   H     0.74336   0.68185   0.37175   0.00000  Uiso   1.00
H959   H     0.76220   0.97404   0.30116   0.00000  Uiso   1.00
H960   H     0.93981   0.80875   0.13809   0.00000  Uiso   1.00
H961   H     0.80588   0.98219   0.32910   0.00000  Uiso   1.00
H962   H     0.85321   0.72872   0.39469   0.00000  Uiso   1.00
H963   H     0.88581   0.76162   0.35144   0.00000  Uiso   1.00
H964   H     0.90150   0.71261   0.35811   0.00000  Uiso   1.00
H965   H     0.94458   0.77305   0.39116   0.00000  Uiso   1.00
H966   H     0.91449   0.73491   0.42975   0.00000  Uiso   1.00
H967   H     0.98552   0.72440   0.00136   0.00000  Uiso   1.00
H968   H     0.93381   0.70894   0.48987   0.00000  Uiso   1.00
H969   H     0.98004   0.72378   0.44513   0.00000  Uiso   1.00
H970   H     0.96667   0.79177   0.45644   0.00000  Uiso   1.00
H971   H     0.98091   0.77974   0.10592   0.00000  Uiso   1.00
H972   H     0.97688   0.79301   0.00873   0.00000  Uiso   1.00
H973   H     0.81439   0.84166   0.07580   0.00000  Uiso   1.00
H974   H     0.75998   0.96322   0.49290   0.00000  Uiso   1.00
H975   H     0.81600   0.96236   0.46587   0.00000  Uiso   1.00
H976   H     0.78339   0.99027   0.44304   0.00000  Uiso   1.00
H977   H     0.79415   0.92977   0.39704   0.00000  Uiso   1.00
H978   H     0.73970   0.92101   0.42722   0.00000  Uiso   1.00
H979   H     0.71920   0.74166   0.03971   0.00000  Uiso   1.00
H980   H     0.73271   0.76311   0.48531   0.00000  Uiso   1.00
H981   H     0.77434   0.75093   0.00932   0.00000  Uiso   1.00
H982   H     0.89733   0.75025   0.11601   0.00000  Uiso   1.00
H983   H     0.75536   0.80564   0.07129   0.00000  Uiso   1.00
H984   H     0.71274   0.81434   0.05052   0.00000  Uiso   1.00
H985   H     0.69009   0.91872   0.07808   0.00000  Uiso   1.00
H986   H     0.74745   0.92927   0.05935   0.00000  Uiso   1.00
H987   H     0.72310   0.88132   0.08456   0.00000  Uiso   1.00
H988   H     0.70755   0.90784   0.49768   0.00000  Uiso   1.00
H989   H     0.69031   0.85928   0.01913   0.00000  Uiso   1.00
H990   H     0.89192   0.83096   0.38684   0.00000  Uiso   1.00
H991   H     0.99570   0.89050   0.15900   0.00000  Uiso   1.00
H992   H     0.98405   0.92550   0.20940   0.00000  Uiso   1.00
H993   H     0.93611   0.73871   0.06758   0.00000  Uiso   1.00
H994   H     0.70197   0.93136   0.17010   0.00000  Uiso   1.00
H995   H     0.70851   0.89988   0.23496   0.00000  Uiso   1.00
H996   H     0.71701   0.86363   0.18690   0.00000  Uiso   1.00
H997   H     0.69553   0.74118   0.28084   0.00000  Uiso   1.00
H998   H     0.69063   0.77514   0.33172   0.00000  Uiso   1.00
H999   H     0.98371   0.73194   0.32746   0.00000  Uiso   1.00
H1000  H     0.95810   0.79690   0.31911   0.00000  Uiso   1.00
O1001  O     0.83333   0.83333   0.25000   0.00000  Uiso   1.00
O1002  O     0.82118   0.79304   0.15459   0.00000  Uiso   1.00
O1003  O     0.79607   0.87058   0.34968   0.00000  Uiso   1.00
O1004  O     0.87491   0.84425   0.14606   0.00000  Uiso   1.00
O1005  O     0.84118   0.82546   0.34968   0.00000  Uiso   1.00
O1006  O     0.84597   0.74686   0.28214   0.00000  Uiso   1.00
O1007  O     0.81298   0.92751   0.27014   0.00000  Uiso   1.00
O1008  O     0.74078   0.79958   0.23413   0.00000  Uiso   1.00
O1009  O     0.93360   0.85939   0.21361   0.00000  Uiso   1.00
O1010  O     0.73738   0.85544   0.28213   0.00000  Uiso   1.00
O1011  O     0.92158   0.81892   0.27014   0.00000  Uiso   1.00
O1012  O     0.80426   0.73610   0.23413   0.00000  Uiso   1.00
O1013  O     0.87012   0.92286   0.21361   0.00000  Uiso   1.00
Zn1014 Zn    0.86005   0.80661   0.28734   0.00000  Uiso   1.00
Zn1015 Zn    0.80046   0.79124   0.21876   0.00000  Uiso   1.00
Zn1016 Zn    0.87723   0.86442   0.20657   0.00000  Uiso   1.00
Zn1017 Zn    0.79560   0.87106   0.28734   0.00000  Uiso   1.00
C1018  C     0.05319   0.15895   0.76037   0.00000  Uiso   1.00
C1019  C     0.17085   0.15483   0.55772   0.00000  Uiso   1.00
C1020  C     0.23004   0.11787   0.55919   0.00000  Uiso   1.00
C1021  C     0.28098   0.17436   0.74062   0.00000  Uiso   1.00
C1022  C     0.14662   0.19378   0.92039   0.00000  Uiso   1.00
C1023  C     0.32686   0.17944   0.73951   0.00000  Uiso   1.00
C1024  C     0.00817   0.15428   0.76377   0.00000  Uiso   1.00
C1025  C     0.17845   0.32287   0.73472   0.00000  Uiso   1.00
C1026  C     0.15216   0.01268   0.76647   0.00000  Uiso   1.00
C1027  C     0.15605   0.05628   0.76084   0.00000  Uiso   1.00
C1028  C     0.17640   0.27803   0.73972   0.00000  Uiso   1.00
C1029  C     0.09231   0.20225   0.99019   0.00000  Uiso   1.00
C1030  C     0.18534   0.14832   0.62951   0.00000  Uiso   1.00
C1031  C     0.15113   0.18632   0.87080   0.00000  Uiso   1.00
C1032  C     0.24234   0.11559   0.51145   0.00000  Uiso   1.00
C1033  C     0.19527   0.13923   0.58133   0.00000  Uiso   1.00
C1034  C     0.11475   0.21691   0.94736   0.00000  Uiso   1.00
C1035  C     0.25382   0.09822   0.58688   0.00000  Uiso   1.00
C1036  C     0.28715   0.12919   0.60385   0.00000  Uiso   1.00
C1037  C     0.31472   0.11765   0.78988   0.00000  Uiso   1.00
C1038  C     0.00630   0.09000   0.80853   0.00000  Uiso   1.00
C1039  C     0.20930   0.01126   0.69420   0.00000  Uiso   1.00
C1040  C     0.10882   0.17097   0.50765   0.00000  Uiso   1.00
C1041  C     0.23794   0.31857   0.65842   0.00000  Uiso   1.00
C1042  C     0.12130   0.33031   0.80996   0.00000  Uiso   1.00
C1043  C     0.09882   0.03016   0.84226   0.00000  Uiso   1.00
C1044  C     0.24553   0.09360   0.90969   0.00000  Uiso   1.00
C1045  C     0.21980   0.07304   0.87650   0.00000  Uiso   1.00
C1046  C     0.28879   0.10949   0.98846   0.00000  Uiso   1.00
C1047  C     0.29721   0.06392   0.98089   0.00000  Uiso   1.00
C1048  C     0.10637   0.25675   0.93060   0.00000  Uiso   1.00
C1049  C     0.11700   0.29522   0.96015   0.00000  Uiso   1.00
C1050  C     0.07908   0.13998   0.53966   0.00000  Uiso   1.00
C1051  C     0.15191   0.16379   0.98801   0.00000  Uiso   1.00
C1052  C     0.07631   0.09627   0.51697   0.00000  Uiso   1.00
C1053  C     0.05050   0.21808   0.51584   0.00000  Uiso   1.00
C1054  C     0.05309   0.23797   0.56220   0.00000  Uiso   1.00
C1055  C     0.02560   0.21274   0.71185   0.00000  Uiso   1.00
C1056  C     0.00860   0.24156   0.68619   0.00000  Uiso   1.00
C1057  C     0.16936   0.17209   0.94257   0.00000  Uiso   1.00
C1058  C     0.17786   0.14760   0.51139   0.00000  Uiso   1.00
C1059  C     0.21463   0.12880   0.98738   0.00000  Uiso   1.00
C1060  C     0.22387   0.12761   0.94000   0.00000  Uiso   1.00
C1061  C     0.20794   0.15653   0.92036   0.00000  Uiso   1.00
H1062  H     0.29968   0.15524   0.58151   0.00000  Uiso   1.00
H1063  H     0.29759   0.09704   0.76760   0.00000  Uiso   1.00
H1064  H     0.26112   0.30599   0.67276   0.00000  Uiso   1.00
H1065  H     0.21844   0.29330   0.64313   0.00000  Uiso   1.00
H1066  H     0.25665   0.00535   0.63121   0.00000  Uiso   1.00
H1067  H     0.19008   0.02582   0.67637   0.00000  Uiso   1.00
H1068  H     0.23071   0.03652   0.70708   0.00000  Uiso   1.00
H1069  H     0.12244   0.05321   0.85465   0.00000  Uiso   1.00
H1070  H     0.07986   0.04614   0.82547   0.00000  Uiso   1.00
H1071  H     0.07669   0.01518   0.87175   0.00000  Uiso   1.00
H1072  H     0.09553   0.30737   0.80116   0.00000  Uiso   1.00
H1073  H     0.27314   0.14208   0.63809   0.00000  Uiso   1.00
H1074  H     0.13921   0.31552   0.82910   0.00000  Uiso   1.00
H1075  H     0.18654   0.06206   0.89469   0.00000  Uiso   1.00
H1076  H     0.21915   0.09496   0.85144   0.00000  Uiso   1.00
H1077  H     0.23483   0.04594   0.85811   0.00000  Uiso   1.00
H1078  H     0.27791   0.10639   0.89116   0.00000  Uiso   1.00
H1079  H     0.24782   0.06824   0.92975   0.00000  Uiso   1.00
H1080  H     0.31885   0.05773   0.50136   0.00000  Uiso   1.00
H1081  H     0.26714   0.04227   0.98987   0.00000  Uiso   1.00
H1082  H     0.31338   0.05712   0.94513   0.00000  Uiso   1.00
H1083  H     0.30001   0.12510   0.95644   0.00000  Uiso   1.00
H1084  H     0.31424   0.11308   0.60592   0.00000  Uiso   1.00
H1085  H     0.31022   0.12634   0.50873   0.00000  Uiso   1.00
H1086  H     0.14772   0.17499   0.57580   0.00000  Uiso   1.00
H1087  H     0.09332   0.29656   0.99290   0.00000  Uiso   1.00
H1088  H     0.14933   0.29569   0.96587   0.00000  Uiso   1.00
H1089  H     0.11672   0.32360   0.94304   0.00000  Uiso   1.00
H1090  H     0.12748   0.26311   0.89704   0.00000  Uiso   1.00
H1091  H     0.07304   0.25434   0.92722   0.00000  Uiso   1.00
H1092  H     0.05254   0.07499   0.53971   0.00000  Uiso   1.00
H1093  H     0.06604   0.09645   0.98531   0.00000  Uiso   1.00
H1094  H     0.10768   0.08427   0.50932   0.00000  Uiso   1.00
H1095  H     0.23067   0.08359   0.61601   0.00000  Uiso   1.00
H1096  H     0.08869   0.13898   0.57129   0.00000  Uiso   1.00
H1097  H     0.04607   0.14767   0.55052   0.00000  Uiso   1.00
H1098  H     0.02343   0.25205   0.57808   0.00000  Uiso   1.00
H1099  H     0.08079   0.26260   0.55935   0.00000  Uiso   1.00
H1100  H     0.05643   0.21465   0.58456   0.00000  Uiso   1.00
H1101  H     0.04088   0.24117   0.99768   0.00000  Uiso   1.00
H1102  H     0.02365   0.19261   0.51913   0.00000  Uiso   1.00
H1103  H     0.22525   0.16429   0.88684   0.00000  Uiso   1.00
H1104  H     0.32903   0.22383   0.65900   0.00000  Uiso   1.00
H1105  H     0.31738   0.25884   0.70940   0.00000  Uiso   1.00
H1106  H     0.26944   0.07205   0.56758   0.00000  Uiso   1.00
H1107  H     0.03530   0.26469   0.67010   0.00000  Uiso   1.00
H1108  H     0.04184   0.23322   0.73496   0.00000  Uiso   1.00
H1109  H     0.05034   0.19696   0.68690   0.00000  Uiso   1.00
H1110  H     0.02886   0.07452   0.78084   0.00000  Uiso   1.00
H1111  H     0.02396   0.10847   0.83172   0.00000  Uiso   1.00
H1112  H     0.31704   0.06527   0.82746   0.00000  Uiso   1.00
H1113  H     0.29144   0.13024   0.81911   0.00000  Uiso   1.00
O1114  O     0.16667   0.16667   0.75000   0.00000  Uiso   1.00
O1115  O     0.15451   0.12637   0.65459   0.00000  Uiso   1.00
O1116  O     0.12940   0.20391   0.84968   0.00000  Uiso   1.00
O1117  O     0.20824   0.17759   0.64606   0.00000  Uiso   1.00
O1118  O     0.17451   0.15880   0.84968   0.00000  Uiso   1.00
O1119  O     0.17930   0.08019   0.78214   0.00000  Uiso   1.00
O1120  O     0.14632   0.26085   0.77014   0.00000  Uiso   1.00
O1121  O     0.07412   0.13291   0.73413   0.00000  Uiso   1.00
O1122  O     0.26693   0.19272   0.71361   0.00000  Uiso   1.00
O1123  O     0.07071   0.18878   0.78213   0.00000  Uiso   1.00
O1124  O     0.25491   0.15226   0.77014   0.00000  Uiso   1.00
O1125  O     0.13760   0.06944   0.73413   0.00000  Uiso   1.00
O1126  O     0.20345   0.25620   0.71361   0.00000  Uiso   1.00
Zn1127 Zn    0.19338   0.13994   0.78734   0.00000  Uiso   1.00
Zn1128 Zn    0.13379   0.12458   0.71876   0.00000  Uiso   1.00
Zn1129 Zn    0.21056   0.19775   0.70657   0.00000  Uiso   1.00
Zn1130 Zn    0.12893   0.20439   0.78734   0.00000  Uiso   1.00
C1131  C     0.38652   0.15895   0.76037   0.00000  Uiso   1.00
C1132  C     0.50419   0.15483   0.55772   0.00000  Uiso   1.00
C1133  C     0.56337   0.11787   0.55919   0.00000  Uiso   1.00
C1134  C     0.61431   0.17436   0.74062   0.00000  Uiso   1.00
C1135  C     0.47995   0.19378   0.92039   0.00000  Uiso   1.00
C1136  C     0.66019   0.17944   0.73951   0.00000  Uiso   1.00
C1137  C     0.34150   0.15428   0.76377   0.00000  Uiso   1.00
C1138  C     0.51178   0.32287   0.73472   0.00000  Uiso   1.00
C1139  C     0.48549   0.01268   0.76647   0.00000  Uiso   1.00
C1140  C     0.48939   0.05628   0.76084   0.00000  Uiso   1.00
C1141  C     0.50974   0.27803   0.73972   0.00000  Uiso   1.00
C1142  C     0.42564   0.20225   0.99019   0.00000  Uiso   1.00
C1143  C     0.51868   0.14832   0.62951   0.00000  Uiso   1.00
C1144  C     0.48446   0.18632   0.87080   0.00000  Uiso   1.00
C1145  C     0.57567   0.11559   0.51145   0.00000  Uiso   1.00
C1146  C     0.52860   0.13923   0.58133   0.00000  Uiso   1.00
C1147  C     0.44808   0.21691   0.94736   0.00000  Uiso   1.00
C1148  C     0.58715   0.09822   0.58688   0.00000  Uiso   1.00
C1149  C     0.62048   0.12919   0.60385   0.00000  Uiso   1.00
C1150  C     0.64805   0.11765   0.78988   0.00000  Uiso   1.00
C1151  C     0.33963   0.09000   0.80853   0.00000  Uiso   1.00
C1152  C     0.54263   0.01126   0.69420   0.00000  Uiso   1.00
C1153  C     0.44215   0.17097   0.50765   0.00000  Uiso   1.00
C1154  C     0.57127   0.31857   0.65842   0.00000  Uiso   1.00
C1155  C     0.45463   0.33031   0.80996   0.00000  Uiso   1.00
C1156  C     0.43215   0.03016   0.84226   0.00000  Uiso   1.00
C1157  C     0.57886   0.09360   0.90969   0.00000  Uiso   1.00
C1158  C     0.55314   0.07304   0.87650   0.00000  Uiso   1.00
C1159  C     0.62212   0.10949   0.98846   0.00000  Uiso   1.00
C1160  C     0.63055   0.06392   0.98089   0.00000  Uiso   1.00
C1161  C     0.43970   0.25675   0.93060   0.00000  Uiso   1.00
C1162  C     0.45033   0.29522   0.96015   0.00000  Uiso   1.00
C1163  C     0.41242   0.13998   0.53966   0.00000  Uiso   1.00
C1164  C     0.48524   0.16379   0.98801   0.00000  Uiso   1.00
C1165  C     0.40964   0.09627   0.51697   0.00000  Uiso   1.00
C1166  C     0.38383   0.21808   0.51584   0.00000  Uiso   1.00
C1167  C     0.38643   0.23797   0.56220   0.00000  Uiso   1.00
C1168  C     0.35893   0.21274   0.71185   0.00000  Uiso   1.00
C1169  C     0.34193   0.24156   0.68619   0.00000  Uiso   1.00
C1170  C     0.50269   0.17209   0.94257   0.00000  Uiso   1.00
C1171  C     0.51120   0.14760   0.51139   0.00000  Uiso   1.00
C1172  C     0.54796   0.12880   0.98738   0.00000  Uiso   1.00
C1173  C     0.55721   0.12761   0.94000   0.00000  Uiso   1.00
C1174  C     0.54128   0.15653   0.92036   0.00000  Uiso   1.00
H1175  H     0.63301   0.15524   0.58151   0.00000  Uiso   1.00
H1176  H     0.63092   0.09704   0.76760   0.00000  Uiso   1.00
H1177  H     0.59445   0.30599   0.67276   0.00000  Uiso   1.00
H1178  H     0.55177   0.29330   0.64313   0.00000  Uiso   1.00
H1179  H     0.58999   0.00535   0.63121   0.00000  Uiso   1.00
H1180  H     0.52341   0.02582   0.67637   0.00000  Uiso   1.00
H1181  H     0.56404   0.03652   0.70708   0.00000  Uiso   1.00
H1182  H     0.45578   0.05321   0.85465   0.00000  Uiso   1.00
H1183  H     0.41319   0.04614   0.82547   0.00000  Uiso   1.00
H1184  H     0.41003   0.01518   0.87175   0.00000  Uiso   1.00
H1185  H     0.42887   0.30737   0.80116   0.00000  Uiso   1.00
H1186  H     0.60647   0.14208   0.63809   0.00000  Uiso   1.00
H1187  H     0.47255   0.31552   0.82910   0.00000  Uiso   1.00
H1188  H     0.51987   0.06206   0.89469   0.00000  Uiso   1.00
H1189  H     0.55248   0.09496   0.85144   0.00000  Uiso   1.00
H1190  H     0.56816   0.04594   0.85811   0.00000  Uiso   1.00
H1191  H     0.61125   0.10639   0.89116   0.00000  Uiso   1.00
H1192  H     0.58116   0.06824   0.92975   0.00000  Uiso   1.00
H1193  H     0.65219   0.05773   0.50136   0.00000  Uiso   1.00
H1194  H     0.60047   0.04227   0.98987   0.00000  Uiso   1.00
H1195  H     0.64671   0.05712   0.94513   0.00000  Uiso   1.00
H1196  H     0.63334   0.12510   0.95644   0.00000  Uiso   1.00
H1197  H     0.64757   0.11308   0.60592   0.00000  Uiso   1.00
H1198  H     0.64355   0.12634   0.50873   0.00000  Uiso   1.00
H1199  H     0.48106   0.17499   0.57580   0.00000  Uiso   1.00
H1200  H     0.42665   0.29656   0.99290   0.00000  Uiso   1.00
H1201  H     0.48267   0.29569   0.96587   0.00000  Uiso   1.00
H1202  H     0.45005   0.32360   0.94304   0.00000  Uiso   1.00
H1203  H     0.46081   0.26311   0.89704   0.00000  Uiso   1.00
H1204  H     0.40637   0.25434   0.92722   0.00000  Uiso   1.00
H1205  H     0.38587   0.07499   0.53971   0.00000  Uiso   1.00
H1206  H     0.39937   0.09645   0.98531   0.00000  Uiso   1.00
H1207  H     0.44101   0.08427   0.50932   0.00000  Uiso   1.00
H1208  H     0.56400   0.08359   0.61601   0.00000  Uiso   1.00
H1209  H     0.42203   0.13898   0.57129   0.00000  Uiso   1.00
H1210  H     0.37941   0.14767   0.55052   0.00000  Uiso   1.00
H1211  H     0.35676   0.25205   0.57808   0.00000  Uiso   1.00
H1212  H     0.41412   0.26260   0.55935   0.00000  Uiso   1.00
H1213  H     0.38976   0.21465   0.58456   0.00000  Uiso   1.00
H1214  H     0.37421   0.24117   0.99768   0.00000  Uiso   1.00
H1215  H     0.35698   0.19261   0.51913   0.00000  Uiso   1.00
H1216  H     0.55858   0.16429   0.88684   0.00000  Uiso   1.00
H1217  H     0.66236   0.22383   0.65900   0.00000  Uiso   1.00
H1218  H     0.65071   0.25884   0.70940   0.00000  Uiso   1.00
H1219  H     0.60278   0.07205   0.56758   0.00000  Uiso   1.00
H1220  H     0.36864   0.26469   0.67010   0.00000  Uiso   1.00
H1221  H     0.37517   0.23322   0.73496   0.00000  Uiso   1.00
H1222  H     0.38368   0.19696   0.68690   0.00000  Uiso   1.00
H1223  H     0.36219   0.07452   0.78084   0.00000  Uiso   1.00
H1224  H     0.35730   0.10847   0.83172   0.00000  Uiso   1.00
H1225  H     0.65038   0.06527   0.82746   0.00000  Uiso   1.00
H1226  H     0.62477   0.13024   0.81911   0.00000  Uiso   1.00
O1227  O     0.50000   0.16667   0.75000   0.00000  Uiso   1.00
O1228  O     0.48784   0.12637   0.65459   0.00000  Uiso   1.00
O1229  O     0.46274   0.20391   0.84968   0.00000  Uiso   1.00
O1230  O     0.54157   0.17759   0.64606   0.00000  Uiso   1.00
O1231  O     0.50785   0.15880   0.84968   0.00000  Uiso   1.00
O1232  O     0.51264   0.08019   0.78214   0.00000  Uiso   1.00
O1233  O     0.47965   0.26085   0.77014   0.00000  Uiso   1.00
O1234  O     0.40745   0.13291   0.73413   0.00000  Uiso   1.00
O1235  O     0.60026   0.19272   0.71361   0.00000  Uiso   1.00
O1236  O     0.40405   0.18878   0.78213   0.00000  Uiso   1.00
O1237  O     0.58824   0.15226   0.77014   0.00000  Uiso   1.00
O1238  O     0.47093   0.06944   0.73413   0.00000  Uiso   1.00
O1239  O     0.53678   0.25620   0.71361   0.00000  Uiso   1.00
Zn1240 Zn    0.52672   0.13994   0.78734   0.00000  Uiso   1.00
Zn1241 Zn    0.46713   0.12458   0.71876   0.00000  Uiso   1.00
Zn1242 Zn    0.54389   0.19775   0.70657   0.00000  Uiso   1.00
Zn1243 Zn    0.46226   0.20439   0.78734   0.00000  Uiso   1.00
C1244  C     0.71985   0.15895   0.76037   0.00000  Uiso   1.00
C1245  C     0.83752   0.15483   0.55772   0.00000  Uiso   1.00
C1246  C     0.89671   0.11787   0.55919   0.00000  Uiso   1.00
C1247  C     0.94765   0.17436   0.74062   0.00000  Uiso   1.00
C1248  C     0.81328   0.19378   0.92039   0.00000  Uiso   1.00
C1249  C     0.99353   0.17944   0.73951   0.00000  Uiso   1.00
C1250  C     0.67484   0.15428   0.76377   0.00000  Uiso   1.00
C1251  C     0.84512   0.32287   0.73472   0.00000  Uiso   1.00
C1252  C     0.81882   0.01268   0.76647   0.00000  Uiso   1.00
C1253  C     0.82272   0.05628   0.76084   0.00000  Uiso   1.00
C1254  C     0.84307   0.27803   0.73972   0.00000  Uiso   1.00
C1255  C     0.75898   0.20225   0.99019   0.00000  Uiso   1.00
C1256  C     0.85201   0.14832   0.62951   0.00000  Uiso   1.00
C1257  C     0.81779   0.18632   0.87080   0.00000  Uiso   1.00
C1258  C     0.90901   0.11559   0.51145   0.00000  Uiso   1.00
C1259  C     0.86194   0.13923   0.58133   0.00000  Uiso   1.00
C1260  C     0.78141   0.21691   0.94736   0.00000  Uiso   1.00
C1261  C     0.92049   0.09822   0.58688   0.00000  Uiso   1.00
C1262  C     0.95382   0.12919   0.60385   0.00000  Uiso   1.00
C1263  C     0.98139   0.11765   0.78988   0.00000  Uiso   1.00
C1264  C     0.67296   0.09000   0.80853   0.00000  Uiso   1.00
C1265  C     0.87596   0.01126   0.69420   0.00000  Uiso   1.00
C1266  C     0.77548   0.17097   0.50765   0.00000  Uiso   1.00
C1267  C     0.90460   0.31857   0.65842   0.00000  Uiso   1.00
C1268  C     0.78797   0.33031   0.80996   0.00000  Uiso   1.00
C1269  C     0.76549   0.03016   0.84226   0.00000  Uiso   1.00
C1270  C     0.91219   0.09360   0.90969   0.00000  Uiso   1.00
C1271  C     0.88647   0.07304   0.87650   0.00000  Uiso   1.00
C1272  C     0.95545   0.10949   0.98846   0.00000  Uiso   1.00
C1273  C     0.96388   0.06392   0.98089   0.00000  Uiso   1.00
C1274  C     0.77303   0.25675   0.93060   0.00000  Uiso   1.00
C1275  C     0.78366   0.29522   0.96015   0.00000  Uiso   1.00
C1276  C     0.74575   0.13998   0.53966   0.00000  Uiso   1.00
C1277  C     0.81857   0.16379   0.98801   0.00000  Uiso   1.00
C1278  C     0.74298   0.09627   0.51697   0.00000  Uiso   1.00
C1279  C     0.71716   0.21808   0.51584   0.00000  Uiso   1.00
C1280  C     0.71976   0.23797   0.56220   0.00000  Uiso   1.00
C1281  C     0.69226   0.21274   0.71185   0.00000  Uiso   1.00
C1282  C     0.67526   0.24156   0.68619   0.00000  Uiso   1.00
C1283  C     0.83602   0.17209   0.94257   0.00000  Uiso   1.00
C1284  C     0.84453   0.14760   0.51139   0.00000  Uiso   1.00
C1285  C     0.88130   0.12880   0.98738   0.00000  Uiso   1.00
C1286  C     0.89054   0.12761   0.94000   0.00000  Uiso   1.00
C1287  C     0.87461   0.15653   0.92036   0.00000  Uiso   1.00
H1288  H     0.96634   0.15524   0.58151   0.00000  Uiso   1.00
H1289  H     0.96425   0.09704   0.76760   0.00000  Uiso   1.00
H1290  H     0.92779   0.30599   0.67276   0.00000  Uiso   1.00
H1291  H     0.88511   0.29330   0.64313   0.00000  Uiso   1.00
H1292  H     0.92332   0.00535   0.63121   0.00000  Uiso   1.00
H1293  H     0.85674   0.02582   0.67637   0.00000  Uiso   1.00
H1294  H     0.89737   0.03652   0.70708   0.00000  Uiso   1.00
H1295  H     0.78911   0.05321   0.85465   0.00000  Uiso   1.00
H1296  H     0.74653   0.04614   0.82547   0.00000  Uiso   1.00
H1297  H     0.74336   0.01518   0.87175   0.00000  Uiso   1.00
H1298  H     0.76220   0.30737   0.80116   0.00000  Uiso   1.00
H1299  H     0.93981   0.14208   0.63809   0.00000  Uiso   1.00
H1300  H     0.80588   0.31552   0.82910   0.00000  Uiso   1.00
H1301  H     0.85321   0.06206   0.89469   0.00000  Uiso   1.00
H1302  H     0.88581   0.09496   0.85144   0.00000  Uiso   1.00
H1303  H     0.90150   0.04594   0.85811   0.00000  Uiso   1.00
H1304  H     0.94458   0.10639   0.89116   0.00000  Uiso   1.00
H1305  H     0.91449   0.06824   0.92975   0.00000  Uiso   1.00
H1306  H     0.98552   0.05773   0.50136   0.00000  Uiso   1.00
H1307  H     0.93381   0.04227   0.98987   0.00000  Uiso   1.00
H1308  H     0.98004   0.05712   0.94513   0.00000  Uiso   1.00
H1309  H     0.96667   0.12510   0.95644   0.00000  Uiso   1.00
H1310  H     0.98091   0.11308   0.60592   0.00000  Uiso   1.00
H1311  H     0.97688   0.12634   0.50873   0.00000  Uiso   1.00
H1312  H     0.81439   0.17499   0.57580   0.00000  Uiso   1.00
H1313  H     0.75998   0.29656   0.99290   0.00000  Uiso   1.00
H1314  H     0.81600   0.29569   0.96587   0.00000  Uiso   1.00
H1315  H     0.78339   0.32360   0.94304   0.00000  Uiso   1.00
H1316  H     0.79415   0.26311   0.89704   0.00000  Uiso   1.00
H1317  H     0.73970   0.25434   0.92722   0.00000  Uiso   1.00
H1318  H     0.71920   0.07499   0.53971   0.00000  Uiso   1.00
H1319  H     0.73271   0.09645   0.98531   0.00000  Uiso   1.00
H1320  H     0.77434   0.08427   0.50932   0.00000  Uiso   1.00
H1321  H     0.89733   0.08359   0.61601   0.00000  Uiso   1.00
H1322  H     0.75536   0.13898   0.57129   0.00000  Uiso   1.00
H1323  H     0.71274   0.14767   0.55052   0.00000  Uiso   1.00
H1324  H     0.69009   0.25205   0.57808   0.00000  Uiso   1.00
H1325  H     0.74745   0.26260   0.55935   0.00000  Uiso   1.00
H1326  H     0.72310   0.21465   0.58456   0.00000  Uiso   1.00
H1327  H     0.70755   0.24117   0.99768   0.00000  Uiso   1.00
H1328  H     0.69031   0.19261   0.51913   0.00000  Uiso   1.00
H1329  H     0.89192   0.16429   0.88684   0.00000  Uiso   1.00
H1330  H     0.99570   0.22383   0.65900   0.00000  Uiso   1.00
H1331  H     0.98405   0.25884   0.70940   0.00000  Uiso   1.00
H1332  H     0.93611   0.07205   0.56758   0.00000  Uiso   1.00
H1333  H     0.70197   0.26469   0.67010   0.00000  Uiso   1.00
H1334  H     0.70851   0.23322   0.73496   0.00000  Uiso   1.00
H1335  H     0.71701   0.19696   0.68690   0.00000  Uiso   1.00
H1336  H     0.69553   0.07452   0.78084   0.00000  Uiso   1.00
H1337  H     0.69063   0.10847   0.83172   0.00000  Uiso   1.00
H1338  H     0.98371   0.06527   0.82746   0.00000  Uiso   1.00
H1339  H     0.95810   0.13024   0.81911   0.00000  Uiso   1.00
O1340  O     0.83333   0.16667   0.75000   0.00000  Uiso   1.00
O1341  O     0.82118   0.12637   0.65459   0.00000  Uiso   1.00
O1342  O     0.79607   0.20391   0.84968   0.00000  Uiso   1.00
O1343  O     0.87491   0.17759   0.64606   0.00000  Uiso   1.00
O1344  O     0.84118   0.15880   0.84968   0.00000  Uiso   1.00
O1345  O     0.84597   0.08019   0.78214   0.00000  Uiso   1.00
O1346  O     0.81298   0.26085   0.77014   0.00000  Uiso   1.00
O1347  O     0.74078   0.13291   0.73413   0.00000  Uiso   1.00
O1348  O     0.93360   0.19272   0.71361   0.00000  Uiso   1.00
O1349  O     0.73738   0.18878   0.78213   0.00000  Uiso   1.00
O1350  O     0.92158   0.15226   0.77014   0.00000  Uiso   1.00
O1351  O     0.80426   0.06944   0.73413   0.00000  Uiso   1.00
O1352  O     0.87012   0.25620   0.71361   0.00000  Uiso   1.00
Zn1353 Zn    0.86005   0.13994   0.78734   0.00000  Uiso   1.00
Zn1354 Zn    0.80046   0.12458   0.71876   0.00000  Uiso   1.00
Zn1355 Zn    0.87723   0.19775   0.70657   0.00000  Uiso   1.00
Zn1356 Zn    0.79560   0.20439   0.78734   0.00000  Uiso   1.00
C1357  C     0.05319   0.49229   0.76037   0.00000  Uiso   1.00
C1358  C     0.17085   0.48817   0.55772   0.00000  Uiso   1.00
C1359  C     0.23004   0.45120   0.55919   0.00000  Uiso   1.00
C1360  C     0.28098   0.50769   0.74062   0.00000  Uiso   1.00
C1361  C     0.14662   0.52711   0.92039   0.00000  Uiso   1.00
C1362  C     0.32686   0.51277   0.73951   0.00000  Uiso   1.00
C1363  C     0.00817   0.48761   0.76377   0.00000  Uiso   1.00
C1364  C     0.17845   0.65620   0.73472   0.00000  Uiso   1.00
C1365  C     0.15216   0.34601   0.76647   0.00000  Uiso   1.00
C1366  C     0.15605   0.38961   0.76084   0.00000  Uiso   1.00
C1367  C     0.17640   0.61137   0.73972   0.00000  Uiso   1.00
C1368  C     0.09231   0.53558   0.99019   0.00000  Uiso   1.00
C1369  C     0.18534   0.48166   0.62951   0.00000  Uiso   1.00
C1370  C     0.15113   0.51965   0.87080   0.00000  Uiso   1.00
C1371  C     0.24234   0.44893   0.51145   0.00000  Uiso   1.00
C1372  C     0.19527   0.47256   0.58133   0.00000  Uiso   1.00
C1373  C     0.11475   0.55025   0.94736   0.00000  Uiso   1.00
C1374  C     0.25382   0.43155   0.58688   0.00000  Uiso   1.00
C1375  C     0.28715   0.46252   0.60385   0.00000  Uiso   1.00
C1376  C     0.31472   0.45099   0.78988   0.00000  Uiso   1.00
C1377  C     0.00630   0.42334   0.80853   0.00000  Uiso   1.00
C1378  C     0.20930   0.34459   0.69420   0.00000  Uiso   1.00
C1379  C     0.10882   0.50430   0.50765   0.00000  Uiso   1.00
C1380  C     0.23794   0.65191   0.65842   0.00000  Uiso   1.00
C1381  C     0.12130   0.66364   0.80996   0.00000  Uiso   1.00
C1382  C     0.09882   0.36349   0.84226   0.00000  Uiso   1.00
C1383  C     0.24553   0.42693   0.90969   0.00000  Uiso   1.00
C1384  C     0.21980   0.40638   0.87650   0.00000  Uiso   1.00
C1385  C     0.28879   0.44283   0.98846   0.00000  Uiso   1.00
C1386  C     0.29721   0.39725   0.98089   0.00000  Uiso   1.00
C1387  C     0.10637   0.59009   0.93060   0.00000  Uiso   1.00
C1388  C     0.11700   0.62855   0.96015   0.00000  Uiso   1.00
C1389  C     0.07908   0.47331   0.53966   0.00000  Uiso   1.00
C1390  C     0.15191   0.49713   0.98801   0.00000  Uiso   1.00
C1391  C     0.07631   0.42961   0.51697   0.00000  Uiso   1.00
C1392  C     0.05050   0.55141   0.51584   0.00000  Uiso   1.00
C1393  C     0.05309   0.57130   0.56220   0.00000  Uiso   1.00
C1394  C     0.02560   0.54607   0.71185   0.00000  Uiso   1.00
C1395  C     0.00860   0.57489   0.68619   0.00000  Uiso   1.00
C1396  C     0.16936   0.50542   0.94257   0.00000  Uiso   1.00
C1397  C     0.17786   0.48093   0.51139   0.00000  Uiso   1.00
C1398  C     0.21463   0.46213   0.98738   0.00000  Uiso   1.00
C1399  C     0.22387   0.46094   0.94000   0.00000  Uiso   1.00
C1400  C     0.20794   0.48986   0.92036   0.00000  Uiso   1.00
H1401  H     0.29968   0.48857   0.58151   0.00000  Uiso   1.00
H1402  H     0.29759   0.43037   0.76760   0.00000  Uiso   1.00
H1403  H     0.26112   0.63932   0.67276   0.00000  Uiso   1.00
H1404  H     0.21844   0.62663   0.64313   0.00000  Uiso   1.00
H1405  H     0.25665   0.33869   0.63121   0.00000  Uiso   1.00
H1406  H     0.19008   0.35916   0.67637   0.00000  Uiso   1.00
H1407  H     0.23071   0.36985   0.70708   0.00000  Uiso   1.00
H1408  H     0.12244   0.38655   0.85465   0.00000  Uiso   1.00
H1409  H     0.07986   0.37948   0.82547   0.00000  Uiso   1.00
H1410  H     0.07669   0.34851   0.87175   0.00000  Uiso   1.00
H1411  H     0.09553   0.64070   0.80116   0.00000  Uiso   1.00
H1412  H     0.27314   0.47542   0.63809   0.00000  Uiso   1.00
H1413  H     0.13921   0.64885   0.82910   0.00000  Uiso   1.00
H1414  H     0.18654   0.39539   0.89469   0.00000  Uiso   1.00
H1415  H     0.21915   0.42829   0.85144   0.00000  Uiso   1.00
H1416  H     0.23483   0.37927   0.85811   0.00000  Uiso   1.00
H1417  H     0.27791   0.43972   0.89116   0.00000  Uiso   1.00
H1418  H     0.24782   0.40157   0.92975   0.00000  Uiso   1.00
H1419  H     0.31885   0.39106   0.50136   0.00000  Uiso   1.00
H1420  H     0.26714   0.37560   0.98987   0.00000  Uiso   1.00
H1421  H     0.31338   0.39045   0.94513   0.00000  Uiso   1.00
H1422  H     0.30001   0.45844   0.95644   0.00000  Uiso   1.00
H1423  H     0.31424   0.44641   0.60592   0.00000  Uiso   1.00
H1424  H     0.31022   0.45967   0.50873   0.00000  Uiso   1.00
H1425  H     0.14772   0.50833   0.57580   0.00000  Uiso   1.00
H1426  H     0.09332   0.62989   0.99290   0.00000  Uiso   1.00
H1427  H     0.14933   0.62902   0.96587   0.00000  Uiso   1.00
H1428  H     0.11672   0.65693   0.94304   0.00000  Uiso   1.00
H1429  H     0.12748   0.59644   0.89704   0.00000  Uiso   1.00
H1430  H     0.07304   0.58767   0.92722   0.00000  Uiso   1.00
H1431  H     0.05254   0.40833   0.53971   0.00000  Uiso   1.00
H1432  H     0.06604   0.42978   0.98531   0.00000  Uiso   1.00
H1433  H     0.10768   0.41760   0.50932   0.00000  Uiso   1.00
H1434  H     0.23067   0.41692   0.61601   0.00000  Uiso   1.00
H1435  H     0.08869   0.47231   0.57129   0.00000  Uiso   1.00
H1436  H     0.04607   0.48101   0.55052   0.00000  Uiso   1.00
H1437  H     0.02343   0.58539   0.57808   0.00000  Uiso   1.00
H1438  H     0.08079   0.59594   0.55935   0.00000  Uiso   1.00
H1439  H     0.05643   0.54799   0.58456   0.00000  Uiso   1.00
H1440  H     0.04088   0.57450   0.99768   0.00000  Uiso   1.00
H1441  H     0.02365   0.52595   0.51913   0.00000  Uiso   1.00
H1442  H     0.22525   0.49762   0.88684   0.00000  Uiso   1.00
H1443  H     0.32903   0.55716   0.65900   0.00000  Uiso   1.00
H1444  H     0.31738   0.59217   0.70940   0.00000  Uiso   1.00
H1445  H     0.26944   0.40538   0.56758   0.00000  Uiso   1.00
H1446  H     0.03530   0.59803   0.67010   0.00000  Uiso   1.00
H1447  H     0.04184   0.56655   0.73496   0.00000  Uiso   1.00
H1448  H     0.05034   0.53030   0.68690   0.00000  Uiso   1.00
H1449  H     0.02886   0.40785   0.78084   0.00000  Uiso   1.00
H1450  H     0.02396   0.44181   0.83172   0.00000  Uiso   1.00
H1451  H     0.31704   0.39861   0.82746   0.00000  Uiso   1.00
H1452  H     0.29144   0.46357   0.81911   0.00000  Uiso   1.00
O1453  O     0.16667   0.50000   0.75000   0.00000  Uiso   1.00
O1454  O     0.15451   0.45970   0.65459   0.00000  Uiso   1.00
O1455  O     0.12940   0.53724   0.84968   0.00000  Uiso   1.00
O1456  O     0.20824   0.51092   0.64606   0.00000  Uiso   1.00
O1457  O     0.17451   0.49213   0.84968   0.00000  Uiso   1.00
O1458  O     0.17930   0.41352   0.78214   0.00000  Uiso   1.00
O1459  O     0.14632   0.59418   0.77014   0.00000  Uiso   1.00
O1460  O     0.07412   0.46625   0.73413   0.00000  Uiso   1.00
O1461  O     0.26693   0.52605   0.71361   0.00000  Uiso   1.00
O1462  O     0.07071   0.52211   0.78213   0.00000  Uiso   1.00
O1463  O     0.25491   0.48559   0.77014   0.00000  Uiso   1.00
O1464  O     0.13760   0.40277   0.73413   0.00000  Uiso   1.00
O1465  O     0.20345   0.58953   0.71361   0.00000  Uiso   1.00
Zn1466 Zn    0.19338   0.47327   0.78734   0.00000  Uiso   1.00
Zn1467 Zn    0.13379   0.45791   0.71876   0.00000  Uiso   1.00
Zn1468 Zn    0.21056   0.53109   0.70657   0.00000  Uiso   1.00
Zn1469 Zn    0.12893   0.53773   0.78734   0.00000  Uiso   1.00
C1470  C     0.38652   0.49229   0.76037   0.00000  Uiso   1.00
C1471  C     0.50419   0.48817   0.55772   0.00000  Uiso   1.00
C1472  C     0.56337   0.45120   0.55919   0.00000  Uiso   1.00
C1473  C     0.61431   0.50769   0.74062   0.00000  Uiso   1.00
C1474  C     0.47995   0.52711   0.92039   0.00000  Uiso   1.00
C1475  C     0.66019   0.51277   0.73951   0.00000  Uiso   1.00
C1476  C     0.34150   0.48761   0.76377   0.00000  Uiso   1.00
C1477  C     0.51178   0.65620   0.73472   0.00000  Uiso   1.00
C1478  C     0.48549   0.34601   0.76647   0.00000  Uiso   1.00
C1479  C     0.48939   0.38961   0.76084   0.00000  Uiso   1.00
C1480  C     0.50974   0.61137   0.73972   0.00000  Uiso   1.00
C1481  C     0.42564   0.53558   0.99019   0.00000  Uiso   1.00
C1482  C     0.51868   0.48166   0.62951   0.00000  Uiso   1.00
C1483  C     0.48446   0.51965   0.87080   0.00000  Uiso   1.00
C1484  C     0.57567   0.44893   0.51145   0.00000  Uiso   1.00
C1485  C     0.52860   0.47256   0.58133   0.00000  Uiso   1.00
C1486  C     0.44808   0.55025   0.94736   0.00000  Uiso   1.00
C1487  C     0.58715   0.43155   0.58688   0.00000  Uiso   1.00
C1488  C     0.62048   0.46252   0.60385   0.00000  Uiso   1.00
C1489  C     0.64805   0.45099   0.78988   0.00000  Uiso   1.00
C1490  C     0.33963   0.42334   0.80853   0.00000  Uiso   1.00
C1491  C     0.54263   0.34459   0.69420   0.00000  Uiso   1.00
C1492  C     0.44215   0.50430   0.50765   0.00000  Uiso   1.00
C1493  C     0.57127   0.65191   0.65842   0.00000  Uiso   1.00
C1494  C     0.45463   0.66364   0.80996   0.00000  Uiso   1.00
C1495  C     0.43215   0.36349   0.84226   0.00000  Uiso   1.00
C1496  C     0.57886   0.42693   0.90969   0.00000  Uiso   1.00
C1497  C     0.55314   0.40638   0.87650   0.00000  Uiso   1.00
C1498  C     0.62212   0.44283   0.98846   0.00000  Uiso   1.00
C1499  C     0.63055   0.39725   0.98089   0.00000  Uiso   1.00
C1500  C     0.43970   0.59009   0.93060   0.00000  Uiso   1.00
C1501  C     0.45033   0.62855   0.96015   0.00000  Uiso   1.00
C1502  C     0.41242   0.47331   0.53966   0.00000  Uiso   1.00
C1503  C     0.48524   0.49713   0.98801   0.00000  Uiso   1.00
C1504  C     0.40964   0.42961   0.51697   0.00000  Uiso   1.00
C1505  C     0.38383   0.55141   0.51584   0.00000  Uiso   1.00
C1506  C     0.38643   0.57130   0.56220   0.00000  Uiso   1.00
C1507  C     0.35893   0.54607   0.71185   0.00000  Uiso   1.00
C1508  C     0.34193   0.57489   0.68619   0.00000  Uiso   1.00
C1509  C     0.50269   0.50542   0.94257   0.00000  Uiso   1.00
C1510  C     0.51120   0.48093   0.51139   0.00000  Uiso   1.00
C1511  C     0.54796   0.46213   0.98738   0.00000  Uiso   1.00
C1512  C     0.55721   0.46094   0.94000   0.00000  Uiso   1.00
C1513  C     0.54128   0.48986   0.92036   0.00000  Uiso   1.00
H1514  H     0.63301   0.48857   0.58151   0.00000  Uiso   1.00
H1515  H     0.63092   0.43037   0.76760   0.00000  Uiso   1.00
H1516  H     0.59445   0.63932   0.67276   0.00000  Uiso   1.00
H1517  H     0.55177   0.62663   0.64313   0.00000  Uiso   1.00
H1518  H     0.58999   0.33869   0.63121   0.00000  Uiso   1.00
H1519  H     0.52341   0.35916   0.67637   0.00000  Uiso   1.00
H1520  H     0.56404   0.36985   0.70708   0.00000  Uiso   1.00
H1521  H     0.45578   0.38655   0.85465   0.00000  Uiso   1.00
H1522  H     0.41319   0.37948   0.82547   0.00000  Uiso   1.00
H1523  H     0.41003   0.34851   0.87175   0.00000  Uiso   1.00
H1524  H     0.42887   0.64070   0.80116   0.00000  Uiso   1.00
H1525  H     0.60647   0.47542   0.63809   0.00000  Uiso   1.00
H1526  H     0.47255   0.64885   0.82910   0.00000  Uiso   1.00
H1527  H     0.51987   0.39539   0.89469   0.00000  Uiso   1.00
H1528  H     0.55248   0.42829   0.85144   0.00000  Uiso   1.00
H1529  H     0.56816   0.37927   0.85811   0.00000  Uiso   1.00
H1530  H     0.61125   0.43972   0.89116   0.00000  Uiso   1.00
H1531  H     0.58116   0.40157   0.92975   0.00000  Uiso   1.00
H1532  H     0.65219   0.39106   0.50136   0.00000  Uiso   1.00
H1533  H     0.60047   0.37560   0.98987   0.00000  Uiso   1.00
H1534  H     0.64671   0.39045   0.94513   0.00000  Uiso   1.00
H1535  H     0.63334   0.45844   0.95644   0.00000  Uiso   1.00
H1536  H     0.64757   0.44641   0.60592   0.00000  Uiso   1.00
H1537  H     0.64355   0.45967   0.50873   0.00000  Uiso   1.00
H1538  H     0.48106   0.50833   0.57580   0.00000  Uiso   1.00
H1539  H     0.42665   0.62989   0.99290   0.00000  Uiso   1.00
H1540  H     0.48267   0.62902   0.96587   0.00000  Uiso   1.00
H1541  H     0.45005   0.65693   0.94304   0.00000  Uiso   1.00
H1542  H     0.46081   0.59644   0.89704   0.00000  Uiso   1.00
H1543  H     0.40637   0.58767   0.92722   0.00000  Uiso   1.00
H1544  H     0.38587   0.40833   0.53971   0.00000  Uiso   1.00
H1545  H     0.39937   0.42978   0.98531   0.00000  Uiso   1.00
H1546  H     0.44101   0.41760   0.50932   0.00000  Uiso   1.00
H1547  H     0.56400   0.41692   0.61601   0.00000  Uiso   1.00
H1548  H     0.42203   0.47231   0.57129   0.00000  Uiso   1.00
H1549  H     0.37941   0.48101   0.55052   0.00000  Uiso   1.00
H1550  H     0.35676   0.58539   0.57808   0.00000  Uiso   1.00
H1551  H     0.41412   0.59594   0.55935   0.00000  Uiso   1.00
H1552  H     0.38976   0.54799   0.58456   0.00000  Uiso   1.00
H1553  H     0.37421   0.57450   0.99768   0.00000  Uiso   1.00
H1554  H     0.35698   0.52595   0.51913   0.00000  Uiso   1.00
H1555  H     0.55858   0.49762   0.88684   0.00000  Uiso   1.00
H1556  H     0.66236   0.55716   0.65900   0.00000  Uiso   1.00
H1557  H     0.65071   0.59217   0.70940   0.00000  Uiso   1.00
H1558  H     0.60278   0.40538   0.56758   0.00000  Uiso   1.00
H1559  H     0.36864   0.59803   0.67010   0.00000  Uiso   1.00
H1560  H     0.37517   0.56655   0.73496   0.00000  Uiso   1.00
H1561  H     0.38368   0.53030   0.68690   0.00000  Uiso   1.00
H1562  H     0.36219   0.40785   0.78084   0.00000  Uiso   1.00
H1563  H     0.35730   0.44181   0.83172   0.00000  Uiso   1.00
H1564  H     0.65038   0.39861   0.82746   0.00000  Uiso   1.00
H1565  H     0.62477   0.46357   0.81911   0.00000  Uiso   1.00
O1566  O     0.50000   0.50000   0.75000   0.00000  Uiso   1.00
O1567  O     0.48784   0.45970   0.65459   0.00000  Uiso   1.00
O1568  O     0.46274   0.53724   0.84968   0.00000  Uiso   1.00
O1569  O     0.54157   0.51092   0.64606   0.00000  Uiso   1.00
O1570  O     0.50785   0.49213   0.84968   0.00000  Uiso   1.00
O1571  O     0.51264   0.41352   0.78214   0.00000  Uiso   1.00
O1572  O     0.47965   0.59418   0.77014   0.00000  Uiso   1.00
O1573  O     0.40745   0.46625   0.73413   0.00000  Uiso   1.00
O1574  O     0.60026   0.52605   0.71361   0.00000  Uiso   1.00
O1575  O     0.40405   0.52211   0.78213   0.00000  Uiso   1.00
O1576  O     0.58824   0.48559   0.77014   0.00000  Uiso   1.00
O1577  O     0.47093   0.40277   0.73413   0.00000  Uiso   1.00
O1578  O     0.53678   0.58953   0.71361   0.00000  Uiso   1.00
Zn1579 Zn    0.52672   0.47327   0.78734   0.00000  Uiso   1.00
Zn1580 Zn    0.46713   0.45791   0.71876   0.00000  Uiso   1.00
Zn1581 Zn    0.54389   0.53109   0.70657   0.00000  Uiso   1.00
Zn1582 Zn    0.46226   0.53773   0.78734   0.00000  Uiso   1.00
C1583  C     0.71985   0.49229   0.76037   0.00000  Uiso   1.00
C1584  C     0.83752   0.48817   0.55772   0.00000  Uiso   1.00
C1585  C     0.89671   0.45120   0.55919   0.00000  Uiso   1.00
C1586  C     0.94765   0.50769   0.74062   0.00000  Uiso   1.00
C1587  C     0.81328   0.52711   0.92039   0.00000  Uiso   1.00
C1588  C     0.99353   0.51277   0.73951   0.00000  Uiso   1.00
C1589  C     0.67484   0.48761   0.76377   0.00000  Uiso   1.00
C1590  C     0.84512   0.65620   0.73472   0.00000  Uiso   1.00
C1591  C     0.81882   0.34601   0.76647   0.00000  Uiso   1.00
C1592  C     0.82272   0.38961   0.76084   0.00000  Uiso   1.00
C1593  C     0.84307   0.61137   0.73972   0.00000  Uiso   1.00
C1594  C     0.75898   0.53558   0.99019   0.00000  Uiso   1.00
C1595  C     0.85201   0.48166   0.62951   0.00000  Uiso   1.00
C1596  C     0.81779   0.51965   0.87080   0.00000  Uiso   1.00
C1597  C     0.90901   0.44893   0.51145   0.00000  Uiso   1.00
C1598  C     0.86194   0.47256   0.58133   0.00000  Uiso   1.00
C1599  C     0.78141   0.55025   0.94736   0.00000  Uiso   1.00
C1600  C     0.92049   0.43155   0.58688   0.00000  Uiso   1.00
C1601  C     0.95382   0.46252   0.60385   0.00000  Uiso   1.00
C1602  C     0.98139   0.45099   0.78988   0.00000  Uiso   1.00
C1603  C     0.67296   0.42334   0.80853   0.00000  Uiso   1.00
C1604  C     0.87596   0.34459   0.69420   0.00000  Uiso   1.00
C1605  C     0.77548   0.50430   0.50765   0.00000  Uiso   1.00
C1606  C     0.90460   0.65191   0.65842   0.00000  Uiso   1.00
C1607  C     0.78797   0.66364   0.80996   0.00000  Uiso   1.00
C1608  C     0.76549   0.36349   0.84226   0.00000  Uiso   1.00
C1609  C     0.91219   0.42693   0.90969   0.00000  Uiso   1.00
C1610  C     0.88647   0.40638   0.87650   0.00000  Uiso   1.00
C1611  C     0.95545   0.44283   0.98846   0.00000  Uiso   1.00
C1612  C     0.96388   0.39725   0.98089   0.00000  Uiso   1.00
C1613  C     0.77303   0.59009   0.93060   0.00000  Uiso   1.00
C1614  C     0.78366   0.62855   0.96015   0.00000  Uiso   1.00
C1615  C     0.74575   0.47331   0.53966   0.00000  Uiso   1.00
C1616  C     0.81857   0.49713   0.98801   0.00000  Uiso   1.00
C1617  C     0.74298   0.42961   0.51697   0.00000  Uiso   1.00
C1618  C     0.71716   0.55141   0.51584   0.00000  Uiso   1.00
C1619  C     0.71976   0.57130   0.56220   0.00000  Uiso   1.00
C1620  C     0.69226   0.54607   0.71185   0.00000  Uiso   1.00
C1621  C     0.67526   0.57489   0.68619   0.00000  Uiso   1.00
C1622  C     0.83602   0.50542   0.94257   0.00000  Uiso   1.00
C1623  C     0.84453   0.48093   0.51139   0.00000  Uiso   1.00
C1624  C     0.88130   0.46213   0.98738   0.00000  Uiso   1.00
C1625  C     0.89054   0.46094   0.94000   0.00000  Uiso   1.00
C1626  C     0.87461   0.48986   0.92036   0.00000  Uiso   1.00
H1627  H     0.96634   0.48857   0.58151   0.00000  Uiso   1.00
H1628  H     0.96425   0.43037   0.76760   0.00000  Uiso   1.00
H1629  H     0.92779   0.63932   0.67276   0.00000  Uiso   1.00
H1630  H     0.88511   0.62663   0.64313   0.00000  Uiso   1.00
H1631  H     0.92332   0.33869   0.63121   0.00000  Uiso   1.00
H1632  H     0.85674   0.35916   0.67637   0.00000  Uiso   1.00
H1633  H     0.89737   0.36985   0.70708   0.00000  Uiso   1.00
H1634  H     0.78911   0.38655   0.85465   0.00000  Uiso   1.00
H1635  H     0.74653   0.37948   0.82547   0.00000  Uiso   1.00
H1636  H     0.74336   0.34851   0.87175   0.00000  Uiso   1.00
H1637  H     0.76220   0.64070   0.80116   0.00000  Uiso   1.00
H1638  H     0.93981   0.47542   0.63809   0.00000  Uiso   1.00
H1639  H     0.80588   0.64885   0.82910   0.00000  Uiso   1.00
H1640  H     0.85321   0.39539   0.89469   0.00000  Uiso   1.00
H1641  H     0.88581   0.42829   0.85144   0.00000  Uiso   1.00
H1642  H     0.90150   0.37927   0.85811   0.00000  Uiso   1.00
H1643  H     0.94458   0.43972   0.89116   0.00000  Uiso   1.00
H1644  H     0.91449   0.40157   0.92975   0.00000  Uiso   1.00
H1645  H     0.98552   0.39106   0.50136   0.00000  Uiso   1.00
H1646  H     0.93381   0.37560   0.98987   0.00000  Uiso   1.00
H1647  H     0.98004   0.39045   0.94513   0.00000  Uiso   1.00
H1648  H     0.96667   0.45844   0.95644   0.00000  Uiso   1.00
H1649  H     0.98091   0.44641   0.60592   0.00000  Uiso   1.00
H1650  H     0.97688   0.45967   0.50873   0.00000  Uiso   1.00
H1651  H     0.81439   0.50833   0.57580   0.00000  Uiso   1.00
H1652  H     0.75998   0.62989   0.99290   0.00000  Uiso   1.00
H1653  H     0.81600   0.62902   0.96587   0.00000  Uiso   1.00
H1654  H     0.78339   0.65693   0.94304   0.00000  Uiso   1.00
H1655  H     0.79415   0.59644   0.89704   0.00000  Uiso   1.00
H1656  H     0.73970   0.58767   0.92722   0.00000  Uiso   1.00
H1657  H     0.71920   0.40833   0.53971   0.00000  Uiso   1.00
H1658  H     0.73271   0.42978   0.98531   0.00000  Uiso   1.00
H1659  H     0.77434   0.41760   0.50932   0.00000  Uiso   1.00
H1660  H     0.89733   0.41692   0.61601   0.00000  Uiso   1.00
H1661  H     0.75536   0.47231   0.57129   0.00000  Uiso   1.00
H1662  H     0.71274   0.48101   0.55052   0.00000  Uiso   1.00
H1663  H     0.69009   0.58539   0.57808   0.00000  Uiso   1.00
H1664  H     0.74745   0.59594   0.55935   0.00000  Uiso   1.00
H1665  H     0.72310   0.54799   0.58456   0.00000  Uiso   1.00
H1666  H     0.70755   0.57450   0.99768   0.00000  Uiso   1.00
H1667  H     0.69031   0.52595   0.51913   0.00000  Uiso   1.00
H1668  H     0.89192   0.49762   0.88684   0.00000  Uiso   1.00
H1669  H     0.99570   0.55716   0.65900   0.00000  Uiso   1.00
H1670  H     0.98405   0.59217   0.70940   0.00000  Uiso   1.00
H1671  H     0.93611   0.40538   0.56758   0.00000  Uiso   1.00
H1672  H     0.70197   0.59803   0.67010   0.00000  Uiso   1.00
H1673  H     0.70851   0.56655   0.73496   0.00000  Uiso   1.00
H1674  H     0.71701   0.53030   0.68690   0.00000  Uiso   1.00
H1675  H     0.69553   0.40785   0.78084   0.00000  Uiso   1.00
H1676  H     0.69063   0.44181   0.83172   0.00000  Uiso   1.00
H1677  H     0.98371   0.39861   0.82746   0.00000  Uiso   1.00
H1678  H     0.95810   0.46357   0.81911   0.00000  Uiso   1.00
O1679  O     0.83333   0.50000   0.75000   0.00000  Uiso   1.00
O1680  O     0.82118   0.45970   0.65459   0.00000  Uiso   1.00
O1681  O     0.79607   0.53724   0.84968   0.00000  Uiso   1.00
O1682  O     0.87491   0.51092   0.64606   0.00000  Uiso   1.00
O1683  O     0.84118   0.49213   0.84968   0.00000  Uiso   1.00
O1684  O     0.84597   0.41352   0.78214   0.00000  Uiso   1.00
O1685  O     0.81298   0.59418   0.77014   0.00000  Uiso   1.00
O1686  O     0.74078   0.46625   0.73413   0.00000  Uiso   1.00
O1687  O     0.93360   0.52605   0.71361   0.00000  Uiso   1.00
O1688  O     0.73738   0.52211   0.78213   0.00000  Uiso   1.00
O1689  O     0.92158   0.48559   0.77014   0.00000  Uiso   1.00
O1690  O     0.80426   0.40277   0.73413   0.00000  Uiso   1.00
O1691  O     0.87012   0.58953   0.71361   0.00000  Uiso   1.00
Zn1692 Zn    0.86005   0.47327   0.78734   0.00000  Uiso   1.00
Zn1693 Zn    0.80046   0.45791   0.71876   0.00000  Uiso   1.00
Zn1694 Zn    0.87723   0.53109   0.70657   0.00000  Uiso   1.00
Zn1695 Zn    0.79560   0.53773   0.78734   0.00000  Uiso   1.00
C1696  C     0.05319   0.82562   0.76037   0.00000  Uiso   1.00
C1697  C     0.17085   0.82150   0.55772   0.00000  Uiso   1.00
C1698  C     0.23004   0.78454   0.55919   0.00000  Uiso   1.00
C1699  C     0.28098   0.84103   0.74062   0.00000  Uiso   1.00
C1700  C     0.14662   0.86045   0.92039   0.00000  Uiso   1.00
C1701  C     0.32686   0.84610   0.73951   0.00000  Uiso   1.00
C1702  C     0.00817   0.82094   0.76377   0.00000  Uiso   1.00
C1703  C     0.17845   0.98954   0.73472   0.00000  Uiso   1.00
C1704  C     0.15216   0.67934   0.76647   0.00000  Uiso   1.00
C1705  C     0.15605   0.72295   0.76084   0.00000  Uiso   1.00
C1706  C     0.17640   0.94470   0.73972   0.00000  Uiso   1.00
C1707  C     0.09231   0.86891   0.99019   0.00000  Uiso   1.00
C1708  C     0.18534   0.81499   0.62951   0.00000  Uiso   1.00
C1709  C     0.15113   0.85299   0.87080   0.00000  Uiso   1.00
C1710  C     0.24234   0.78226   0.51145   0.00000  Uiso   1.00
C1711  C     0.19527   0.80589   0.58133   0.00000  Uiso   1.00
C1712  C     0.11475   0.88358   0.94736   0.00000  Uiso   1.00
C1713  C     0.25382   0.76488   0.58688   0.00000  Uiso   1.00
C1714  C     0.28715   0.79585   0.60385   0.00000  Uiso   1.00
C1715  C     0.31472   0.78432   0.78988   0.00000  Uiso   1.00
C1716  C     0.00630   0.75667   0.80853   0.00000  Uiso   1.00
C1717  C     0.20930   0.67792   0.69420   0.00000  Uiso   1.00
C1718  C     0.10882   0.83763   0.50765   0.00000  Uiso   1.00
C1719  C     0.23794   0.98524   0.65842   0.00000  Uiso   1.00
C1720  C     0.12130   0.99697   0.80996   0.00000  Uiso   1.00
C1721  C     0.09882   0.69682   0.84226   0.00000  Uiso   1.00
C1722  C     0.24553   0.76026   0.90969   0.00000  Uiso   1.00
C1723  C     0.21980   0.73971   0.87650   0.00000  Uiso   1.00
C1724  C     0.28879   0.77616   0.98846   0.00000  Uiso   1.00
C1725  C     0.29721   0.73059   0.98089   0.00000  Uiso   1.00
C1726  C     0.10637   0.92342   0.93060   0.00000  Uiso   1.00
C1727  C     0.11700   0.96188   0.96015   0.00000  Uiso   1.00
C1728  C     0.07908   0.80665   0.53966   0.00000  Uiso   1.00
C1729  C     0.15191   0.83046   0.98801   0.00000  Uiso   1.00
C1730  C     0.07631   0.76294   0.51697   0.00000  Uiso   1.00
C1731  C     0.05050   0.88474   0.51584   0.00000  Uiso   1.00
C1732  C     0.05309   0.90464   0.56220   0.00000  Uiso   1.00
C1733  C     0.02560   0.87940   0.71185   0.00000  Uiso   1.00
C1734  C     0.00860   0.90823   0.68619   0.00000  Uiso   1.00
C1735  C     0.16936   0.83876   0.94257   0.00000  Uiso   1.00
C1736  C     0.17786   0.81426   0.51139   0.00000  Uiso   1.00
C1737  C     0.21463   0.79546   0.98738   0.00000  Uiso   1.00
C1738  C     0.22387   0.79427   0.94000   0.00000  Uiso   1.00
C1739  C     0.20794   0.82319   0.92036   0.00000  Uiso   1.00
H1740  H     0.29968   0.82190   0.58151   0.00000  Uiso   1.00
H1741  H     0.29759   0.76371   0.76760   0.00000  Uiso   1.00
H1742  H     0.26112   0.97265   0.67276   0.00000  Uiso   1.00
H1743  H     0.21844   0.95997   0.64313   0.00000  Uiso   1.00
H1744  H     0.25665   0.67202   0.63121   0.00000  Uiso   1.00
H1745  H     0.19008   0.69249   0.67637   0.00000  Uiso   1.00
H1746  H     0.23071   0.70319   0.70708   0.00000  Uiso   1.00
H1747  H     0.12244   0.71988   0.85465   0.00000  Uiso   1.00
H1748  H     0.07986   0.71281   0.82547   0.00000  Uiso   1.00
H1749  H     0.07669   0.68185   0.87175   0.00000  Uiso   1.00
H1750  H     0.09553   0.97404   0.80116   0.00000  Uiso   1.00
H1751  H     0.27314   0.80875   0.63809   0.00000  Uiso   1.00
H1752  H     0.13921   0.98219   0.82910   0.00000  Uiso   1.00
H1753  H     0.18654   0.72872   0.89469   0.00000  Uiso   1.00
H1754  H     0.21915   0.76162   0.85144   0.00000  Uiso   1.00
H1755  H     0.23483   0.71261   0.85811   0.00000  Uiso   1.00
H1756  H     0.27791   0.77305   0.89116   0.00000  Uiso   1.00
H1757  H     0.24782   0.73491   0.92975   0.00000  Uiso   1.00
H1758  H     0.31885   0.72440   0.50136   0.00000  Uiso   1.00
H1759  H     0.26714   0.70894   0.98987   0.00000  Uiso   1.00
H1760  H     0.31338   0.72378   0.94513   0.00000  Uiso   1.00
H1761  H     0.30001   0.79177   0.95644   0.00000  Uiso   1.00
H1762  H     0.31424   0.77974   0.60592   0.00000  Uiso   1.00
H1763  H     0.31022   0.79301   0.50873   0.00000  Uiso   1.00
H1764  H     0.14772   0.84166   0.57580   0.00000  Uiso   1.00
H1765  H     0.09332   0.96322   0.99290   0.00000  Uiso   1.00
H1766  H     0.14933   0.96236   0.96587   0.00000  Uiso   1.00
H1767  H     0.11672   0.99027   0.94304   0.00000  Uiso   1.00
H1768  H     0.12748   0.92977   0.89704   0.00000  Uiso   1.00
H1769  H     0.07304   0.92101   0.92722   0.00000  Uiso   1.00
H1770  H     0.05254   0.74166   0.53971   0.00000  Uiso   1.00
H1771  H     0.06604   0.76311   0.98531   0.00000  Uiso   1.00
H1772  H     0.10768   0.75093   0.50932   0.00000  Uiso   1.00
H1773  H     0.23067   0.75025   0.61601   0.00000  Uiso   1.00
H1774  H     0.08869   0.80564   0.57129   0.00000  Uiso   1.00
H1775  H     0.04607   0.81434   0.55052   0.00000  Uiso   1.00
H1776  H     0.02343   0.91872   0.57808   0.00000  Uiso   1.00
H1777  H     0.08079   0.92927   0.55935   0.00000  Uiso   1.00
H1778  H     0.05643   0.88132   0.58456   0.00000  Uiso   1.00
H1779  H     0.04088   0.90784   0.99768   0.00000  Uiso   1.00
H1780  H     0.02365   0.85928   0.51913   0.00000  Uiso   1.00
H1781  H     0.22525   0.83096   0.88684   0.00000  Uiso   1.00
H1782  H     0.32903   0.89050   0.65900   0.00000  Uiso   1.00
H1783  H     0.31738   0.92550   0.70940   0.00000  Uiso   1.00
H1784  H     0.26944   0.73871   0.56758   0.00000  Uiso   1.00
H1785  H     0.03530   0.93136   0.67010   0.00000  Uiso   1.00
H1786  H     0.04184   0.89988   0.73496   0.00000  Uiso   1.00
H1787  H     0.05034   0.86363   0.68690   0.00000  Uiso   1.00
H1788  H     0.02886   0.74118   0.78084   0.00000  Uiso   1.00
H1789  H     0.02396   0.77514   0.83172   0.00000  Uiso   1.00
H1790  H     0.31704   0.73194   0.82746   0.00000  Uiso   1.00
H1791  H     0.29144   0.79690   0.81911   0.00000  Uiso   1.00
O1792  O     0.16667   0.83333   0.75000   0.00000  Uiso   1.00
O1793  O     0.15451   0.79304   0.65459   0.00000  Uiso   1.00
O1794  O     0.12940   0.87058   0.84968   0.00000  Uiso   1.00
O1795  O     0.20824   0.84425   0.64606   0.00000  Uiso   1.00
O1796  O     0.17451   0.82546   0.84968   0.00000  Uiso   1.00
O1797  O     0.17930   0.74686   0.78214   0.00000  Uiso   1.00
O1798  O     0.14632   0.92751   0.77014   0.00000  Uiso   1.00
O1799  O     0.07412   0.79958   0.73413   0.00000  Uiso   1.00
O1800  O     0.26693   0.85939   0.71361   0.00000  Uiso   1.00
O1801  O     0.07071   0.85544   0.78213   0.00000  Uiso   1.00
O1802  O     0.25491   0.81892   0.77014   0.00000  Uiso   1.00
O1803  O     0.13760   0.73610   0.73413   0.00000  Uiso   1.00
O1804  O     0.20345   0.92286   0.71361   0.00000  Uiso   1.00
Zn1805 Zn    0.19338   0.80661   0.78734   0.00000  Uiso   1.00
Zn1806 Zn    0.13379   0.79124   0.71876   0.00000  Uiso   1.00
Zn1807 Zn    0.21056   0.86442   0.70657   0.00000  Uiso   1.00
Zn1808 Zn    0.12893   0.87106   0.78734   0.00000  Uiso   1.00
C1809  C     0.38652   0.82562   0.76037   0.00000  Uiso   1.00
C1810  C     0.50419   0.82150   0.55772   0.00000  Uiso   1.00
C1811  C     0.56337   0.78454   0.55919   0.00000  Uiso   1.00
C1812  C     0.61431   0.84103   0.74062   0.00000  Uiso   1.00
C1813  C     0.47995   0.86045   0.92039   0.00000  Uiso   1.00
C1814  C     0.66019   0.84610   0.73951   0.00000  Uiso   1.00
C1815  C     0.34150   0.82094   0.76377   0.00000  Uiso   1.00
C1816  C     0.51178   0.98954   0.73472   0.00000  Uiso   1.00
C1817  C     0.48549   0.67934   0.76647   0.00000  Uiso   1.00
C1818  C     0.48939   0.72295   0.76084   0.00000  Uiso   1.00
C1819  C     0.50974   0.94470   0.73972   0.00000  Uiso   1.00
C1820  C     0.42564   0.86891   0.99019   0.00000  Uiso   1.00
C1821  C     0.51868   0.81499   0.62951   0.00000  Uiso   1.00
C1822  C     0.48446   0.85299   0.87080   0.00000  Uiso   1.00
C1823  C     0.57567   0.78226   0.51145   0.00000  Uiso   1.00
C1824  C     0.52860   0.80589   0.58133   0.00000  Uiso   1.00
C1825  C     0.44808   0.88358   0.94736   0.00000  Uiso   1.00
C1826  C     0.58715   0.76488   0.58688   0.00000  Uiso   1.00
C1827  C     0.62048   0.79585   0.60385   0.00000  Uiso   1.00
C1828  C     0.64805   0.78432   0.78988   0.00000  Uiso   1.00
C1829  C     0.33963   0.75667   0.80853   0.00000  Uiso   1.00
C1830  C     0.54263   0.67792   0.69420   0.00000  Uiso   1.00
C1831  C     0.44215   0.83763   0.50765   0.00000  Uiso   1.00
C1832  C     0.57127   0.98524   0.65842   0.00000  Uiso   1.00
C1833  C     0.45463   0.99697   0.80996   0.00000  Uiso   1.00
C1834  C     0.43215   0.69682   0.84226   0.00000  Uiso   1.00
C1835  C     0.57886   0.76026   0.90969   0.00000  Uiso   1.00
C1836  C     0.55314   0.73971   0.87650   0.00000  Uiso   1.00
C1837  C     0.62212   0.77616   0.98846   0.00000  Uiso   1.00
C1838  C     0.63055   0.73059   0.98089   0.00000  Uiso   1.00
C1839  C     0.43970   0.92342   0.93060   0.00000  Uiso   1.00
C1840  C     0.45033   0.96188   0.96015   0.00000  Uiso   1.00
C1841  C     0.41242   0.80665   0.53966   0.00000  Uiso   1.00
C1842  C     0.48524   0.83046   0.98801   0.00000  Uiso   1.00
C1843  C     0.40964   0.76294   0.51697   0.00000  Uiso   1.00
C1844  C     0.38383   0.88474   0.51584   0.00000  Uiso   1.00
C1845  C     0.38643   0.90464   0.56220   0.00000  Uiso   1.00
C1846  C     0.35893   0.87940   0.71185   0.00000  Uiso   1.00
C1847  C     0.34193   0.90823   0.68619   0.00000  Uiso   1.00
C1848  C     0.50269   0.83876   0.94257   0.00000  Uiso   1.00
C1849  C     0.51120   0.81426   0.51139   0.00000  Uiso   1.00
C1850  C     0.54796   0.79546   0.98738   0.00000  Uiso   1.00
C1851  C     0.55721   0.79427   0.94000   0.00000  Uiso   1.00
C1852  C     0.54128   0.82319   0.92036   0.00000  Uiso   1.00
H1853  H     0.63301   0.82190   0.58151   0.00000  Uiso   1.00
H1854  H     0.63092   0.76371   0.76760   0.00000  Uiso   1.00
H1855  H     0.59445   0.97265   0.67276   0.00000  Uiso   1.00
H1856  H     0.55177   0.95997   0.64313   0.00000  Uiso   1.00
H1857  H     0.58999   0.67202   0.63121   0.00000  Uiso   1.00
H1858  H     0.52341   0.69249   0.67637   0.00000  Uiso   1.00
H1859  H     0.56404   0.70319   0.70708   0.00000  Uiso   1.00
H1860  H     0.45578   0.71988   0.85465   0.00000  Uiso   1.00
H1861  H     0.41319   0.71281   0.82547   0.00000  Uiso   1.00
H1862  H     0.41003   0.68185   0.87175   0.00000  Uiso   1.00
H1863  H     0.42887   0.97404   0.80116   0.00000  Uiso   1.00
H1864  H     0.60647   0.80875   0.63809   0.00000  Uiso   1.00
H1865  H     0.47255   0.98219   0.82910   0.00000  Uiso   1.00
H1866  H     0.51987   0.72872   0.89469   0.00000  Uiso   1.00
H1867  H     0.55248   0.76162   0.85144   0.00000  Uiso   1.00
H1868  H     0.56816   0.71261   0.85811   0.00000  Uiso   1.00
H1869  H     0.61125   0.77305   0.89116   0.00000  Uiso   1.00
H1870  H     0.58116   0.73491   0.92975   0.00000  Uiso   1.00
H1871  H     0.65219   0.72440   0.50136   0.00000  Uiso   1.00
H1872  H     0.60047   0.70894   0.98987   0.00000  Uiso   1.00
H1873  H     0.64671   0.72378   0.94513   0.00000  Uiso   1.00
H1874  H     0.63334   0.79177   0.95644   0.00000  Uiso   1.00
H1875  H     0.64757   0.77974   0.60592   0.00000  Uiso   1.00
H1876  H     0.64355   0.79301   0.50873   0.00000  Uiso   1.00
H1877  H     0.48106   0.84166   0.57580   0.00000  Uiso   1.00
H1878  H     0.42665   0.96322   0.99290   0.00000  Uiso   1.00
H1879  H     0.48267   0.96236   0.96587   0.00000  Uiso   1.00
H1880  H     0.45005   0.99027   0.94304   0.00000  Uiso   1.00
H1881  H     0.46081   0.92977   0.89704   0.00000  Uiso   1.00
H1882  H     0.40637   0.92101   0.92722   0.00000  Uiso   1.00
H1883  H     0.38587   0.74166   0.53971   0.00000  Uiso   1.00
H1884  H     0.39937   0.76311   0.98531   0.00000  Uiso   1.00
H1885  H     0.44101   0.75093   0.50932   0.00000  Uiso   1.00
H1886  H     0.56400   0.75025   0.61601   0.00000  Uiso   1.00
H1887  H     0.42203   0.80564   0.57129   0.00000  Uiso   1.00
H1888  H     0.37941   0.81434   0.55052   0.00000  Uiso   1.00
H1889  H     0.35676   0.91872   0.57808   0.00000  Uiso   1.00
H1890  H     0.41412   0.92927   0.55935   0.00000  Uiso   1.00
H1891  H     0.38976   0.88132   0.58456   0.00000  Uiso   1.00
H1892  H     0.37421   0.90784   0.99768   0.00000  Uiso   1.00
H1893  H     0.35698   0.85928   0.51913   0.00000  Uiso   1.00
H1894  H     0.55858   0.83096   0.88684   0.00000  Uiso   1.00
H1895  H     0.66236   0.89050   0.65900   0.00000  Uiso   1.00
H1896  H     0.65071   0.92550   0.70940   0.00000  Uiso   1.00
H1897  H     0.60278   0.73871   0.56758   0.00000  Uiso   1.00
H1898  H     0.36864   0.93136   0.67010   0.00000  Uiso   1.00
H1899  H     0.37517   0.89988   0.73496   0.00000  Uiso   1.00
H1900  H     0.38368   0.86363   0.68690   0.00000  Uiso   1.00
H1901  H     0.36219   0.74118   0.78084   0.00000  Uiso   1.00
H1902  H     0.35730   0.77514   0.83172   0.00000  Uiso   1.00
H1903  H     0.65038   0.73194   0.82746   0.00000  Uiso   1.00
H1904  H     0.62477   0.79690   0.81911   0.00000  Uiso   1.00
O1905  O     0.50000   0.83333   0.75000   0.00000  Uiso   1.00
O1906  O     0.48784   0.79304   0.65459   0.00000  Uiso   1.00
O1907  O     0.46274   0.87058   0.84968   0.00000  Uiso   1.00
O1908  O     0.54157   0.84425   0.64606   0.00000  Uiso   1.00
O1909  O     0.50785   0.82546   0.84968   0.00000  Uiso   1.00
O1910  O     0.51264   0.74686   0.78214   0.00000  Uiso   1.00
O1911  O     0.47965   0.92751   0.77014   0.00000  Uiso   1.00
O1912  O     0.40745   0.79958   0.73413   0.00000  Uiso   1.00
O1913  O     0.60026   0.85939   0.71361   0.00000  Uiso   1.00
O1914  O     0.40405   0.85544   0.78213   0.00000  Uiso   1.00
O1915  O     0.58824   0.81892   0.77014   0.00000  Uiso   1.00
O1916  O     0.47093   0.73610   0.73413   0.00000  Uiso   1.00
O1917  O     0.53678   0.92286   0.71361   0.00000  Uiso   1.00
Zn1918 Zn    0.52672   0.80661   0.78734   0.00000  Uiso   1.00
Zn1919 Zn    0.46713   0.79124   0.71876   0.00000  Uiso   1.00
Zn1920 Zn    0.54389   0.86442   0.70657   0.00000  Uiso   1.00
Zn1921 Zn    0.46226   0.87106   0.78734   0.00000  Uiso   1.00
C1922  C     0.71985   0.82562   0.76037   0.00000  Uiso   1.00
C1923  C     0.83752   0.82150   0.55772   0.00000  Uiso   1.00
C1924  C     0.89671   0.78454   0.55919   0.00000  Uiso   1.00
C1925  C     0.94765   0.84103   0.74062   0.00000  Uiso   1.00
C1926  C     0.81328   0.86045   0.92039   0.00000  Uiso   1.00
C1927  C     0.99353   0.84610   0.73951   0.00000  Uiso   1.00
C1928  C     0.67484   0.82094   0.76377   0.00000  Uiso   1.00
C1929  C     0.84512   0.98954   0.73472   0.00000  Uiso   1.00
C1930  C     0.81882   0.67934   0.76647   0.00000  Uiso   1.00
C1931  C     0.82272   0.72295   0.76084   0.00000  Uiso   1.00
C1932  C     0.84307   0.94470   0.73972   0.00000  Uiso   1.00
C1933  C     0.75898   0.86891   0.99019   0.00000  Uiso   1.00
C1934  C     0.85201   0.81499   0.62951   0.00000  Uiso   1.00
C1935  C     0.81779   0.85299   0.87080   0.00000  Uiso   1.00
C1936  C     0.90901   0.78226   0.51145   0.00000  Uiso   1.00
C1937  C     0.86194   0.80589   0.58133   0.00000  Uiso   1.00
C1938  C     0.78141   0.88358   0.94736   0.00000  Uiso   1.00
C1939  C     0.92049   0.76488   0.58688   0.00000  Uiso   1.00
C1940  C     0.95382   0.79585   0.60385   0.00000  Uiso   1.00
C1941  C     0.98139   0.78432   0.78988   0.00000  Uiso   1.00
C1942  C     0.67296   0.75667   0.80853   0.00000  Uiso   1.00
C1943  C     0.87596   0.67792   0.69420   0.00000  Uiso   1.00
C1944  C     0.77548   0.83763   0.50765   0.00000  Uiso   1.00
C1945  C     0.90460   0.98524   0.65842   0.00000  Uiso   1.00
C1946  C     0.78797   0.99697   0.80996   0.00000  Uiso   1.00
C1947  C     0.76549   0.69682   0.84226   0.00000  Uiso   1.00
C1948  C     0.91219   0.76026   0.90969   0.00000  Uiso   1.00
C1949  C     0.88647   0.73971   0.87650   0.00000  Uiso   1.00
C1950  C     0.95545   0.77616   0.98846   0.00000  Uiso   1.00
C1951  C     0.96388   0.73059   0.98089   0.00000  Uiso   1.00
C1952  C     0.77303   0.92342   0.93060   0.00000  Uiso   1.00
C1953  C     0.78366   0.96188   0.96015   0.00000  Uiso   1.00
C1954  C     0.74575   0.80665   0.53966   0.00000  Uiso   1.00
C1955  C     0.81857   0.83046   0.98801   0.00000  Uiso   1.00
C1956  C     0.74298   0.76294   0.51697   0.00000  Uiso   1.00
C1957  C     0.71716   0.88474   0.51584   0.00000  Uiso   1.00
C1958  C     0.71976   0.90464   0.56220   0.00000  Uiso   1.00
C1959  C     0.69226   0.87940   0.71185   0.00000  Uiso   1.00
C1960  C     0.67526   0.90823   0.68619   0.00000  Uiso   1.00
C1961  C     0.83602   0.83876   0.94257   0.00000  Uiso   1.00
C1962  C     0.84453   0.81426   0.51139   0.00000  Uiso   1.00
C1963  C     0.88130   0.79546   0.98738   0.00000  Uiso   1.00
C1964  C     0.89054   0.79427   0.94000   0.00000  Uiso   1.00
C1965  C     0.87461   0.82319   0.92036   0.00000  Uiso   1.00
H1966  H     0.96634   0.82190   0.58151   0.00000  Uiso   1.00
H1967  H     0.96425   0.76371   0.76760   0.00000  Uiso   1.00
H1968  H     0.92779   0.97265   0.67276   0.00000  Uiso   1.00
H1969  H     0.88511   0.95997   0.64313   0.00000  Uiso   1.00
H1970  H     0.92332   0.67202   0.63121   0.00000  Uiso   1.00
H1971  H     0.85674   0.69249   0.67637   0.00000  Uiso   1.00
H1972  H     0.89737   0.70319   0.70708   0.00000  Uiso   1.00
H1973  H     0.78911   0.71988   0.85465   0.00000  Uiso   1.00
H1974  H     0.74653   0.71281   0.82547   0.00000  Uiso   1.00
H1975  H     0.74336   0.68185   0.87175   0.00000  Uiso   1.00
H1976  H     0.76220   0.97404   0.80116   0.00000  Uiso   1.00
H1977  H     0.93981   0.80875   0.63809   0.00000  Uiso   1.00
H1978  H     0.80588   0.98219   0.82910   0.00000  Uiso   1.00
H1979  H     0.85321   0.72872   0.89469   0.00000  Uiso   1.00
H1980  H     0.88581   0.76162   0.85144   0.00000  Uiso   1.00
H1981  H     0.90150   0.71261   0.85811   0.00000  Uiso   1.00
H1982  H     0.94458   0.77305   0.89116   0.00000  Uiso   1.00
H1983  H     0.91449   0.73491   0.92975   0.00000  Uiso   1.00
H1984  H     0.98552   0.72440   0.50136   0.00000  Uiso   1.00
H1985  H     0.93381   0.70894   0.98987   0.00000  Uiso   1.00
H1986  H     0.98004   0.72378   0.94513   0.00000  Uiso   1.00
H1987  H     0.96667   0.79177   0.95644   0.00000  Uiso   1.00
H1988  H     0.98091   0.77974   0.60592   0.00000  Uiso   1.00
H1989  H     0.97688   0.79301   0.50873   0.00000  Uiso   1.00
H1990  H     0.81439   0.84166   0.57580   0.00000  Uiso   1.00
H1991  H     0.75998   0.96322   0.99290   0.00000  Uiso   1.00
H1992  H     0.81600   0.96236   0.96587   0.00000  Uiso   1.00
H1993  H     0.78339   0.99027   0.94304   0.00000  Uiso   1.00
H1994  H     0.79415   0.92977   0.89704   0.00000  Uiso   1.00
H1995  H     0.73970   0.92101   0.92722   0.00000  Uiso   1.00
H1996  H     0.71920   0.74166   0.53971   0.00000  Uiso   1.00
H1997  H     0.73271   0.76311   0.98531   0.00000  Uiso   1.00
H1998  H     0.77434   0.75093   0.50932   0.00000  Uiso   1.00
H1999  H     0.89733   0.75025   0.61601   0.00000  Uiso   1.00
H2000  H     0.75536   0.80564   0.57129   0.00000  Uiso   1.00
H2001  H     0.71274   0.81434   0.55052   0.00000  Uiso   1.00
H2002  H     0.69009   0.91872   0.57808   0.00000  Uiso   1.00
H2003  H     0.74745   0.92927   0.55935   0.00000  Uiso   1.00
H2004  H     0.72310   0.88132   0.58456   0.00000  Uiso   1.00
H2005  H     0.70755   0.90784   0.99768   0.00000  Uiso   1.00
H2006  H     0.69031   0.85928   0.51913   0.00000  Uiso   1.00
H2007  H     0.89192   0.83096   0.88684   0.00000  Uiso   1.00
H2008  H     0.99570   0.89050   0.65900   0.00000  Uiso   1.00
H2009  H     0.98405   0.92550   0.70940   0.00000  Uiso   1.00
H2010  H     0.93611   0.73871   0.56758   0.00000  Uiso   1.00
H2011  H     0.70197   0.93136   0.67010   0.00000  Uiso   1.00
H2012  H     0.70851   0.89988   0.73496   0.00000  Uiso   1.00
H2013  H     0.71701   0.86363   0.68690   0.00000  Uiso   1.00
H2014  H     0.69553   0.74118   0.78084   0.00000  Uiso   1.00
H2015  H     0.69063   0.77514   0.83172   0.00000  Uiso   1.00
H2016  H     0.98371   0.73194   0.82746   0.00000  Uiso   1.00
H2017  H     0.95810   0.79690   0.81911   0.00000  Uiso   1.00
O2018  O     0.83333   0.83333   0.75000   0.00000  Uiso   1.00
O2019  O     0.82118   0.79304   0.65459   0.00000  Uiso   1.00
O2020  O     0.79607   0.87058   0.84968   0.00000  Uiso   1.00
O2021  O     0.87491   0.84425   0.64606   0.00000  Uiso   1.00
O2022  O     0.84118   0.82546   0.84968   0.00000  Uiso   1.00
O2023  O     0.84597   0.74686   0.78214   0.00000  Uiso   1.00
O2024  O     0.81298   0.92751   0.77014   0.00000  Uiso   1.00
O2025  O     0.74078   0.79958   0.73413   0.00000  Uiso   1.00
O2026  O     0.93360   0.85939   0.71361   0.00000  Uiso   1.00
O2027  O     0.73738   0.85544   0.78213   0.00000  Uiso   1.00
O2028  O     0.92158   0.81892   0.77014   0.00000  Uiso   1.00
O2029  O     0.80426   0.73610   0.73413   0.00000  Uiso   1.00
O2030  O     0.87012   0.92286   0.71361   0.00000  Uiso   1.00
Zn2031 Zn    0.86005   0.80661   0.78734   0.00000  Uiso   1.00
Zn2032 Zn    0.80046   0.79124   0.71876   0.00000  Uiso   1.00
Zn2033 Zn    0.87723   0.86442   0.70657   0.00000  Uiso   1.00
Zn2034 Zn    0.79560   0.87106   0.78734   0.00000  Uiso   1.00
loop_
_geom_bond_atom_site_label_1
_geom_bond_atom_site_label_2
_geom_bond_distance
_geom_bond_site_symmetry_2
_ccdc_geom_bond_type
C1     O106    1.278   .     A
C1     O104    1.265   .     A
C1     C7      1.432   .     S
C2     C41     1.391   .     A
C2     H69     1.083   .     S
C2     C16     1.383   .     A
C3     C18     1.527   .     S
C3     C15     1.422   .     A
C3     C16     1.408   .     A
C4     O107    1.274   .     A
C4     C6      1.474   .     S
C4     O105    1.279   .     A
C5     C17     1.418   .     A
C5     C14     1.498   .     S
C5     C40     1.423   .     A
C6     C120    1.370   .     S
C6     C151    1.547   .     S
C7     C232    1.370   1_455 S
C7     C246    1.536   1_455 S
C8     C11     1.476   .     S
C8     C348    1.373   .     S
C8     C361    1.548   .     S
C9     C10     1.433   .     S
C9     C686    1.373   1_545 S
C9     C703    1.538   1_545 S
C10    O108    1.274   .     A
C10    O102    1.265   .     A
C11    O109    1.283   .     A
C11    O103    1.276   .     A
C12    C17     1.426   .     A
C12    C1040   1.427   .     S
C12    C1053   1.526   .     S
C13    O98     1.273   .     A
C13    O100    1.275   .     A
C13    C16     1.449   .     S
C14    O99     1.298   .     A
C14    O101    1.284   .     A
C15    C1046   1.533   1_554 S
C15    C1059   1.440   1_554 S
C17    C31     1.529   .     S
C18    C19     1.532   .     S
C18    H89     1.104   .     S
C18    H78     1.112   .     S
C19    H56     1.107   .     S
C19    H67     1.110   .     S
C19    H45     1.110   .     S
C20    H96     1.109   .     S
C20    H46     1.112   .     S
C20    C120    1.536   .     S
C20    C134    1.536   .     S
C21    H94     1.111   .     S
C21    H93     1.110   .     S
C21    C246    1.536   1_455 S
C21    H321    1.110   1_455 S
C22    H50     1.111   .     S
C22    H51     1.112   .     S
C22    C686    1.548   1_545 S
C22    C702    1.529   1_545 S
C23    C33     1.534   .     S
C23    C1029   1.427   1_554 S
C23    C1051   1.426   1_554 S
C24    H48     1.111   .     S
C24    H47     1.111   .     S
C24    C361    1.529   .     S
C24    H388    1.111   .     S
C25    H57     1.112   .     S
C25    H55     1.111   .     S
C25    C348    1.538   .     S
C25    C365    1.535   .     S
C26    H54     1.111   .     S
C26    H52     1.110   .     S
C26    H53     1.111   .     S
C26    C703    1.535   1_545 S
C27    H61     1.107   .     S
C27    H62     1.101   .     S
C27    C43     1.516   .     S
C27    C28     1.532   .     S
C28    H60     1.110   .     S
C28    H59     1.108   .     S
C28    H58     1.111   .     S
C29    C30     1.537   .     S
C29    H66     1.107   .     S
C29    C1032   1.533   .     S
C29    H1085   1.108   .     S
C30    H64     1.111   .     S
C30    H65     1.111   .     S
C30    H1080   1.110   .     S
C31    H73     1.106   .     S
C31    H74     1.110   .     S
C31    C32     1.531   .     S
C32    H72     1.111   .     S
C32    H71     1.111   .     S
C32    H70     1.105   .     S
C33    H79     1.103   .     S
C33    H80     1.102   .     S
C33    C35     1.529   .     S
C34    C40     1.408   .     A
C34    C1040   1.426   .     S
C34    C1058   1.426   .     S
C35    H75     1.111   .     S
C35    H77     1.110   .     S
C35    H1093   1.111   1_554 S
C36    C37     1.531   .     S
C36    H85     1.107   .     S
C36    C1029   1.526   1_554 S
C36    H1101   1.104   1_554 S
C37    H81     1.110   .     S
C37    H82     1.110   .     S
C37    H83     1.109   .     S
C38    C39     1.529   .     S
C38    H92     1.112   .     S
C38    H91     1.111   .     S
C38    C232    1.547   1_455 S
C39    H90     1.111   .     S
C39    H313    1.110   1_455 S
C39    H314    1.111   1_455 S
C40    C44     1.411   .     A
C41    C1051   1.426   1_554 S
C41    C1059   1.428   1_554 S
C42    C43     1.413   .     A
C42    C1032   1.440   .     S
C42    C1058   1.428   .     S
C43    C44     1.394   .     A
C44    H86     1.078   .     S
H49    C702    1.111   1_545 S
H63    C1047   1.110   1_554 S
H68    C1046   1.108   1_554 S
H76    C1052   1.111   .     S
H84    C1053   1.104   .     S
H87    C152    1.110   .     S
H88    C152    1.111   .     S
H95    C134    1.110   .     S
O97    Zn111   1.953   .     S
O97    Zn112   1.931   .     S
O97    Zn113   1.951   .     S
O97    Zn110   1.943   .     S
O98    Zn111   1.925   .     S
O99    Zn113   1.929   .     S
O100   Zn112   1.936   .     S
O101   Zn110   1.933   .     S
O102   Zn110   1.938   .     S
O103   Zn113   1.930   .     S
O104   Zn111   1.936   .     S
O105   Zn112   1.938   .     S
O106   Zn113   1.937   .     S
O107   Zn110   1.932   .     S
O108   Zn111   1.933   .     S
O109   Zn112   1.940   .     S
C114   O219    1.278   .     A
C114   O217    1.265   .     A
C114   C120    1.432   .     S
C115   C154    1.391   .     A
C115   H182    1.083   .     S
C115   C129    1.383   .     A
C116   C131    1.527   .     S
C116   C128    1.422   .     A
C116   C129    1.408   .     A
C117   O220    1.274   .     A
C117   C119    1.474   .     S
C117   O218    1.279   .     A
C118   C130    1.418   .     A
C118   C127    1.498   .     S
C118   C153    1.423   .     A
C119   C233    1.370   .     S
C119   C264    1.547   .     S
C121   C124    1.476   .     S
C121   C461    1.373   .     S
C121   C474    1.548   .     S
C122   C123    1.433   .     S
C122   C799    1.373   1_545 S
C122   C816    1.538   1_545 S
C123   O221    1.274   .     A
C123   O215    1.265   .     A
C124   O222    1.283   .     A
C124   O216    1.276   .     A
C125   C130    1.426   .     A
C125   C1153   1.427   .     S
C125   C1166   1.526   .     S
C126   O211    1.273   .     A
C126   O213    1.275   .     A
C126   C129    1.449   .     S
C127   O212    1.298   .     A
C127   O214    1.284   .     A
C128   C1159   1.533   1_554 S
C128   C1172   1.440   1_554 S
C130   C144    1.529   .     S
C131   C132    1.532   .     S
C131   H202    1.104   .     S
C131   H191    1.112   .     S
C132   H169    1.107   .     S
C132   H180    1.110   .     S
C132   H158    1.110   .     S
C133   H209    1.109   .     S
C133   H159    1.112   .     S
C133   C233    1.536   .     S
C133   C247    1.536   .     S
C134   H207    1.111   .     S
C134   H206    1.110   .     S
C135   H163    1.111   .     S
C135   H164    1.112   .     S
C135   C799    1.548   1_545 S
C135   C815    1.529   1_545 S
C136   C146    1.534   .     S
C136   C1142   1.427   1_554 S
C136   C1164   1.426   1_554 S
C137   H161    1.111   .     S
C137   H160    1.111   .     S
C137   C474    1.529   .     S
C137   H501    1.111   .     S
C138   H170    1.112   .     S
C138   H168    1.111   .     S
C138   C461    1.538   .     S
C138   C478    1.535   .     S
C139   H167    1.111   .     S
C139   H165    1.110   .     S
C139   H166    1.111   .     S
C139   C816    1.535   1_545 S
C140   H174    1.107   .     S
C140   H175    1.101   .     S
C140   C156    1.516   .     S
C140   C141    1.532   .     S
C141   H173    1.110   .     S
C141   H172    1.108   .     S
C141   H171    1.111   .     S
C142   C143    1.537   .     S
C142   H179    1.107   .     S
C142   C1145   1.533   .     S
C142   H1198   1.108   .     S
C143   H177    1.111   .     S
C143   H178    1.111   .     S
C143   H1193   1.110   .     S
C144   H186    1.106   .     S
C144   H187    1.110   .     S
C144   C145    1.531   .     S
C145   H185    1.111   .     S
C145   H184    1.111   .     S
C145   H183    1.105   .     S
C146   H192    1.103   .     S
C146   H193    1.102   .     S
C146   C148    1.529   .     S
C147   C153    1.408   .     A
C147   C1153   1.426   .     S
C147   C1171   1.426   .     S
C148   H188    1.111   .     S
C148   H190    1.110   .     S
C148   H1206   1.111   1_554 S
C149   C150    1.531   .     S
C149   H198    1.107   .     S
C149   C1142   1.526   1_554 S
C149   H1214   1.104   1_554 S
C150   H194    1.110   .     S
C150   H195    1.110   .     S
C150   H196    1.109   .     S
C151   C152    1.529   .     S
C151   H205    1.112   .     S
C151   H204    1.111   .     S
C152   H203    1.111   .     S
C153   C157    1.411   .     A
C154   C1164   1.426   1_554 S
C154   C1172   1.428   1_554 S
C155   C156    1.413   .     A
C155   C1145   1.440   .     S
C155   C1171   1.428   .     S
C156   C157    1.394   .     A
C157   H199    1.078   .     S
H162   C815    1.111   1_545 S
H176   C1160   1.110   1_554 S
H181   C1159   1.108   1_554 S
H189   C1165   1.111   .     S
H197   C1166   1.104   .     S
H200   C265    1.110   .     S
H201   C265    1.111   .     S
H208   C247    1.110   .     S
O210   Zn224   1.953   .     S
O210   Zn225   1.931   .     S
O210   Zn226   1.951   .     S
O210   Zn223   1.943   .     S
O211   Zn224   1.925   .     S
O212   Zn226   1.929   .     S
O213   Zn225   1.936   .     S
O214   Zn223   1.933   .     S
O215   Zn223   1.938   .     S
O216   Zn226   1.930   .     S
O217   Zn224   1.936   .     S
O218   Zn225   1.938   .     S
O219   Zn226   1.937   .     S
O220   Zn223   1.932   .     S
O221   Zn224   1.933   .     S
O222   Zn225   1.940   .     S
C227   O332    1.278   .     A
C227   O330    1.265   .     A
C227   C233    1.432   .     S
C228   C267    1.391   .     A
C228   H295    1.083   .     S
C228   C242    1.383   .     A
C229   C244    1.527   .     S
C229   C241    1.422   .     A
C229   C242    1.408   .     A
C230   O333    1.274   .     A
C230   C232    1.474   .     S
C230   O331    1.279   .     A
C231   C243    1.418   .     A
C231   C240    1.498   .     S
C231   C266    1.423   .     A
C232   C7      1.370   1_655 S
C232   C38     1.547   1_655 S
C234   C237    1.476   .     S
C234   C574    1.373   .     S
C234   C587    1.548   .     S
C235   C236    1.433   .     S
C235   C912    1.373   1_545 S
C235   C929    1.538   1_545 S
C236   O334    1.274   .     A
C236   O328    1.265   .     A
C237   O335    1.283   .     A
C237   O329    1.276   .     A
C238   C243    1.426   .     A
C238   C1266   1.427   .     S
C238   C1279   1.526   .     S
C239   O324    1.273   .     A
C239   O326    1.275   .     A
C239   C242    1.449   .     S
C240   O325    1.298   .     A
C240   O327    1.284   .     A
C241   C1272   1.533   1_554 S
C241   C1285   1.440   1_554 S
C243   C257    1.529   .     S
C244   C245    1.532   .     S
C244   H315    1.104   .     S
C244   H304    1.112   .     S
C245   H282    1.107   .     S
C245   H293    1.110   .     S
C245   H271    1.110   .     S
C246   H322    1.109   .     S
C246   H272    1.112   .     S
C246   C7      1.536   1_655 S
C246   C21     1.536   1_655 S
C247   H320    1.111   .     S
C247   H319    1.110   .     S
C248   H276    1.111   .     S
C248   H277    1.112   .     S
C248   C912    1.548   1_545 S
C248   C928    1.529   1_545 S
C249   C259    1.534   .     S
C249   C1255   1.427   1_554 S
C249   C1277   1.426   1_554 S
C250   H274    1.111   .     S
C250   H273    1.111   .     S
C250   C587    1.529   .     S
C250   H614    1.111   .     S
C251   H283    1.112   .     S
C251   H281    1.111   .     S
C251   C574    1.538   .     S
C251   C591    1.535   .     S
C252   H280    1.111   .     S
C252   H278    1.110   .     S
C252   H279    1.111   .     S
C252   C929    1.535   1_545 S
C253   H287    1.107   .     S
C253   H288    1.101   .     S
C253   C269    1.516   .     S
C253   C254    1.532   .     S
C254   H286    1.110   .     S
C254   H285    1.108   .     S
C254   H284    1.111   .     S
C255   C256    1.537   .     S
C255   H292    1.107   .     S
C255   C1258   1.533   .     S
C255   H1311   1.108   .     S
C256   H290    1.111   .     S
C256   H291    1.111   .     S
C256   H1306   1.110   .     S
C257   H299    1.106   .     S
C257   H300    1.110   .     S
C257   C258    1.531   .     S
C258   H298    1.111   .     S
C258   H297    1.111   .     S
C258   H296    1.105   .     S
C259   H305    1.103   .     S
C259   H306    1.102   .     S
C259   C261    1.529   .     S
C260   C266    1.408   .     A
C260   C1266   1.426   .     S
C260   C1284   1.426   .     S
C261   H301    1.111   .     S
C261   H303    1.110   .     S
C261   H1319   1.111   1_554 S
C262   C263    1.531   .     S
C262   H311    1.107   .     S
C262   C1255   1.526   1_554 S
C262   H1327   1.104   1_554 S
C263   H307    1.110   .     S
C263   H308    1.110   .     S
C263   H309    1.109   .     S
C264   C265    1.529   .     S
C264   H318    1.112   .     S
C264   H317    1.111   .     S
C265   H316    1.111   .     S
C266   C270    1.411   .     A
C267   C1277   1.426   1_554 S
C267   C1285   1.428   1_554 S
C268   C269    1.413   .     A
C268   C1258   1.440   .     S
C268   C1284   1.428   .     S
C269   C270    1.394   .     A
C270   H312    1.078   .     S
H275   C928    1.111   1_545 S
H289   C1273   1.110   1_554 S
H294   C1272   1.108   1_554 S
H302   C1278   1.111   .     S
H310   C1279   1.104   .     S
H313   C39     1.110   1_655 S
H314   C39     1.111   1_655 S
H321   C21     1.110   1_655 S
O323   Zn337   1.953   .     S
O323   Zn338   1.931   .     S
O323   Zn339   1.951   .     S
O323   Zn336   1.943   .     S
O324   Zn337   1.925   .     S
O325   Zn339   1.929   .     S
O326   Zn338   1.936   .     S
O327   Zn336   1.933   .     S
O328   Zn336   1.938   .     S
O329   Zn339   1.930   .     S
O330   Zn337   1.936   .     S
O331   Zn338   1.938   .     S
O332   Zn339   1.937   .     S
O333   Zn336   1.932   .     S
O334   Zn337   1.933   .     S
O335   Zn338   1.940   .     S
C340   O445    1.278   .     A
C340   O443    1.265   .     A
C340   C346    1.432   .     S
C341   C380    1.391   .     A
C341   H408    1.083   .     S
C341   C355    1.383   .     A
C342   C357    1.527   .     S
C342   C354    1.422   .     A
C342   C355    1.408   .     A
C343   O446    1.274   .     A
C343   C345    1.474   .     S
C343   O444    1.279   .     A
C344   C356    1.418   .     A
C344   C353    1.498   .     S
C344   C379    1.423   .     A
C345   C459    1.370   .     S
C345   C490    1.547   .     S
C346   C571    1.370   1_455 S
C346   C585    1.536   1_455 S
C347   C350    1.476   .     S
C347   C687    1.373   .     S
C347   C700    1.548   .     S
C348   C349    1.433   .     S
C349   O447    1.274   .     A
C349   O441    1.265   .     A
C350   O448    1.283   .     A
C350   O442    1.276   .     A
C351   C356    1.426   .     A
C351   C1379   1.427   .     S
C351   C1392   1.526   .     S
C352   O437    1.273   .     A
C352   O439    1.275   .     A
C352   C355    1.449   .     S
C353   O438    1.298   .     A
C353   O440    1.284   .     A
C354   C1385   1.533   1_554 S
C354   C1398   1.440   1_554 S
C356   C370    1.529   .     S
C357   C358    1.532   .     S
C357   H428    1.104   .     S
C357   H417    1.112   .     S
C358   H395    1.107   .     S
C358   H406    1.110   .     S
C358   H384    1.110   .     S
C359   H435    1.109   .     S
C359   H385    1.112   .     S
C359   C459    1.536   .     S
C359   C473    1.536   .     S
C360   H433    1.111   .     S
C360   H432    1.110   .     S
C360   C585    1.536   1_455 S
C360   H660    1.110   1_455 S
C361   H389    1.111   .     S
C361   H390    1.112   .     S
C362   C372    1.534   .     S
C362   C1368   1.427   1_554 S
C362   C1390   1.426   1_554 S
C363   H387    1.111   .     S
C363   H386    1.111   .     S
C363   C700    1.529   .     S
C363   H727    1.111   .     S
C364   H396    1.112   .     S
C364   H394    1.111   .     S
C364   C687    1.538   .     S
C364   C704    1.535   .     S
C365   H393    1.111   .     S
C365   H391    1.110   .     S
C365   H392    1.111   .     S
C366   H400    1.107   .     S
C366   H401    1.101   .     S
C366   C382    1.516   .     S
C366   C367    1.532   .     S
C367   H399    1.110   .     S
C367   H398    1.108   .     S
C367   H397    1.111   .     S
C368   C369    1.537   .     S
C368   H405    1.107   .     S
C368   C1371   1.533   .     S
C368   H1424   1.108   .     S
C369   H403    1.111   .     S
C369   H404    1.111   .     S
C369   H1419   1.110   .     S
C370   H412    1.106   .     S
C370   H413    1.110   .     S
C370   C371    1.531   .     S
C371   H411    1.111   .     S
C371   H410    1.111   .     S
C371   H409    1.105   .     S
C372   H418    1.103   .     S
C372   H419    1.102   .     S
C372   C374    1.529   .     S
C373   C379    1.408   .     A
C373   C1379   1.426   .     S
C373   C1397   1.426   .     S
C374   H414    1.111   .     S
C374   H416    1.110   .     S
C374   H1432   1.111   1_554 S
C375   C376    1.531   .     S
C375   H424    1.107   .     S
C375   C1368   1.526   1_554 S
C375   H1440   1.104   1_554 S
C376   H420    1.110   .     S
C376   H421    1.110   .     S
C376   H422    1.109   .     S
C377   C378    1.529   .     S
C377   H431    1.112   .     S
C377   H430    1.111   .     S
C377   C571    1.547   1_455 S
C378   H429    1.111   .     S
C378   H652    1.110   1_455 S
C378   H653    1.111   1_455 S
C379   C383    1.411   .     A
C380   C1390   1.426   1_554 S
C380   C1398   1.428   1_554 S
C381   C382    1.413   .     A
C381   C1371   1.440   .     S
C381   C1397   1.428   .     S
C382   C383    1.394   .     A
C383   H425    1.078   .     S
H402   C1386   1.110   1_554 S
H407   C1385   1.108   1_554 S
H415   C1391   1.111   .     S
H423   C1392   1.104   .     S
H426   C491    1.110   .     S
H427   C491    1.111   .     S
H434   C473    1.110   .     S
O436   Zn450   1.953   .     S
O436   Zn451   1.931   .     S
O436   Zn452   1.951   .     S
O436   Zn449   1.943   .     S
O437   Zn450   1.925   .     S
O438   Zn452   1.929   .     S
O439   Zn451   1.936   .     S
O440   Zn449   1.933   .     S
O441   Zn449   1.938   .     S
O442   Zn452   1.930   .     S
O443   Zn450   1.936   .     S
O444   Zn451   1.938   .     S
O445   Zn452   1.937   .     S
O446   Zn449   1.932   .     S
O447   Zn450   1.933   .     S
O448   Zn451   1.940   .     S
C453   O558    1.278   .     A
C453   O556    1.265   .     A
C453   C459    1.432   .     S
C454   C493    1.391   .     A
C454   H521    1.083   .     S
C454   C468    1.383   .     A
C455   C470    1.527   .     S
C455   C467    1.422   .     A
C455   C468    1.408   .     A
C456   O559    1.274   .     A
C456   C458    1.474   .     S
C456   O557    1.279   .     A
C457   C469    1.418   .     A
C457   C466    1.498   .     S
C457   C492    1.423   .     A
C458   C572    1.370   .     S
C458   C603    1.547   .     S
C460   C463    1.476   .     S
C460   C800    1.373   .     S
C460   C813    1.548   .     S
C461   C462    1.433   .     S
C462   O560    1.274   .     A
C462   O554    1.265   .     A
C463   O561    1.283   .     A
C463   O555    1.276   .     A
C464   C469    1.426   .     A
C464   C1492   1.427   .     S
C464   C1505   1.526   .     S
C465   O550    1.273   .     A
C465   O552    1.275   .     A
C465   C468    1.449   .     S
C466   O551    1.298   .     A
C466   O553    1.284   .     A
C467   C1498   1.533   1_554 S
C467   C1511   1.440   1_554 S
C469   C483    1.529   .     S
C470   C471    1.532   .     S
C470   H541    1.104   .     S
C470   H530    1.112   .     S
C471   H508    1.107   .     S
C471   H519    1.110   .     S
C471   H497    1.110   .     S
C472   H548    1.109   .     S
C472   H498    1.112   .     S
C472   C572    1.536   .     S
C472   C586    1.536   .     S
C473   H546    1.111   .     S
C473   H545    1.110   .     S
C474   H502    1.111   .     S
C474   H503    1.112   .     S
C475   C485    1.534   .     S
C475   C1481   1.427   1_554 S
C475   C1503   1.426   1_554 S
C476   H500    1.111   .     S
C476   H499    1.111   .     S
C476   C813    1.529   .     S
C476   H840    1.111   .     S
C477   H509    1.112   .     S
C477   H507    1.111   .     S
C477   C800    1.538   .     S
C477   C817    1.535   .     S
C478   H506    1.111   .     S
C478   H504    1.110   .     S
C478   H505    1.111   .     S
C479   H513    1.107   .     S
C479   H514    1.101   .     S
C479   C495    1.516   .     S
C479   C480    1.532   .     S
C480   H512    1.110   .     S
C480   H511    1.108   .     S
C480   H510    1.111   .     S
C481   C482    1.537   .     S
C481   H518    1.107   .     S
C481   C1484   1.533   .     S
C481   H1537   1.108   .     S
C482   H516    1.111   .     S
C482   H517    1.111   .     S
C482   H1532   1.110   .     S
C483   H525    1.106   .     S
C483   H526    1.110   .     S
C483   C484    1.531   .     S
C484   H524    1.111   .     S
C484   H523    1.111   .     S
C484   H522    1.105   .     S
C485   H531    1.103   .     S
C485   H532    1.102   .     S
C485   C487    1.529   .     S
C486   C492    1.408   .     A
C486   C1492   1.426   .     S
C486   C1510   1.426   .     S
C487   H527    1.111   .     S
C487   H529    1.110   .     S
C487   H1545   1.111   1_554 S
C488   C489    1.531   .     S
C488   H537    1.107   .     S
C488   C1481   1.526   1_554 S
C488   H1553   1.104   1_554 S
C489   H533    1.110   .     S
C489   H534    1.110   .     S
C489   H535    1.109   .     S
C490   C491    1.529   .     S
C490   H544    1.112   .     S
C490   H543    1.111   .     S
C491   H542    1.111   .     S
C492   C496    1.411   .     A
C493   C1503   1.426   1_554 S
C493   C1511   1.428   1_554 S
C494   C495    1.413   .     A
C494   C1484   1.440   .     S
C494   C1510   1.428   .     S
C495   C496    1.394   .     A
C496   H538    1.078   .     S
H515   C1499   1.110   1_554 S
H520   C1498   1.108   1_554 S
H528   C1504   1.111   .     S
H536   C1505   1.104   .     S
H539   C604    1.110   .     S
H540   C604    1.111   .     S
H547   C586    1.110   .     S
O549   Zn563   1.953   .     S
O549   Zn564   1.931   .     S
O549   Zn565   1.951   .     S
O549   Zn562   1.943   .     S
O550   Zn563   1.925   .     S
O551   Zn565   1.929   .     S
O552   Zn564   1.936   .     S
O553   Zn562   1.933   .     S
O554   Zn562   1.938   .     S
O555   Zn565   1.930   .     S
O556   Zn563   1.936   .     S
O557   Zn564   1.938   .     S
O558   Zn565   1.937   .     S
O559   Zn562   1.932   .     S
O560   Zn563   1.933   .     S
O561   Zn564   1.940   .     S
C566   O671    1.278   .     A
C566   O669    1.265   .     A
C566   C572    1.432   .     S
C567   C606    1.391   .     A
C567   H634    1.083   .     S
C567   C581    1.383   .     A
C568   C583    1.527   .     S
C568   C580    1.422   .     A
C568   C581    1.408   .     A
C569   O672    1.274   .     A
C569   C571    1.474   .     S
C569   O670    1.279   .     A
C570   C582    1.418   .     A
C570   C579    1.498   .     S
C570   C605    1.423   .     A
C571   C346    1.370   1_655 S
C571   C377    1.547   1_655 S
C573   C576    1.476   .     S
C573   C913    1.373   .     S
C573   C926    1.548   .     S
C574   C575    1.433   .     S
C575   O673    1.274   .     A
C575   O667    1.265   .     A
C576   O674    1.283   .     A
C576   O668    1.276   .     A
C577   C582    1.426   .     A
C577   C1605   1.427   .     S
C577   C1618   1.526   .     S
C578   O663    1.273   .     A
C578   O665    1.275   .     A
C578   C581    1.449   .     S
C579   O664    1.298   .     A
C579   O666    1.284   .     A
C580   C1611   1.533   1_554 S
C580   C1624   1.440   1_554 S
C582   C596    1.529   .     S
C583   C584    1.532   .     S
C583   H654    1.104   .     S
C583   H643    1.112   .     S
C584   H621    1.107   .     S
C584   H632    1.110   .     S
C584   H610    1.110   .     S
C585   H661    1.109   .     S
C585   H611    1.112   .     S
C585   C346    1.536   1_655 S
C585   C360    1.536   1_655 S
C586   H659    1.111   .     S
C586   H658    1.110   .     S
C587   H615    1.111   .     S
C587   H616    1.112   .     S
C588   C598    1.534   .     S
C588   C1594   1.427   1_554 S
C588   C1616   1.426   1_554 S
C589   H613    1.111   .     S
C589   H612    1.111   .     S
C589   C926    1.529   .     S
C589   H953    1.111   .     S
C590   H622    1.112   .     S
C590   H620    1.111   .     S
C590   C913    1.538   .     S
C590   C930    1.535   .     S
C591   H619    1.111   .     S
C591   H617    1.110   .     S
C591   H618    1.111   .     S
C592   H626    1.107   .     S
C592   H627    1.101   .     S
C592   C608    1.516   .     S
C592   C593    1.532   .     S
C593   H625    1.110   .     S
C593   H624    1.108   .     S
C593   H623    1.111   .     S
C594   C595    1.537   .     S
C594   H631    1.107   .     S
C594   C1597   1.533   .     S
C594   H1650   1.108   .     S
C595   H629    1.111   .     S
C595   H630    1.111   .     S
C595   H1645   1.110   .     S
C596   H638    1.106   .     S
C596   H639    1.110   .     S
C596   C597    1.531   .     S
C597   H637    1.111   .     S
C597   H636    1.111   .     S
C597   H635    1.105   .     S
C598   H644    1.103   .     S
C598   H645    1.102   .     S
C598   C600    1.529   .     S
C599   C605    1.408   .     A
C599   C1605   1.426   .     S
C599   C1623   1.426   .     S
C600   H640    1.111   .     S
C600   H642    1.110   .     S
C600   H1658   1.111   1_554 S
C601   C602    1.531   .     S
C601   H650    1.107   .     S
C601   C1594   1.526   1_554 S
C601   H1666   1.104   1_554 S
C602   H646    1.110   .     S
C602   H647    1.110   .     S
C602   H648    1.109   .     S
C603   C604    1.529   .     S
C603   H657    1.112   .     S
C603   H656    1.111   .     S
C604   H655    1.111   .     S
C605   C609    1.411   .     A
C606   C1616   1.426   1_554 S
C606   C1624   1.428   1_554 S
C607   C608    1.413   .     A
C607   C1597   1.440   .     S
C607   C1623   1.428   .     S
C608   C609    1.394   .     A
C609   H651    1.078   .     S
H628   C1612   1.110   1_554 S
H633   C1611   1.108   1_554 S
H641   C1617   1.111   .     S
H649   C1618   1.104   .     S
H652   C378    1.110   1_655 S
H653   C378    1.111   1_655 S
H660   C360    1.110   1_655 S
O662   Zn676   1.953   .     S
O662   Zn677   1.931   .     S
O662   Zn678   1.951   .     S
O662   Zn675   1.943   .     S
O663   Zn676   1.925   .     S
O664   Zn678   1.929   .     S
O665   Zn677   1.936   .     S
O666   Zn675   1.933   .     S
O667   Zn675   1.938   .     S
O668   Zn678   1.930   .     S
O669   Zn676   1.936   .     S
O670   Zn677   1.938   .     S
O671   Zn678   1.937   .     S
O672   Zn675   1.932   .     S
O673   Zn676   1.933   .     S
O674   Zn677   1.940   .     S
C679   O784    1.278   .     A
C679   O782    1.265   .     A
C679   C685    1.432   .     S
C680   C719    1.391   .     A
C680   H747    1.083   .     S
C680   C694    1.383   .     A
C681   C696    1.527   .     S
C681   C693    1.422   .     A
C681   C694    1.408   .     A
C682   O785    1.274   .     A
C682   C684    1.474   .     S
C682   O783    1.279   .     A
C683   C695    1.418   .     A
C683   C692    1.498   .     S
C683   C718    1.423   .     A
C684   C798    1.370   .     S
C684   C829    1.547   .     S
C685   C910    1.370   1_455 S
C685   C924    1.536   1_455 S
C686   C689    1.476   .     S
C686   C9      1.373   1_565 S
C686   C22     1.548   1_565 S
C687   C688    1.433   .     S
C688   O786    1.274   .     A
C688   O780    1.265   .     A
C689   O787    1.283   .     A
C689   O781    1.276   .     A
C690   C695    1.426   .     A
C690   C1718   1.427   .     S
C690   C1731   1.526   .     S
C691   O776    1.273   .     A
C691   O778    1.275   .     A
C691   C694    1.449   .     S
C692   O777    1.298   .     A
C692   O779    1.284   .     A
C693   C1724   1.533   1_554 S
C693   C1737   1.440   1_554 S
C695   C709    1.529   .     S
C696   C697    1.532   .     S
C696   H767    1.104   .     S
C696   H756    1.112   .     S
C697   H734    1.107   .     S
C697   H745    1.110   .     S
C697   H723    1.110   .     S
C698   H774    1.109   .     S
C698   H724    1.112   .     S
C698   C798    1.536   .     S
C698   C812    1.536   .     S
C699   H772    1.111   .     S
C699   H771    1.110   .     S
C699   C924    1.536   1_455 S
C699   H999    1.110   1_455 S
C700   H728    1.111   .     S
C700   H729    1.112   .     S
C701   C711    1.534   .     S
C701   C1707   1.427   1_554 S
C701   C1729   1.426   1_554 S
C702   H726    1.111   .     S
C702   H725    1.111   .     S
C702   C22     1.529   1_565 S
C702   H49     1.111   1_565 S
C703   H735    1.112   .     S
C703   H733    1.111   .     S
C703   C9      1.538   1_565 S
C703   C26     1.535   1_565 S
C704   H732    1.111   .     S
C704   H730    1.110   .     S
C704   H731    1.111   .     S
C705   H739    1.107   .     S
C705   H740    1.101   .     S
C705   C721    1.516   .     S
C705   C706    1.532   .     S
C706   H738    1.110   .     S
C706   H737    1.108   .     S
C706   H736    1.111   .     S
C707   C708    1.537   .     S
C707   H744    1.107   .     S
C707   C1710   1.533   .     S
C707   H1763   1.108   .     S
C708   H742    1.111   .     S
C708   H743    1.111   .     S
C708   H1758   1.110   .     S
C709   H751    1.106   .     S
C709   H752    1.110   .     S
C709   C710    1.531   .     S
C710   H750    1.111   .     S
C710   H749    1.111   .     S
C710   H748    1.105   .     S
C711   H757    1.103   .     S
C711   H758    1.102   .     S
C711   C713    1.529   .     S
C712   C718    1.408   .     A
C712   C1718   1.426   .     S
C712   C1736   1.426   .     S
C713   H753    1.111   .     S
C713   H755    1.110   .     S
C713   H1771   1.111   1_554 S
C714   C715    1.531   .     S
C714   H763    1.107   .     S
C714   C1707   1.526   1_554 S
C714   H1779   1.104   1_554 S
C715   H759    1.110   .     S
C715   H760    1.110   .     S
C715   H761    1.109   .     S
C716   C717    1.529   .     S
C716   H770    1.112   .     S
C716   H769    1.111   .     S
C716   C910    1.547   1_455 S
C717   H768    1.111   .     S
C717   H991    1.110   1_455 S
C717   H992    1.111   1_455 S
C718   C722    1.411   .     A
C719   C1729   1.426   1_554 S
C719   C1737   1.428   1_554 S
C720   C721    1.413   .     A
C720   C1710   1.440   .     S
C720   C1736   1.428   .     S
C721   C722    1.394   .     A
C722   H764    1.078   .     S
H741   C1725   1.110   1_554 S
H746   C1724   1.108   1_554 S
H754   C1730   1.111   .     S
H762   C1731   1.104   .     S
H765   C830    1.110   .     S
H766   C830    1.111   .     S
H773   C812    1.110   .     S
O775   Zn789   1.953   .     S
O775   Zn790   1.931   .     S
O775   Zn791   1.951   .     S
O775   Zn788   1.943   .     S
O776   Zn789   1.925   .     S
O777   Zn791   1.929   .     S
O778   Zn790   1.936   .     S
O779   Zn788   1.933   .     S
O780   Zn788   1.938   .     S
O781   Zn791   1.930   .     S
O782   Zn789   1.936   .     S
O783   Zn790   1.938   .     S
O784   Zn791   1.937   .     S
O785   Zn788   1.932   .     S
O786   Zn789   1.933   .     S
O787   Zn790   1.940   .     S
C792   O897    1.278   .     A
C792   O895    1.265   .     A
C792   C798    1.432   .     S
C793   C832    1.391   .     A
C793   H860    1.083   .     S
C793   C807    1.383   .     A
C794   C809    1.527   .     S
C794   C806    1.422   .     A
C794   C807    1.408   .     A
C795   O898    1.274   .     A
C795   C797    1.474   .     S
C795   O896    1.279   .     A
C796   C808    1.418   .     A
C796   C805    1.498   .     S
C796   C831    1.423   .     A
C797   C911    1.370   .     S
C797   C942    1.547   .     S
C799   C802    1.476   .     S
C799   C122    1.373   1_565 S
C799   C135    1.548   1_565 S
C800   C801    1.433   .     S
C801   O899    1.274   .     A
C801   O893    1.265   .     A
C802   O900    1.283   .     A
C802   O894    1.276   .     A
C803   C808    1.426   .     A
C803   C1831   1.427   .     S
C803   C1844   1.526   .     S
C804   O889    1.273   .     A
C804   O891    1.275   .     A
C804   C807    1.449   .     S
C805   O890    1.298   .     A
C805   O892    1.284   .     A
C806   C1837   1.533   1_554 S
C806   C1850   1.440   1_554 S
C808   C822    1.529   .     S
C809   C810    1.532   .     S
C809   H880    1.104   .     S
C809   H869    1.112   .     S
C810   H847    1.107   .     S
C810   H858    1.110   .     S
C810   H836    1.110   .     S
C811   H887    1.109   .     S
C811   H837    1.112   .     S
C811   C911    1.536   .     S
C811   C925    1.536   .     S
C812   H885    1.111   .     S
C812   H884    1.110   .     S
C813   H841    1.111   .     S
C813   H842    1.112   .     S
C814   C824    1.534   .     S
C814   C1820   1.427   1_554 S
C814   C1842   1.426   1_554 S
C815   H839    1.111   .     S
C815   H838    1.111   .     S
C815   C135    1.529   1_565 S
C815   H162    1.111   1_565 S
C816   H848    1.112   .     S
C816   H846    1.111   .     S
C816   C122    1.538   1_565 S
C816   C139    1.535   1_565 S
C817   H845    1.111   .     S
C817   H843    1.110   .     S
C817   H844    1.111   .     S
C818   H852    1.107   .     S
C818   H853    1.101   .     S
C818   C834    1.516   .     S
C818   C819    1.532   .     S
C819   H851    1.110   .     S
C819   H850    1.108   .     S
C819   H849    1.111   .     S
C820   C821    1.537   .     S
C820   H857    1.107   .     S
C820   C1823   1.533   .     S
C820   H1876   1.108   .     S
C821   H855    1.111   .     S
C821   H856    1.111   .     S
C821   H1871   1.110   .     S
C822   H864    1.106   .     S
C822   H865    1.110   .     S
C822   C823    1.531   .     S
C823   H863    1.111   .     S
C823   H862    1.111   .     S
C823   H861    1.105   .     S
C824   H870    1.103   .     S
C824   H871    1.102   .     S
C824   C826    1.529   .     S
C825   C831    1.408   .     A
C825   C1831   1.426   .     S
C825   C1849   1.426   .     S
C826   H866    1.111   .     S
C826   H868    1.110   .     S
C826   H1884   1.111   1_554 S
C827   C828    1.531   .     S
C827   H876    1.107   .     S
C827   C1820   1.526   1_554 S
C827   H1892   1.104   1_554 S
C828   H872    1.110   .     S
C828   H873    1.110   .     S
C828   H874    1.109   .     S
C829   C830    1.529   .     S
C829   H883    1.112   .     S
C829   H882    1.111   .     S
C830   H881    1.111   .     S
C831   C835    1.411   .     A
C832   C1842   1.426   1_554 S
C832   C1850   1.428   1_554 S
C833   C834    1.413   .     A
C833   C1823   1.440   .     S
C833   C1849   1.428   .     S
C834   C835    1.394   .     A
C835   H877    1.078   .     S
H854   C1838   1.110   1_554 S
H859   C1837   1.108   1_554 S
H867   C1843   1.111   .     S
H875   C1844   1.104   .     S
H878   C943    1.110   .     S
H879   C943    1.111   .     S
H886   C925    1.110   .     S
O888   Zn902   1.953   .     S
O888   Zn903   1.931   .     S
O888   Zn904   1.951   .     S
O888   Zn901   1.943   .     S
O889   Zn902   1.925   .     S
O890   Zn904   1.929   .     S
O891   Zn903   1.936   .     S
O892   Zn901   1.933   .     S
O893   Zn901   1.938   .     S
O894   Zn904   1.930   .     S
O895   Zn902   1.936   .     S
O896   Zn903   1.938   .     S
O897   Zn904   1.937   .     S
O898   Zn901   1.932   .     S
O899   Zn902   1.933   .     S
O900   Zn903   1.940   .     S
C905   O1010   1.278   .     A
C905   O1008   1.265   .     A
C905   C911    1.432   .     S
C906   C945    1.391   .     A
C906   H973    1.083   .     S
C906   C920    1.383   .     A
C907   C922    1.527   .     S
C907   C919    1.422   .     A
C907   C920    1.408   .     A
C908   O1011   1.274   .     A
C908   C910    1.474   .     S
C908   O1009   1.279   .     A
C909   C921    1.418   .     A
C909   C918    1.498   .     S
C909   C944    1.423   .     A
C910   C685    1.370   1_655 S
C910   C716    1.547   1_655 S
C912   C915    1.476   .     S
C912   C235    1.373   1_565 S
C912   C248    1.548   1_565 S
C913   C914    1.433   .     S
C914   O1012   1.274   .     A
C914   O1006   1.265   .     A
C915   O1013   1.283   .     A
C915   O1007   1.276   .     A
C916   C921    1.426   .     A
C916   C1944   1.427   .     S
C916   C1957   1.526   .     S
C917   O1002   1.273   .     A
C917   O1004   1.275   .     A
C917   C920    1.449   .     S
C918   O1003   1.298   .     A
C918   O1005   1.284   .     A
C919   C1950   1.533   1_554 S
C919   C1963   1.440   1_554 S
C921   C935    1.529   .     S
C922   C923    1.532   .     S
C922   H993    1.104   .     S
C922   H982    1.112   .     S
C923   H960    1.107   .     S
C923   H971    1.110   .     S
C923   H949    1.110   .     S
C924   H1000   1.109   .     S
C924   H950    1.112   .     S
C924   C685    1.536   1_655 S
C924   C699    1.536   1_655 S
C925   H998    1.111   .     S
C925   H997    1.110   .     S
C926   H954    1.111   .     S
C926   H955    1.112   .     S
C927   C937    1.534   .     S
C927   C1933   1.427   1_554 S
C927   C1955   1.426   1_554 S
C928   H952    1.111   .     S
C928   H951    1.111   .     S
C928   C248    1.529   1_565 S
C928   H275    1.111   1_565 S
C929   H961    1.112   .     S
C929   H959    1.111   .     S
C929   C235    1.538   1_565 S
C929   C252    1.535   1_565 S
C930   H958    1.111   .     S
C930   H956    1.110   .     S
C930   H957    1.111   .     S
C931   H965    1.107   .     S
C931   H966    1.101   .     S
C931   C947    1.516   .     S
C931   C932    1.532   .     S
C932   H964    1.110   .     S
C932   H963    1.108   .     S
C932   H962    1.111   .     S
C933   C934    1.537   .     S
C933   H970    1.107   .     S
C933   C1936   1.533   .     S
C933   H1989   1.108   .     S
C934   H968    1.111   .     S
C934   H969    1.111   .     S
C934   H1984   1.110   .     S
C935   H977    1.106   .     S
C935   H978    1.110   .     S
C935   C936    1.531   .     S
C936   H976    1.111   .     S
C936   H975    1.111   .     S
C936   H974    1.105   .     S
C937   H983    1.103   .     S
C937   H984    1.102   .     S
C937   C939    1.529   .     S
C938   C944    1.408   .     A
C938   C1944   1.426   .     S
C938   C1962   1.426   .     S
C939   H979    1.111   .     S
C939   H981    1.110   .     S
C939   H1997   1.111   1_554 S
C940   C941    1.531   .     S
C940   H989    1.107   .     S
C940   C1933   1.526   1_554 S
C940   H2005   1.104   1_554 S
C941   H985    1.110   .     S
C941   H986    1.110   .     S
C941   H987    1.109   .     S
C942   C943    1.529   .     S
C942   H996    1.112   .     S
C942   H995    1.111   .     S
C943   H994    1.111   .     S
C944   C948    1.411   .     A
C945   C1955   1.426   1_554 S
C945   C1963   1.428   1_554 S
C946   C947    1.413   .     A
C946   C1936   1.440   .     S
C946   C1962   1.428   .     S
C947   C948    1.394   .     A
C948   H990    1.078   .     S
H967   C1951   1.110   1_554 S
H972   C1950   1.108   1_554 S
H980   C1956   1.111   .     S
H988   C1957   1.104   .     S
H991   C717    1.110   1_655 S
H992   C717    1.111   1_655 S
H999   C699    1.110   1_655 S
O1001  Zn1015  1.953   .     S
O1001  Zn1016  1.931   .     S
O1001  Zn1017  1.951   .     S
O1001  Zn1014  1.943   .     S
O1002  Zn1015  1.925   .     S
O1003  Zn1017  1.929   .     S
O1004  Zn1016  1.936   .     S
O1005  Zn1014  1.933   .     S
O1006  Zn1014  1.938   .     S
O1007  Zn1017  1.930   .     S
O1008  Zn1015  1.936   .     S
O1009  Zn1016  1.938   .     S
O1010  Zn1017  1.937   .     S
O1011  Zn1014  1.932   .     S
O1012  Zn1015  1.933   .     S
O1013  Zn1016  1.940   .     S
C1018  O1123   1.278   .     A
C1018  O1121   1.265   .     A
C1018  C1024   1.432   .     S
C1019  C1058   1.391   .     A
C1019  H1086   1.083   .     S
C1019  C1033   1.383   .     A
C1020  C1035   1.527   .     S
C1020  C1032   1.422   .     A
C1020  C1033   1.408   .     A
C1021  O1124   1.274   .     A
C1021  C1023   1.474   .     S
C1021  O1122   1.279   .     A
C1022  C1034   1.418   .     A
C1022  C1031   1.498   .     S
C1022  C1057   1.423   .     A
C1023  C1137   1.370   .     S
C1023  C1168   1.547   .     S
C1024  C1249   1.370   1_455 S
C1024  C1263   1.536   1_455 S
C1025  C1028   1.476   .     S
C1025  C1365   1.373   .     S
C1025  C1378   1.548   .     S
C1026  C1027   1.433   .     S
C1026  C1703   1.373   1_545 S
C1026  C1720   1.538   1_545 S
C1027  O1125   1.274   .     A
C1027  O1119   1.265   .     A
C1028  O1126   1.283   .     A
C1028  O1120   1.276   .     A
C1029  C1034   1.426   .     A
C1029  C23     1.427   1_556 S
C1029  C36     1.526   1_556 S
C1030  O1115   1.273   .     A
C1030  O1117   1.275   .     A
C1030  C1033   1.449   .     S
C1031  O1116   1.298   .     A
C1031  O1118   1.284   .     A
C1034  C1048   1.529   .     S
C1035  C1036   1.532   .     S
C1035  H1106   1.104   .     S
C1035  H1095   1.112   .     S
C1036  H1073   1.107   .     S
C1036  H1084   1.110   .     S
C1036  H1062   1.110   .     S
C1037  H1113   1.109   .     S
C1037  H1063   1.112   .     S
C1037  C1137   1.536   .     S
C1037  C1151   1.536   .     S
C1038  H1111   1.111   .     S
C1038  H1110   1.110   .     S
C1038  C1263   1.536   1_455 S
C1038  H1338   1.110   1_455 S
C1039  H1067   1.111   .     S
C1039  H1068   1.112   .     S
C1039  C1703   1.548   1_545 S
C1039  C1719   1.529   1_545 S
C1040  C1050   1.534   .     S
C1041  H1065   1.111   .     S
C1041  H1064   1.111   .     S
C1041  C1378   1.529   .     S
C1041  H1405   1.111   .     S
C1042  H1074   1.112   .     S
C1042  H1072   1.111   .     S
C1042  C1365   1.538   .     S
C1042  C1382   1.535   .     S
C1043  H1071   1.111   .     S
C1043  H1069   1.110   .     S
C1043  H1070   1.111   .     S
C1043  C1720   1.535   1_545 S
C1044  H1078   1.107   .     S
C1044  H1079   1.101   .     S
C1044  C1060   1.516   .     S
C1044  C1045   1.532   .     S
C1045  H1077   1.110   .     S
C1045  H1076   1.108   .     S
C1045  H1075   1.111   .     S
C1046  C1047   1.537   .     S
C1046  H1083   1.107   .     S
C1046  C15     1.533   1_556 S
C1046  H68     1.108   1_556 S
C1047  H1081   1.111   .     S
C1047  H1082   1.111   .     S
C1047  H63     1.110   1_556 S
C1048  H1090   1.106   .     S
C1048  H1091   1.110   .     S
C1048  C1049   1.531   .     S
C1049  H1089   1.111   .     S
C1049  H1088   1.111   .     S
C1049  H1087   1.105   .     S
C1050  H1096   1.103   .     S
C1050  H1097   1.102   .     S
C1050  C1052   1.529   .     S
C1051  C1057   1.408   .     A
C1051  C23     1.426   1_556 S
C1051  C41     1.426   1_556 S
C1052  H1092   1.111   .     S
C1052  H1094   1.110   .     S
C1053  C1054   1.531   .     S
C1053  H1102   1.107   .     S
C1054  H1098   1.110   .     S
C1054  H1099   1.110   .     S
C1054  H1100   1.109   .     S
C1055  C1056   1.529   .     S
C1055  H1109   1.112   .     S
C1055  H1108   1.111   .     S
C1055  C1249   1.547   1_455 S
C1056  H1107   1.111   .     S
C1056  H1330   1.110   1_455 S
C1056  H1331   1.111   1_455 S
C1057  C1061   1.411   .     A
C1059  C1060   1.413   .     A
C1059  C15     1.440   1_556 S
C1059  C41     1.428   1_556 S
C1060  C1061   1.394   .     A
C1061  H1103   1.078   .     S
H1066  C1719   1.111   1_545 S
H1093  C35     1.111   1_556 S
H1101  C36     1.104   1_556 S
H1104  C1169   1.110   .     S
H1105  C1169   1.111   .     S
H1112  C1151   1.110   .     S
O1114  Zn1128  1.953   .     S
O1114  Zn1129  1.931   .     S
O1114  Zn1130  1.951   .     S
O1114  Zn1127  1.943   .     S
O1115  Zn1128  1.925   .     S
O1116  Zn1130  1.929   .     S
O1117  Zn1129  1.936   .     S
O1118  Zn1127  1.933   .     S
O1119  Zn1127  1.938   .     S
O1120  Zn1130  1.930   .     S
O1121  Zn1128  1.936   .     S
O1122  Zn1129  1.938   .     S
O1123  Zn1130  1.937   .     S
O1124  Zn1127  1.932   .     S
O1125  Zn1128  1.933   .     S
O1126  Zn1129  1.940   .     S
C1131  O1236   1.278   .     A
C1131  O1234   1.265   .     A
C1131  C1137   1.432   .     S
C1132  C1171   1.391   .     A
C1132  H1199   1.083   .     S
C1132  C1146   1.383   .     A
C1133  C1148   1.527   .     S
C1133  C1145   1.422   .     A
C1133  C1146   1.408   .     A
C1134  O1237   1.274   .     A
C1134  C1136   1.474   .     S
C1134  O1235   1.279   .     A
C1135  C1147   1.418   .     A
C1135  C1144   1.498   .     S
C1135  C1170   1.423   .     A
C1136  C1250   1.370   .     S
C1136  C1281   1.547   .     S
C1138  C1141   1.476   .     S
C1138  C1478   1.373   .     S
C1138  C1491   1.548   .     S
C1139  C1140   1.433   .     S
C1139  C1816   1.373   1_545 S
C1139  C1833   1.538   1_545 S
C1140  O1238   1.274   .     A
C1140  O1232   1.265   .     A
C1141  O1239   1.283   .     A
C1141  O1233   1.276   .     A
C1142  C1147   1.426   .     A
C1142  C136    1.427   1_556 S
C1142  C149    1.526   1_556 S
C1143  O1228   1.273   .     A
C1143  O1230   1.275   .     A
C1143  C1146   1.449   .     S
C1144  O1229   1.298   .     A
C1144  O1231   1.284   .     A
C1147  C1161   1.529   .     S
C1148  C1149   1.532   .     S
C1148  H1219   1.104   .     S
C1148  H1208   1.112   .     S
C1149  H1186   1.107   .     S
C1149  H1197   1.110   .     S
C1149  H1175   1.110   .     S
C1150  H1226   1.109   .     S
C1150  H1176   1.112   .     S
C1150  C1250   1.536   .     S
C1150  C1264   1.536   .     S
C1151  H1224   1.111   .     S
C1151  H1223   1.110   .     S
C1152  H1180   1.111   .     S
C1152  H1181   1.112   .     S
C1152  C1816   1.548   1_545 S
C1152  C1832   1.529   1_545 S
C1153  C1163   1.534   .     S
C1154  H1178   1.111   .     S
C1154  H1177   1.111   .     S
C1154  C1491   1.529   .     S
C1154  H1518   1.111   .     S
C1155  H1187   1.112   .     S
C1155  H1185   1.111   .     S
C1155  C1478   1.538   .     S
C1155  C1495   1.535   .     S
C1156  H1184   1.111   .     S
C1156  H1182   1.110   .     S
C1156  H1183   1.111   .     S
C1156  C1833   1.535   1_545 S
C1157  H1191   1.107   .     S
C1157  H1192   1.101   .     S
C1157  C1173   1.516   .     S
C1157  C1158   1.532   .     S
C1158  H1190   1.110   .     S
C1158  H1189   1.108   .     S
C1158  H1188   1.111   .     S
C1159  C1160   1.537   .     S
C1159  H1196   1.107   .     S
C1159  C128    1.533   1_556 S
C1159  H181    1.108   1_556 S
C1160  H1194   1.111   .     S
C1160  H1195   1.111   .     S
C1160  H176    1.110   1_556 S
C1161  H1203   1.106   .     S
C1161  H1204   1.110   .     S
C1161  C1162   1.531   .     S
C1162  H1202   1.111   .     S
C1162  H1201   1.111   .     S
C1162  H1200   1.105   .     S
C1163  H1209   1.103   .     S
C1163  H1210   1.102   .     S
C1163  C1165   1.529   .     S
C1164  C1170   1.408   .     A
C1164  C136    1.426   1_556 S
C1164  C154    1.426   1_556 S
C1165  H1205   1.111   .     S
C1165  H1207   1.110   .     S
C1166  C1167   1.531   .     S
C1166  H1215   1.107   .     S
C1167  H1211   1.110   .     S
C1167  H1212   1.110   .     S
C1167  H1213   1.109   .     S
C1168  C1169   1.529   .     S
C1168  H1222   1.112   .     S
C1168  H1221   1.111   .     S
C1169  H1220   1.111   .     S
C1170  C1174   1.411   .     A
C1172  C1173   1.413   .     A
C1172  C128    1.440   1_556 S
C1172  C154    1.428   1_556 S
C1173  C1174   1.394   .     A
C1174  H1216   1.078   .     S
H1179  C1832   1.111   1_545 S
H1206  C148    1.111   1_556 S
H1214  C149    1.104   1_556 S
H1217  C1282   1.110   .     S
H1218  C1282   1.111   .     S
H1225  C1264   1.110   .     S
O1227  Zn1241  1.953   .     S
O1227  Zn1242  1.931   .     S
O1227  Zn1243  1.951   .     S
O1227  Zn1240  1.943   .     S
O1228  Zn1241  1.925   .     S
O1229  Zn1243  1.929   .     S
O1230  Zn1242  1.936   .     S
O1231  Zn1240  1.933   .     S
O1232  Zn1240  1.938   .     S
O1233  Zn1243  1.930   .     S
O1234  Zn1241  1.936   .     S
O1235  Zn1242  1.938   .     S
O1236  Zn1243  1.937   .     S
O1237  Zn1240  1.932   .     S
O1238  Zn1241  1.933   .     S
O1239  Zn1242  1.940   .     S
C1244  O1349   1.278   .     A
C1244  O1347   1.265   .     A
C1244  C1250   1.432   .     S
C1245  C1284   1.391   .     A
C1245  H1312   1.083   .     S
C1245  C1259   1.383   .     A
C1246  C1261   1.527   .     S
C1246  C1258   1.422   .     A
C1246  C1259   1.408   .     A
C1247  O1350   1.274   .     A
C1247  C1249   1.474   .     S
C1247  O1348   1.279   .     A
C1248  C1260   1.418   .     A
C1248  C1257   1.498   .     S
C1248  C1283   1.423   .     A
C1249  C1024   1.370   1_655 S
C1249  C1055   1.547   1_655 S
C1251  C1254   1.476   .     S
C1251  C1591   1.373   .     S
C1251  C1604   1.548   .     S
C1252  C1253   1.433   .     S
C1252  C1929   1.373   1_545 S
C1252  C1946   1.538   1_545 S
C1253  O1351   1.274   .     A
C1253  O1345   1.265   .     A
C1254  O1352   1.283   .     A
C1254  O1346   1.276   .     A
C1255  C1260   1.426   .     A
C1255  C249    1.427   1_556 S
C1255  C262    1.526   1_556 S
C1256  O1341   1.273   .     A
C1256  O1343   1.275   .     A
C1256  C1259   1.449   .     S
C1257  O1342   1.298   .     A
C1257  O1344   1.284   .     A
C1260  C1274   1.529   .     S
C1261  C1262   1.532   .     S
C1261  H1332   1.104   .     S
C1261  H1321   1.112   .     S
C1262  H1299   1.107   .     S
C1262  H1310   1.110   .     S
C1262  H1288   1.110   .     S
C1263  H1339   1.109   .     S
C1263  H1289   1.112   .     S
C1263  C1024   1.536   1_655 S
C1263  C1038   1.536   1_655 S
C1264  H1337   1.111   .     S
C1264  H1336   1.110   .     S
C1265  H1293   1.111   .     S
C1265  H1294   1.112   .     S
C1265  C1929   1.548   1_545 S
C1265  C1945   1.529   1_545 S
C1266  C1276   1.534   .     S
C1267  H1291   1.111   .     S
C1267  H1290   1.111   .     S
C1267  C1604   1.529   .     S
C1267  H1631   1.111   .     S
C1268  H1300   1.112   .     S
C1268  H1298   1.111   .     S
C1268  C1591   1.538   .     S
C1268  C1608   1.535   .     S
C1269  H1297   1.111   .     S
C1269  H1295   1.110   .     S
C1269  H1296   1.111   .     S
C1269  C1946   1.535   1_545 S
C1270  H1304   1.107   .     S
C1270  H1305   1.101   .     S
C1270  C1286   1.516   .     S
C1270  C1271   1.532   .     S
C1271  H1303   1.110   .     S
C1271  H1302   1.108   .     S
C1271  H1301   1.111   .     S
C1272  C1273   1.537   .     S
C1272  H1309   1.107   .     S
C1272  C241    1.533   1_556 S
C1272  H294    1.108   1_556 S
C1273  H1307   1.111   .     S
C1273  H1308   1.111   .     S
C1273  H289    1.110   1_556 S
C1274  H1316   1.106   .     S
C1274  H1317   1.110   .     S
C1274  C1275   1.531   .     S
C1275  H1315   1.111   .     S
C1275  H1314   1.111   .     S
C1275  H1313   1.105   .     S
C1276  H1322   1.103   .     S
C1276  H1323   1.102   .     S
C1276  C1278   1.529   .     S
C1277  C1283   1.408   .     A
C1277  C249    1.426   1_556 S
C1277  C267    1.426   1_556 S
C1278  H1318   1.111   .     S
C1278  H1320   1.110   .     S
C1279  C1280   1.531   .     S
C1279  H1328   1.107   .     S
C1280  H1324   1.110   .     S
C1280  H1325   1.110   .     S
C1280  H1326   1.109   .     S
C1281  C1282   1.529   .     S
C1281  H1335   1.112   .     S
C1281  H1334   1.111   .     S
C1282  H1333   1.111   .     S
C1283  C1287   1.411   .     A
C1285  C1286   1.413   .     A
C1285  C241    1.440   1_556 S
C1285  C267    1.428   1_556 S
C1286  C1287   1.394   .     A
C1287  H1329   1.078   .     S
H1292  C1945   1.111   1_545 S
H1319  C261    1.111   1_556 S
H1327  C262    1.104   1_556 S
H1330  C1056   1.110   1_655 S
H1331  C1056   1.111   1_655 S
H1338  C1038   1.110   1_655 S
O1340  Zn1354  1.953   .     S
O1340  Zn1355  1.931   .     S
O1340  Zn1356  1.951   .     S
O1340  Zn1353  1.943   .     S
O1341  Zn1354  1.925   .     S
O1342  Zn1356  1.929   .     S
O1343  Zn1355  1.936   .     S
O1344  Zn1353  1.933   .     S
O1345  Zn1353  1.938   .     S
O1346  Zn1356  1.930   .     S
O1347  Zn1354  1.936   .     S
O1348  Zn1355  1.938   .     S
O1349  Zn1356  1.937   .     S
O1350  Zn1353  1.932   .     S
O1351  Zn1354  1.933   .     S
O1352  Zn1355  1.940   .     S
C1357  O1462   1.278   .     A
C1357  O1460   1.265   .     A
C1357  C1363   1.432   .     S
C1358  C1397   1.391   .     A
C1358  H1425   1.083   .     S
C1358  C1372   1.383   .     A
C1359  C1374   1.527   .     S
C1359  C1371   1.422   .     A
C1359  C1372   1.408   .     A
C1360  O1463   1.274   .     A
C1360  C1362   1.474   .     S
C1360  O1461   1.279   .     A
C1361  C1373   1.418   .     A
C1361  C1370   1.498   .     S
C1361  C1396   1.423   .     A
C1362  C1476   1.370   .     S
C1362  C1507   1.547   .     S
C1363  C1588   1.370   1_455 S
C1363  C1602   1.536   1_455 S
C1364  C1367   1.476   .     S
C1364  C1704   1.373   .     S
C1364  C1717   1.548   .     S
C1365  C1366   1.433   .     S
C1366  O1464   1.274   .     A
C1366  O1458   1.265   .     A
C1367  O1465   1.283   .     A
C1367  O1459   1.276   .     A
C1368  C1373   1.426   .     A
C1368  C362    1.427   1_556 S
C1368  C375    1.526   1_556 S
C1369  O1454   1.273   .     A
C1369  O1456   1.275   .     A
C1369  C1372   1.449   .     S
C1370  O1455   1.298   .     A
C1370  O1457   1.284   .     A
C1373  C1387   1.529   .     S
C1374  C1375   1.532   .     S
C1374  H1445   1.104   .     S
C1374  H1434   1.112   .     S
C1375  H1412   1.107   .     S
C1375  H1423   1.110   .     S
C1375  H1401   1.110   .     S
C1376  H1452   1.109   .     S
C1376  H1402   1.112   .     S
C1376  C1476   1.536   .     S
C1376  C1490   1.536   .     S
C1377  H1450   1.111   .     S
C1377  H1449   1.110   .     S
C1377  C1602   1.536   1_455 S
C1377  H1677   1.110   1_455 S
C1378  H1406   1.111   .     S
C1378  H1407   1.112   .     S
C1379  C1389   1.534   .     S
C1380  H1404   1.111   .     S
C1380  H1403   1.111   .     S
C1380  C1717   1.529   .     S
C1380  H1744   1.111   .     S
C1381  H1413   1.112   .     S
C1381  H1411   1.111   .     S
C1381  C1704   1.538   .     S
C1381  C1721   1.535   .     S
C1382  H1410   1.111   .     S
C1382  H1408   1.110   .     S
C1382  H1409   1.111   .     S
C1383  H1417   1.107   .     S
C1383  H1418   1.101   .     S
C1383  C1399   1.516   .     S
C1383  C1384   1.532   .     S
C1384  H1416   1.110   .     S
C1384  H1415   1.108   .     S
C1384  H1414   1.111   .     S
C1385  C1386   1.537   .     S
C1385  H1422   1.107   .     S
C1385  C354    1.533   1_556 S
C1385  H407    1.108   1_556 S
C1386  H1420   1.111   .     S
C1386  H1421   1.111   .     S
C1386  H402    1.110   1_556 S
C1387  H1429   1.106   .     S
C1387  H1430   1.110   .     S
C1387  C1388   1.531   .     S
C1388  H1428   1.111   .     S
C1388  H1427   1.111   .     S
C1388  H1426   1.105   .     S
C1389  H1435   1.103   .     S
C1389  H1436   1.102   .     S
C1389  C1391   1.529   .     S
C1390  C1396   1.408   .     A
C1390  C362    1.426   1_556 S
C1390  C380    1.426   1_556 S
C1391  H1431   1.111   .     S
C1391  H1433   1.110   .     S
C1392  C1393   1.531   .     S
C1392  H1441   1.107   .     S
C1393  H1437   1.110   .     S
C1393  H1438   1.110   .     S
C1393  H1439   1.109   .     S
C1394  C1395   1.529   .     S
C1394  H1448   1.112   .     S
C1394  H1447   1.111   .     S
C1394  C1588   1.547   1_455 S
C1395  H1446   1.111   .     S
C1395  H1669   1.110   1_455 S
C1395  H1670   1.111   1_455 S
C1396  C1400   1.411   .     A
C1398  C1399   1.413   .     A
C1398  C354    1.440   1_556 S
C1398  C380    1.428   1_556 S
C1399  C1400   1.394   .     A
C1400  H1442   1.078   .     S
H1432  C374    1.111   1_556 S
H1440  C375    1.104   1_556 S
H1443  C1508   1.110   .     S
H1444  C1508   1.111   .     S
H1451  C1490   1.110   .     S
O1453  Zn1467  1.953   .     S
O1453  Zn1468  1.931   .     S
O1453  Zn1469  1.951   .     S
O1453  Zn1466  1.943   .     S
O1454  Zn1467  1.925   .     S
O1455  Zn1469  1.929   .     S
O1456  Zn1468  1.936   .     S
O1457  Zn1466  1.933   .     S
O1458  Zn1466  1.938   .     S
O1459  Zn1469  1.930   .     S
O1460  Zn1467  1.936   .     S
O1461  Zn1468  1.938   .     S
O1462  Zn1469  1.937   .     S
O1463  Zn1466  1.932   .     S
O1464  Zn1467  1.933   .     S
O1465  Zn1468  1.940   .     S
C1470  O1575   1.278   .     A
C1470  O1573   1.265   .     A
C1470  C1476   1.432   .     S
C1471  C1510   1.391   .     A
C1471  H1538   1.083   .     S
C1471  C1485   1.383   .     A
C1472  C1487   1.527   .     S
C1472  C1484   1.422   .     A
C1472  C1485   1.408   .     A
C1473  O1576   1.274   .     A
C1473  C1475   1.474   .     S
C1473  O1574   1.279   .     A
C1474  C1486   1.418   .     A
C1474  C1483   1.498   .     S
C1474  C1509   1.423   .     A
C1475  C1589   1.370   .     S
C1475  C1620   1.547   .     S
C1477  C1480   1.476   .     S
C1477  C1817   1.373   .     S
C1477  C1830   1.548   .     S
C1478  C1479   1.433   .     S
C1479  O1577   1.274   .     A
C1479  O1571   1.265   .     A
C1480  O1578   1.283   .     A
C1480  O1572   1.276   .     A
C1481  C1486   1.426   .     A
C1481  C475    1.427   1_556 S
C1481  C488    1.526   1_556 S
C1482  O1567   1.273   .     A
C1482  O1569   1.275   .     A
C1482  C1485   1.449   .     S
C1483  O1568   1.298   .     A
C1483  O1570   1.284   .     A
C1486  C1500   1.529   .     S
C1487  C1488   1.532   .     S
C1487  H1558   1.104   .     S
C1487  H1547   1.112   .     S
C1488  H1525   1.107   .     S
C1488  H1536   1.110   .     S
C1488  H1514   1.110   .     S
C1489  H1565   1.109   .     S
C1489  H1515   1.112   .     S
C1489  C1589   1.536   .     S
C1489  C1603   1.536   .     S
C1490  H1563   1.111   .     S
C1490  H1562   1.110   .     S
C1491  H1519   1.111   .     S
C1491  H1520   1.112   .     S
C1492  C1502   1.534   .     S
C1493  H1517   1.111   .     S
C1493  H1516   1.111   .     S
C1493  C1830   1.529   .     S
C1493  H1857   1.111   .     S
C1494  H1526   1.112   .     S
C1494  H1524   1.111   .     S
C1494  C1817   1.538   .     S
C1494  C1834   1.535   .     S
C1495  H1523   1.111   .     S
C1495  H1521   1.110   .     S
C1495  H1522   1.111   .     S
C1496  H1530   1.107   .     S
C1496  H1531   1.101   .     S
C1496  C1512   1.516   .     S
C1496  C1497   1.532   .     S
C1497  H1529   1.110   .     S
C1497  H1528   1.108   .     S
C1497  H1527   1.111   .     S
C1498  C1499   1.537   .     S
C1498  H1535   1.107   .     S
C1498  C467    1.533   1_556 S
C1498  H520    1.108   1_556 S
C1499  H1533   1.111   .     S
C1499  H1534   1.111   .     S
C1499  H515    1.110   1_556 S
C1500  H1542   1.106   .     S
C1500  H1543   1.110   .     S
C1500  C1501   1.531   .     S
C1501  H1541   1.111   .     S
C1501  H1540   1.111   .     S
C1501  H1539   1.105   .     S
C1502  H1548   1.103   .     S
C1502  H1549   1.102   .     S
C1502  C1504   1.529   .     S
C1503  C1509   1.408   .     A
C1503  C475    1.426   1_556 S
C1503  C493    1.426   1_556 S
C1504  H1544   1.111   .     S
C1504  H1546   1.110   .     S
C1505  C1506   1.531   .     S
C1505  H1554   1.107   .     S
C1506  H1550   1.110   .     S
C1506  H1551   1.110   .     S
C1506  H1552   1.109   .     S
C1507  C1508   1.529   .     S
C1507  H1561   1.112   .     S
C1507  H1560   1.111   .     S
C1508  H1559   1.111   .     S
C1509  C1513   1.411   .     A
C1511  C1512   1.413   .     A
C1511  C467    1.440   1_556 S
C1511  C493    1.428   1_556 S
C1512  C1513   1.394   .     A
C1513  H1555   1.078   .     S
H1545  C487    1.111   1_556 S
H1553  C488    1.104   1_556 S
H1556  C1621   1.110   .     S
H1557  C1621   1.111   .     S
H1564  C1603   1.110   .     S
O1566  Zn1580  1.953   .     S
O1566  Zn1581  1.931   .     S
O1566  Zn1582  1.951   .     S
O1566  Zn1579  1.943   .     S
O1567  Zn1580  1.925   .     S
O1568  Zn1582  1.929   .     S
O1569  Zn1581  1.936   .     S
O1570  Zn1579  1.933   .     S
O1571  Zn1579  1.938   .     S
O1572  Zn1582  1.930   .     S
O1573  Zn1580  1.936   .     S
O1574  Zn1581  1.938   .     S
O1575  Zn1582  1.937   .     S
O1576  Zn1579  1.932   .     S
O1577  Zn1580  1.933   .     S
O1578  Zn1581  1.940   .     S
C1583  O1688   1.278   .     A
C1583  O1686   1.265   .     A
C1583  C1589   1.432   .     S
C1584  C1623   1.391   .     A
C1584  H1651   1.083   .     S
C1584  C1598   1.383   .     A
C1585  C1600   1.527   .     S
C1585  C1597   1.422   .     A
C1585  C1598   1.408   .     A
C1586  O1689   1.274   .     A
C1586  C1588   1.474   .     S
C1586  O1687   1.279   .     A
C1587  C1599   1.418   .     A
C1587  C1596   1.498   .     S
C1587  C1622   1.423   .     A
C1588  C1363   1.370   1_655 S
C1588  C1394   1.547   1_655 S
C1590  C1593   1.476   .     S
C1590  C1930   1.373   .     S
C1590  C1943   1.548   .     S
C1591  C1592   1.433   .     S
C1592  O1690   1.274   .     A
C1592  O1684   1.265   .     A
C1593  O1691   1.283   .     A
C1593  O1685   1.276   .     A
C1594  C1599   1.426   .     A
C1594  C588    1.427   1_556 S
C1594  C601    1.526   1_556 S
C1595  O1680   1.273   .     A
C1595  O1682   1.275   .     A
C1595  C1598   1.449   .     S
C1596  O1681   1.298   .     A
C1596  O1683   1.284   .     A
C1599  C1613   1.529   .     S
C1600  C1601   1.532   .     S
C1600  H1671   1.104   .     S
C1600  H1660   1.112   .     S
C1601  H1638   1.107   .     S
C1601  H1649   1.110   .     S
C1601  H1627   1.110   .     S
C1602  H1678   1.109   .     S
C1602  H1628   1.112   .     S
C1602  C1363   1.536   1_655 S
C1602  C1377   1.536   1_655 S
C1603  H1676   1.111   .     S
C1603  H1675   1.110   .     S
C1604  H1632   1.111   .     S
C1604  H1633   1.112   .     S
C1605  C1615   1.534   .     S
C1606  H1630   1.111   .     S
C1606  H1629   1.111   .     S
C1606  C1943   1.529   .     S
C1606  H1970   1.111   .     S
C1607  H1639   1.112   .     S
C1607  H1637   1.111   .     S
C1607  C1930   1.538   .     S
C1607  C1947   1.535   .     S
C1608  H1636   1.111   .     S
C1608  H1634   1.110   .     S
C1608  H1635   1.111   .     S
C1609  H1643   1.107   .     S
C1609  H1644   1.101   .     S
C1609  C1625   1.516   .     S
C1609  C1610   1.532   .     S
C1610  H1642   1.110   .     S
C1610  H1641   1.108   .     S
C1610  H1640   1.111   .     S
C1611  C1612   1.537   .     S
C1611  H1648   1.107   .     S
C1611  C580    1.533   1_556 S
C1611  H633    1.108   1_556 S
C1612  H1646   1.111   .     S
C1612  H1647   1.111   .     S
C1612  H628    1.110   1_556 S
C1613  H1655   1.106   .     S
C1613  H1656   1.110   .     S
C1613  C1614   1.531   .     S
C1614  H1654   1.111   .     S
C1614  H1653   1.111   .     S
C1614  H1652   1.105   .     S
C1615  H1661   1.103   .     S
C1615  H1662   1.102   .     S
C1615  C1617   1.529   .     S
C1616  C1622   1.408   .     A
C1616  C588    1.426   1_556 S
C1616  C606    1.426   1_556 S
C1617  H1657   1.111   .     S
C1617  H1659   1.110   .     S
C1618  C1619   1.531   .     S
C1618  H1667   1.107   .     S
C1619  H1663   1.110   .     S
C1619  H1664   1.110   .     S
C1619  H1665   1.109   .     S
C1620  C1621   1.529   .     S
C1620  H1674   1.112   .     S
C1620  H1673   1.111   .     S
C1621  H1672   1.111   .     S
C1622  C1626   1.411   .     A
C1624  C1625   1.413   .     A
C1624  C580    1.440   1_556 S
C1624  C606    1.428   1_556 S
C1625  C1626   1.394   .     A
C1626  H1668   1.078   .     S
H1658  C600    1.111   1_556 S
H1666  C601    1.104   1_556 S
H1669  C1395   1.110   1_655 S
H1670  C1395   1.111   1_655 S
H1677  C1377   1.110   1_655 S
O1679  Zn1693  1.953   .     S
O1679  Zn1694  1.931   .     S
O1679  Zn1695  1.951   .     S
O1679  Zn1692  1.943   .     S
O1680  Zn1693  1.925   .     S
O1681  Zn1695  1.929   .     S
O1682  Zn1694  1.936   .     S
O1683  Zn1692  1.933   .     S
O1684  Zn1692  1.938   .     S
O1685  Zn1695  1.930   .     S
O1686  Zn1693  1.936   .     S
O1687  Zn1694  1.938   .     S
O1688  Zn1695  1.937   .     S
O1689  Zn1692  1.932   .     S
O1690  Zn1693  1.933   .     S
O1691  Zn1694  1.940   .     S
C1696  O1801   1.278   .     A
C1696  O1799   1.265   .     A
C1696  C1702   1.432   .     S
C1697  C1736   1.391   .     A
C1697  H1764   1.083   .     S
C1697  C1711   1.383   .     A
C1698  C1713   1.527   .     S
C1698  C1710   1.422   .     A
C1698  C1711   1.408   .     A
C1699  O1802   1.274   .     A
C1699  C1701   1.474   .     S
C1699  O1800   1.279   .     A
C1700  C1712   1.418   .     A
C1700  C1709   1.498   .     S
C1700  C1735   1.423   .     A
C1701  C1815   1.370   .     S
C1701  C1846   1.547   .     S
C1702  C1927   1.370   1_455 S
C1702  C1941   1.536   1_455 S
C1703  C1706   1.476   .     S
C1703  C1026   1.373   1_565 S
C1703  C1039   1.548   1_565 S
C1704  C1705   1.433   .     S
C1705  O1803   1.274   .     A
C1705  O1797   1.265   .     A
C1706  O1804   1.283   .     A
C1706  O1798   1.276   .     A
C1707  C1712   1.426   .     A
C1707  C701    1.427   1_556 S
C1707  C714    1.526   1_556 S
C1708  O1793   1.273   .     A
C1708  O1795   1.275   .     A
C1708  C1711   1.449   .     S
C1709  O1794   1.298   .     A
C1709  O1796   1.284   .     A
C1712  C1726   1.529   .     S
C1713  C1714   1.532   .     S
C1713  H1784   1.104   .     S
C1713  H1773   1.112   .     S
C1714  H1751   1.107   .     S
C1714  H1762   1.110   .     S
C1714  H1740   1.110   .     S
C1715  H1791   1.109   .     S
C1715  H1741   1.112   .     S
C1715  C1815   1.536   .     S
C1715  C1829   1.536   .     S
C1716  H1789   1.111   .     S
C1716  H1788   1.110   .     S
C1716  C1941   1.536   1_455 S
C1716  H2016   1.110   1_455 S
C1717  H1745   1.111   .     S
C1717  H1746   1.112   .     S
C1718  C1728   1.534   .     S
C1719  H1743   1.111   .     S
C1719  H1742   1.111   .     S
C1719  C1039   1.529   1_565 S
C1719  H1066   1.111   1_565 S
C1720  H1752   1.112   .     S
C1720  H1750   1.111   .     S
C1720  C1026   1.538   1_565 S
C1720  C1043   1.535   1_565 S
C1721  H1749   1.111   .     S
C1721  H1747   1.110   .     S
C1721  H1748   1.111   .     S
C1722  H1756   1.107   .     S
C1722  H1757   1.101   .     S
C1722  C1738   1.516   .     S
C1722  C1723   1.532   .     S
C1723  H1755   1.110   .     S
C1723  H1754   1.108   .     S
C1723  H1753   1.111   .     S
C1724  C1725   1.537   .     S
C1724  H1761   1.107   .     S
C1724  C693    1.533   1_556 S
C1724  H746    1.108   1_556 S
C1725  H1759   1.111   .     S
C1725  H1760   1.111   .     S
C1725  H741    1.110   1_556 S
C1726  H1768   1.106   .     S
C1726  H1769   1.110   .     S
C1726  C1727   1.531   .     S
C1727  H1767   1.111   .     S
C1727  H1766   1.111   .     S
C1727  H1765   1.105   .     S
C1728  H1774   1.103   .     S
C1728  H1775   1.102   .     S
C1728  C1730   1.529   .     S
C1729  C1735   1.408   .     A
C1729  C701    1.426   1_556 S
C1729  C719    1.426   1_556 S
C1730  H1770   1.111   .     S
C1730  H1772   1.110   .     S
C1731  C1732   1.531   .     S
C1731  H1780   1.107   .     S
C1732  H1776   1.110   .     S
C1732  H1777   1.110   .     S
C1732  H1778   1.109   .     S
C1733  C1734   1.529   .     S
C1733  H1787   1.112   .     S
C1733  H1786   1.111   .     S
C1733  C1927   1.547   1_455 S
C1734  H1785   1.111   .     S
C1734  H2008   1.110   1_455 S
C1734  H2009   1.111   1_455 S
C1735  C1739   1.411   .     A
C1737  C1738   1.413   .     A
C1737  C693    1.440   1_556 S
C1737  C719    1.428   1_556 S
C1738  C1739   1.394   .     A
C1739  H1781   1.078   .     S
H1771  C713    1.111   1_556 S
H1779  C714    1.104   1_556 S
H1782  C1847   1.110   .     S
H1783  C1847   1.111   .     S
H1790  C1829   1.110   .     S
O1792  Zn1806  1.953   .     S
O1792  Zn1807  1.931   .     S
O1792  Zn1808  1.951   .     S
O1792  Zn1805  1.943   .     S
O1793  Zn1806  1.925   .     S
O1794  Zn1808  1.929   .     S
O1795  Zn1807  1.936   .     S
O1796  Zn1805  1.933   .     S
O1797  Zn1805  1.938   .     S
O1798  Zn1808  1.930   .     S
O1799  Zn1806  1.936   .     S
O1800  Zn1807  1.938   .     S
O1801  Zn1808  1.937   .     S
O1802  Zn1805  1.932   .     S
O1803  Zn1806  1.933   .     S
O1804  Zn1807  1.940   .     S
C1809  O1914   1.278   .     A
C1809  O1912   1.265   .     A
C1809  C1815   1.432   .     S
C1810  C1849   1.391   .     A
C1810  H1877   1.083   .     S
C1810  C1824   1.383   .     A
C1811  C1826   1.527   .     S
C1811  C1823   1.422   .     A
C1811  C1824   1.408   .     A
C1812  O1915   1.274   .     A
C1812  C1814   1.474   .     S
C1812  O1913   1.279   .     A
C1813  C1825   1.418   .     A
C1813  C1822   1.498   .     S
C1813  C1848   1.423   .     A
C1814  C1928   1.370   .     S
C1814  C1959   1.547   .     S
C1816  C1819   1.476   .     S
C1816  C1139   1.373   1_565 S
C1816  C1152   1.548   1_565 S
C1817  C1818   1.433   .     S
C1818  O1916   1.274   .     A
C1818  O1910   1.265   .     A
C1819  O1917   1.283   .     A
C1819  O1911   1.276   .     A
C1820  C1825   1.426   .     A
C1820  C814    1.427   1_556 S
C1820  C827    1.526   1_556 S
C1821  O1906   1.273   .     A
C1821  O1908   1.275   .     A
C1821  C1824   1.449   .     S
C1822  O1907   1.298   .     A
C1822  O1909   1.284   .     A
C1825  C1839   1.529   .     S
C1826  C1827   1.532   .     S
C1826  H1897   1.104   .     S
C1826  H1886   1.112   .     S
C1827  H1864   1.107   .     S
C1827  H1875   1.110   .     S
C1827  H1853   1.110   .     S
C1828  H1904   1.109   .     S
C1828  H1854   1.112   .     S
C1828  C1928   1.536   .     S
C1828  C1942   1.536   .     S
C1829  H1902   1.111   .     S
C1829  H1901   1.110   .     S
C1830  H1858   1.111   .     S
C1830  H1859   1.112   .     S
C1831  C1841   1.534   .     S
C1832  H1856   1.111   .     S
C1832  H1855   1.111   .     S
C1832  C1152   1.529   1_565 S
C1832  H1179   1.111   1_565 S
C1833  H1865   1.112   .     S
C1833  H1863   1.111   .     S
C1833  C1139   1.538   1_565 S
C1833  C1156   1.535   1_565 S
C1834  H1862   1.111   .     S
C1834  H1860   1.110   .     S
C1834  H1861   1.111   .     S
C1835  H1869   1.107   .     S
C1835  H1870   1.101   .     S
C1835  C1851   1.516   .     S
C1835  C1836   1.532   .     S
C1836  H1868   1.110   .     S
C1836  H1867   1.108   .     S
C1836  H1866   1.111   .     S
C1837  C1838   1.537   .     S
C1837  H1874   1.107   .     S
C1837  C806    1.533   1_556 S
C1837  H859    1.108   1_556 S
C1838  H1872   1.111   .     S
C1838  H1873   1.111   .     S
C1838  H854    1.110   1_556 S
C1839  H1881   1.106   .     S
C1839  H1882   1.110   .     S
C1839  C1840   1.531   .     S
C1840  H1880   1.111   .     S
C1840  H1879   1.111   .     S
C1840  H1878   1.105   .     S
C1841  H1887   1.103   .     S
C1841  H1888   1.102   .     S
C1841  C1843   1.529   .     S
C1842  C1848   1.408   .     A
C1842  C814    1.426   1_556 S
C1842  C832    1.426   1_556 S
C1843  H1883   1.111   .     S
C1843  H1885   1.110   .     S
C1844  C1845   1.531   .     S
C1844  H1893   1.107   .     S
C1845  H1889   1.110   .     S
C1845  H1890   1.110   .     S
C1845  H1891   1.109   .     S
C1846  C1847   1.529   .     S
C1846  H1900   1.112   .     S
C1846  H1899   1.111   .     S
C1847  H1898   1.111   .     S
C1848  C1852   1.411   .     A
C1850  C1851   1.413   .     A
C1850  C806    1.440   1_556 S
C1850  C832    1.428   1_556 S
C1851  C1852   1.394   .     A
C1852  H1894   1.078   .     S
H1884  C826    1.111   1_556 S
H1892  C827    1.104   1_556 S
H1895  C1960   1.110   .     S
H1896  C1960   1.111   .     S
H1903  C1942   1.110   .     S
O1905  Zn1919  1.953   .     S
O1905  Zn1920  1.931   .     S
O1905  Zn1921  1.951   .     S
O1905  Zn1918  1.943   .     S
O1906  Zn1919  1.925   .     S
O1907  Zn1921  1.929   .     S
O1908  Zn1920  1.936   .     S
O1909  Zn1918  1.933   .     S
O1910  Zn1918  1.938   .     S
O1911  Zn1921  1.930   .     S
O1912  Zn1919  1.936   .     S
O1913  Zn1920  1.938   .     S
O1914  Zn1921  1.937   .     S
O1915  Zn1918  1.932   .     S
O1916  Zn1919  1.933   .     S
O1917  Zn1920  1.940   .     S
C1922  O2027   1.278   .     A
C1922  O2025   1.265   .     A
C1922  C1928   1.432   .     S
C1923  C1962   1.391   .     A
C1923  H1990   1.083   .     S
C1923  C1937   1.383   .     A
C1924  C1939   1.527   .     S
C1924  C1936   1.422   .     A
C1924  C1937   1.408   .     A
C1925  O2028   1.274   .     A
C1925  C1927   1.474   .     S
C1925  O2026   1.279   .     A
C1926  C1938   1.418   .     A
C1926  C1935   1.498   .     S
C1926  C1961   1.423   .     A
C1927  C1702   1.370   1_655 S
C1927  C1733   1.547   1_655 S
C1929  C1932   1.476   .     S
C1929  C1252   1.373   1_565 S
C1929  C1265   1.548   1_565 S
C1930  C1931   1.433   .     S
C1931  O2029   1.274   .     A
C1931  O2023   1.265   .     A
C1932  O2030   1.283   .     A
C1932  O2024   1.276   .     A
C1933  C1938   1.426   .     A
C1933  C927    1.427   1_556 S
C1933  C940    1.526   1_556 S
C1934  O2019   1.273   .     A
C1934  O2021   1.275   .     A
C1934  C1937   1.449   .     S
C1935  O2020   1.298   .     A
C1935  O2022   1.284   .     A
C1938  C1952   1.529   .     S
C1939  C1940   1.532   .     S
C1939  H2010   1.104   .     S
C1939  H1999   1.112   .     S
C1940  H1977   1.107   .     S
C1940  H1988   1.110   .     S
C1940  H1966   1.110   .     S
C1941  H2017   1.109   .     S
C1941  H1967   1.112   .     S
C1941  C1702   1.536   1_655 S
C1941  C1716   1.536   1_655 S
C1942  H2015   1.111   .     S
C1942  H2014   1.110   .     S
C1943  H1971   1.111   .     S
C1943  H1972   1.112   .     S
C1944  C1954   1.534   .     S
C1945  H1969   1.111   .     S
C1945  H1968   1.111   .     S
C1945  C1265   1.529   1_565 S
C1945  H1292   1.111   1_565 S
C1946  H1978   1.112   .     S
C1946  H1976   1.111   .     S
C1946  C1252   1.538   1_565 S
C1946  C1269   1.535   1_565 S
C1947  H1975   1.111   .     S
C1947  H1973   1.110   .     S
C1947  H1974   1.111   .     S
C1948  H1982   1.107   .     S
C1948  H1983   1.101   .     S
C1948  C1964   1.516   .     S
C1948  C1949   1.532   .     S
C1949  H1981   1.110   .     S
C1949  H1980   1.108   .     S
C1949  H1979   1.111   .     S
C1950  C1951   1.537   .     S
C1950  H1987   1.107   .     S
C1950  C919    1.533   1_556 S
C1950  H972    1.108   1_556 S
C1951  H1985   1.111   .     S
C1951  H1986   1.111   .     S
C1951  H967    1.110   1_556 S
C1952  H1994   1.106   .     S
C1952  H1995   1.110   .     S
C1952  C1953   1.531   .     S
C1953  H1993   1.111   .     S
C1953  H1992   1.111   .     S
C1953  H1991   1.105   .     S
C1954  H2000   1.103   .     S
C1954  H2001   1.102   .     S
C1954  C1956   1.529   .     S
C1955  C1961   1.408   .     A
C1955  C927    1.426   1_556 S
C1955  C945    1.426   1_556 S
C1956  H1996   1.111   .     S
C1956  H1998   1.110   .     S
C1957  C1958   1.531   .     S
C1957  H2006   1.107   .     S
C1958  H2002   1.110   .     S
C1958  H2003   1.110   .     S
C1958  H2004   1.109   .     S
C1959  C1960   1.529   .     S
C1959  H2013   1.112   .     S
C1959  H2012   1.111   .     S
C1960  H2011   1.111   .     S
C1961  C1965   1.411   .     A
C1963  C1964   1.413   .     A
C1963  C919    1.440   1_556 S
C1963  C945    1.428   1_556 S
C1964  C1965   1.394   .     A
C1965  H2007   1.078   .     S
H1997  C939    1.111   1_556 S
H2005  C940    1.104   1_556 S
H2008  C1734   1.110   1_655 S
H2009  C1734   1.111   1_655 S
H2016  C1716   1.110   1_655 S
O2018  Zn2032  1.953   .     S
O2018  Zn2033  1.931   .     S
O2018  Zn2034  1.951   .     S
O2018  Zn2031  1.943   .     S
O2019  Zn2032  1.925   .     S
O2020  Zn2034  1.929   .     S
O2021  Zn2033  1.936   .     S
O2022  Zn2031  1.933   .     S
O2023  Zn2031  1.938   .     S
O2024  Zn2034  1.930   .     S
O2025  Zn2032  1.936   .     S
O2026  Zn2033  1.938   .     S
O2027  Zn2034  1.937   .     S
O2028  Zn2031  1.932   .     S
O2029  Zn2032  1.933   .     S
O2030  Zn2033  1.940   .     S
