data_str_m2_o10_o16_pcu_sym.6
_audit_creation_date              2020-01-03
_audit_creation_method            'Materials Studio'
_symmetry_space_group_name_H-M    'P1'
_symmetry_Int_Tables_number       1
_symmetry_cell_setting            triclinic
loop_
_symmetry_equiv_pos_as_xyz
  x,y,z
_cell_length_a                    22.4098
_cell_length_b                    26.1204
_cell_length_c                    26.9880
_cell_angle_alpha                 94.7383
_cell_angle_beta                  78.3680
_cell_angle_gamma                 103.1187
loop_
_atom_site_label
_atom_site_type_symbol
_atom_site_fract_x
_atom_site_fract_y
_atom_site_fract_z
_atom_site_U_iso_or_equiv
_atom_site_adp_type
_atom_site_occupancy
C1     C     0.18175   0.26669   0.25125   0.00000  Uiso   1.00
C2     C     0.11593   0.14056   0.39930   0.00000  Uiso   1.00
C3     C     0.18923   0.32263   0.25308   0.00000  Uiso   1.00
C4     C     0.13354   0.15702   0.34595   0.00000  Uiso   1.00
C5     C     0.14528   0.01104   0.24210   0.00000  Uiso   1.00
C6     C     0.15215   0.06675   0.24704   0.00000  Uiso   1.00
C7     C     0.19971   0.16951   0.15341   0.00000  Uiso   1.00
C8     C     0.29167   0.20699   0.02502   0.00000  Uiso   1.00
C9     C     0.21801   0.17251   0.09866   0.00000  Uiso   1.00
C10    C     0.05323   0.11987   0.41922   0.00000  Uiso   1.00
C11    C     0.03379   0.11180   0.47078   0.00000  Uiso   1.00
C12    C     0.14067   0.14348   0.48462   0.00000  Uiso   1.00
C13    C     0.07594   0.12714   0.00353   0.00000  Uiso   1.00
C14    C     0.32152   0.25184   0.31662   0.00000  Uiso   1.00
C15    C     0.13959   0.06076   0.08210   0.00000  Uiso   1.00
C16    C     0.16101   0.14610   0.43139   0.00000  Uiso   1.00
C17    C     0.18628   0.15880   0.01640   0.00000  Uiso   1.00
C18    C     0.24789   0.18459   0.49465   0.00000  Uiso   1.00
C19    C     0.26736   0.18182   0.44260   0.00000  Uiso   1.00
C20    C     0.22609   0.15505   0.41278   0.00000  Uiso   1.00
C21    C     0.17456   0.14785   0.06820   0.00000  Uiso   1.00
C22    C     0.27613   0.20221   0.07704   0.00000  Uiso   1.00
Cu23   Cu    0.10710   0.16105   0.24435   0.00000  Uiso   1.00
Cu24   Cu    0.22623   0.17228   0.25565   0.00000  Uiso   1.00
F25    F     0.09441   0.31569   0.22460   0.00000  Uiso   1.00
F26    F     0.30623   0.09147   0.48962   0.00000  Uiso   1.00
F27    F     0.25056   0.12955   0.37033   0.00000  Uiso   1.00
H28    H     0.30979   0.22094   0.10027   0.00000  Uiso   1.00
H29    H     0.01753   0.27469   0.34288   0.00000  Uiso   1.00
H30    H     0.09851   0.03065   0.09876   0.00000  Uiso   1.00
H31    H     0.17832   0.05973   0.10192   0.00000  Uiso   1.00
H32    H     0.15228   0.04984   0.04117   0.00000  Uiso   1.00
H33    H     0.33220   0.13195   0.20640   0.00000  Uiso   1.00
H34    H     0.31618   0.19451   0.42577   0.00000  Uiso   1.00
H35    H     0.00499   0.22734   0.00835   0.00000  Uiso   1.00
H36    H     0.01895   0.11087   0.39492   0.00000  Uiso   1.00
H37    H     0.05609   0.12700   0.04332   0.00000  Uiso   1.00
H38    H     0.23093   0.01295   0.26493   0.00000  Uiso   1.00
H39    H     0.27249   0.24686   0.33662   0.00000  Uiso   1.00
H40    H     0.33056   0.27544   0.28249   0.00000  Uiso   1.00
N41    N     0.31574   0.18074   0.26416   0.00000  Uiso   1.00
N42    N     0.01759   0.15259   0.23584   0.00000  Uiso   1.00
O43    O     0.12797   0.23807   0.24633   0.00000  Uiso   1.00
O44    O     0.12334   0.11030   0.08902   0.00000  Uiso   1.00
O45    O     0.22858   0.24755   0.25586   0.00000  Uiso   1.00
O46    O     0.09181   0.15960   0.31839   0.00000  Uiso   1.00
O47    O     0.19242   0.16908   0.32793   0.00000  Uiso   1.00
O48    O     0.10476   0.08578   0.24413   0.00000  Uiso   1.00
O49    O     0.20536   0.09526   0.25367   0.00000  Uiso   1.00
O50    O     0.14092   0.16425   0.17207   0.00000  Uiso   1.00
O51    O     0.24152   0.17373   0.18161   0.00000  Uiso   1.00
O52    O     0.00533   0.20318   0.30514   0.00000  Uiso   1.00
C53    C     0.51508   0.26669   0.25125   0.00000  Uiso   1.00
C54    C     0.44926   0.14056   0.39930   0.00000  Uiso   1.00
C55    C     0.52257   0.32263   0.25308   0.00000  Uiso   1.00
C56    C     0.46687   0.15702   0.34595   0.00000  Uiso   1.00
C57    C     0.47861   0.01104   0.24210   0.00000  Uiso   1.00
C58    C     0.48548   0.06675   0.24704   0.00000  Uiso   1.00
C59    C     0.53304   0.16951   0.15341   0.00000  Uiso   1.00
C60    C     0.62500   0.20699   0.02502   0.00000  Uiso   1.00
C61    C     0.55134   0.17251   0.09866   0.00000  Uiso   1.00
C62    C     0.38657   0.11987   0.41922   0.00000  Uiso   1.00
C63    C     0.36713   0.11180   0.47078   0.00000  Uiso   1.00
C64    C     0.47400   0.14348   0.48462   0.00000  Uiso   1.00
C65    C     0.40927   0.12714   0.00353   0.00000  Uiso   1.00
C66    C     0.65486   0.25184   0.31662   0.00000  Uiso   1.00
C67    C     0.47292   0.06076   0.08210   0.00000  Uiso   1.00
C68    C     0.49435   0.14610   0.43139   0.00000  Uiso   1.00
C69    C     0.51962   0.15880   0.01640   0.00000  Uiso   1.00
C70    C     0.58122   0.18459   0.49465   0.00000  Uiso   1.00
C71    C     0.60069   0.18182   0.44260   0.00000  Uiso   1.00
C72    C     0.55942   0.15505   0.41278   0.00000  Uiso   1.00
C73    C     0.50789   0.14785   0.06820   0.00000  Uiso   1.00
C74    C     0.60946   0.20221   0.07704   0.00000  Uiso   1.00
Cu75   Cu    0.44043   0.16105   0.24435   0.00000  Uiso   1.00
Cu76   Cu    0.55957   0.17228   0.25565   0.00000  Uiso   1.00
F77    F     0.42775   0.31569   0.22460   0.00000  Uiso   1.00
F78    F     0.63956   0.09147   0.48962   0.00000  Uiso   1.00
F79    F     0.58389   0.12955   0.37033   0.00000  Uiso   1.00
H80    H     0.64312   0.22094   0.10027   0.00000  Uiso   1.00
H81    H     0.35086   0.27469   0.34288   0.00000  Uiso   1.00
H82    H     0.43184   0.03065   0.09876   0.00000  Uiso   1.00
H83    H     0.51165   0.05973   0.10192   0.00000  Uiso   1.00
H84    H     0.48561   0.04984   0.04117   0.00000  Uiso   1.00
H85    H     0.66553   0.13195   0.20640   0.00000  Uiso   1.00
H86    H     0.64951   0.19451   0.42577   0.00000  Uiso   1.00
H87    H     0.33832   0.22734   0.00835   0.00000  Uiso   1.00
H88    H     0.35229   0.11087   0.39492   0.00000  Uiso   1.00
H89    H     0.38943   0.12700   0.04332   0.00000  Uiso   1.00
H90    H     0.56427   0.01295   0.26493   0.00000  Uiso   1.00
H91    H     0.60582   0.24686   0.33662   0.00000  Uiso   1.00
H92    H     0.66389   0.27544   0.28249   0.00000  Uiso   1.00
N93    N     0.64908   0.18074   0.26416   0.00000  Uiso   1.00
N94    N     0.35092   0.15259   0.23584   0.00000  Uiso   1.00
O95    O     0.46131   0.23807   0.24633   0.00000  Uiso   1.00
O96    O     0.45668   0.11030   0.08902   0.00000  Uiso   1.00
O97    O     0.56191   0.24755   0.25586   0.00000  Uiso   1.00
O98    O     0.42515   0.15960   0.31839   0.00000  Uiso   1.00
O99    O     0.52575   0.16908   0.32793   0.00000  Uiso   1.00
O100   O     0.43809   0.08578   0.24413   0.00000  Uiso   1.00
O101   O     0.53869   0.09526   0.25367   0.00000  Uiso   1.00
O102   O     0.47425   0.16425   0.17207   0.00000  Uiso   1.00
O103   O     0.57485   0.17373   0.18161   0.00000  Uiso   1.00
O104   O     0.33866   0.20318   0.30514   0.00000  Uiso   1.00
C105   C     0.84842   0.26669   0.25125   0.00000  Uiso   1.00
C106   C     0.78259   0.14056   0.39930   0.00000  Uiso   1.00
C107   C     0.85590   0.32263   0.25308   0.00000  Uiso   1.00
C108   C     0.80021   0.15702   0.34595   0.00000  Uiso   1.00
C109   C     0.81194   0.01104   0.24210   0.00000  Uiso   1.00
C110   C     0.81882   0.06675   0.24704   0.00000  Uiso   1.00
C111   C     0.86638   0.16951   0.15341   0.00000  Uiso   1.00
C112   C     0.95834   0.20699   0.02502   0.00000  Uiso   1.00
C113   C     0.88467   0.17251   0.09866   0.00000  Uiso   1.00
C114   C     0.71990   0.11987   0.41922   0.00000  Uiso   1.00
C115   C     0.70046   0.11180   0.47078   0.00000  Uiso   1.00
C116   C     0.80733   0.14348   0.48462   0.00000  Uiso   1.00
C117   C     0.74260   0.12714   0.00353   0.00000  Uiso   1.00
C118   C     0.98819   0.25184   0.31662   0.00000  Uiso   1.00
C119   C     0.80626   0.06076   0.08210   0.00000  Uiso   1.00
C120   C     0.82768   0.14610   0.43139   0.00000  Uiso   1.00
C121   C     0.85295   0.15880   0.01640   0.00000  Uiso   1.00
C122   C     0.91456   0.18459   0.49465   0.00000  Uiso   1.00
C123   C     0.93403   0.18182   0.44260   0.00000  Uiso   1.00
C124   C     0.89276   0.15505   0.41278   0.00000  Uiso   1.00
C125   C     0.84123   0.14785   0.06820   0.00000  Uiso   1.00
C126   C     0.94280   0.20221   0.07704   0.00000  Uiso   1.00
Cu127  Cu    0.77377   0.16105   0.24435   0.00000  Uiso   1.00
Cu128  Cu    0.89290   0.17228   0.25565   0.00000  Uiso   1.00
F129   F     0.76108   0.31569   0.22460   0.00000  Uiso   1.00
F130   F     0.97289   0.09147   0.48962   0.00000  Uiso   1.00
F131   F     0.91723   0.12955   0.37033   0.00000  Uiso   1.00
H132   H     0.97646   0.22094   0.10027   0.00000  Uiso   1.00
H133   H     0.68419   0.27469   0.34288   0.00000  Uiso   1.00
H134   H     0.76517   0.03065   0.09876   0.00000  Uiso   1.00
H135   H     0.84498   0.05973   0.10192   0.00000  Uiso   1.00
H136   H     0.81895   0.04984   0.04117   0.00000  Uiso   1.00
H137   H     0.99886   0.13195   0.20640   0.00000  Uiso   1.00
H138   H     0.98285   0.19451   0.42577   0.00000  Uiso   1.00
H139   H     0.67166   0.22734   0.00835   0.00000  Uiso   1.00
H140   H     0.68562   0.11087   0.39492   0.00000  Uiso   1.00
H141   H     0.72276   0.12700   0.04332   0.00000  Uiso   1.00
H142   H     0.89760   0.01295   0.26493   0.00000  Uiso   1.00
H143   H     0.93916   0.24686   0.33662   0.00000  Uiso   1.00
H144   H     0.99722   0.27544   0.28249   0.00000  Uiso   1.00
N145   N     0.98241   0.18074   0.26416   0.00000  Uiso   1.00
N146   N     0.68426   0.15259   0.23584   0.00000  Uiso   1.00
O147   O     0.79464   0.23807   0.24633   0.00000  Uiso   1.00
O148   O     0.79001   0.11030   0.08902   0.00000  Uiso   1.00
O149   O     0.89524   0.24755   0.25586   0.00000  Uiso   1.00
O150   O     0.75848   0.15960   0.31839   0.00000  Uiso   1.00
O151   O     0.85908   0.16908   0.32793   0.00000  Uiso   1.00
O152   O     0.77142   0.08578   0.24413   0.00000  Uiso   1.00
O153   O     0.87203   0.09526   0.25367   0.00000  Uiso   1.00
O154   O     0.80758   0.16425   0.17207   0.00000  Uiso   1.00
O155   O     0.90819   0.17373   0.18161   0.00000  Uiso   1.00
O156   O     0.67200   0.20318   0.30514   0.00000  Uiso   1.00
C157   C     0.18175   0.60002   0.25125   0.00000  Uiso   1.00
C158   C     0.11593   0.47389   0.39930   0.00000  Uiso   1.00
C159   C     0.18923   0.65596   0.25308   0.00000  Uiso   1.00
C160   C     0.13354   0.49036   0.34595   0.00000  Uiso   1.00
C161   C     0.14528   0.34437   0.24210   0.00000  Uiso   1.00
C162   C     0.15215   0.40008   0.24704   0.00000  Uiso   1.00
C163   C     0.19971   0.50284   0.15341   0.00000  Uiso   1.00
C164   C     0.29167   0.54033   0.02502   0.00000  Uiso   1.00
C165   C     0.21801   0.50584   0.09866   0.00000  Uiso   1.00
C166   C     0.05323   0.45321   0.41922   0.00000  Uiso   1.00
C167   C     0.03379   0.44513   0.47078   0.00000  Uiso   1.00
C168   C     0.14067   0.47681   0.48462   0.00000  Uiso   1.00
C169   C     0.07594   0.46047   0.00353   0.00000  Uiso   1.00
C170   C     0.32152   0.58517   0.31662   0.00000  Uiso   1.00
C171   C     0.13959   0.39409   0.08210   0.00000  Uiso   1.00
C172   C     0.16101   0.47944   0.43139   0.00000  Uiso   1.00
C173   C     0.18628   0.49214   0.01640   0.00000  Uiso   1.00
C174   C     0.24789   0.51793   0.49465   0.00000  Uiso   1.00
C175   C     0.26736   0.51515   0.44260   0.00000  Uiso   1.00
C176   C     0.22609   0.48839   0.41278   0.00000  Uiso   1.00
C177   C     0.17456   0.48118   0.06820   0.00000  Uiso   1.00
C178   C     0.27613   0.53554   0.07704   0.00000  Uiso   1.00
Cu179  Cu    0.10710   0.49439   0.24435   0.00000  Uiso   1.00
Cu180  Cu    0.22623   0.50561   0.25565   0.00000  Uiso   1.00
F181   F     0.09441   0.64902   0.22460   0.00000  Uiso   1.00
F182   F     0.30623   0.42480   0.48962   0.00000  Uiso   1.00
F183   F     0.25056   0.46288   0.37033   0.00000  Uiso   1.00
H184   H     0.30979   0.55427   0.10027   0.00000  Uiso   1.00
H185   H     0.01753   0.60802   0.34288   0.00000  Uiso   1.00
H186   H     0.09851   0.36398   0.09876   0.00000  Uiso   1.00
H187   H     0.17832   0.39307   0.10192   0.00000  Uiso   1.00
H188   H     0.15228   0.38318   0.04117   0.00000  Uiso   1.00
H189   H     0.33220   0.46528   0.20640   0.00000  Uiso   1.00
H190   H     0.31618   0.52784   0.42577   0.00000  Uiso   1.00
H191   H     0.00499   0.56067   0.00835   0.00000  Uiso   1.00
H192   H     0.01895   0.44420   0.39492   0.00000  Uiso   1.00
H193   H     0.05609   0.46033   0.04332   0.00000  Uiso   1.00
H194   H     0.23093   0.34628   0.26493   0.00000  Uiso   1.00
H195   H     0.27249   0.58020   0.33662   0.00000  Uiso   1.00
H196   H     0.33056   0.60877   0.28249   0.00000  Uiso   1.00
N197   N     0.31574   0.51407   0.26416   0.00000  Uiso   1.00
N198   N     0.01759   0.48593   0.23584   0.00000  Uiso   1.00
O199   O     0.12797   0.57141   0.24633   0.00000  Uiso   1.00
O200   O     0.12334   0.44364   0.08902   0.00000  Uiso   1.00
O201   O     0.22858   0.58089   0.25586   0.00000  Uiso   1.00
O202   O     0.09181   0.49293   0.31839   0.00000  Uiso   1.00
O203   O     0.19242   0.50241   0.32793   0.00000  Uiso   1.00
O204   O     0.10476   0.41911   0.24413   0.00000  Uiso   1.00
O205   O     0.20536   0.42859   0.25367   0.00000  Uiso   1.00
O206   O     0.14092   0.49759   0.17207   0.00000  Uiso   1.00
O207   O     0.24152   0.50707   0.18161   0.00000  Uiso   1.00
O208   O     0.00533   0.53651   0.30514   0.00000  Uiso   1.00
C209   C     0.51508   0.60002   0.25125   0.00000  Uiso   1.00
C210   C     0.44926   0.47389   0.39930   0.00000  Uiso   1.00
C211   C     0.52257   0.65596   0.25308   0.00000  Uiso   1.00
C212   C     0.46687   0.49036   0.34595   0.00000  Uiso   1.00
C213   C     0.47861   0.34437   0.24210   0.00000  Uiso   1.00
C214   C     0.48548   0.40008   0.24704   0.00000  Uiso   1.00
C215   C     0.53304   0.50284   0.15341   0.00000  Uiso   1.00
C216   C     0.62500   0.54033   0.02502   0.00000  Uiso   1.00
C217   C     0.55134   0.50584   0.09866   0.00000  Uiso   1.00
C218   C     0.38657   0.45321   0.41922   0.00000  Uiso   1.00
C219   C     0.36713   0.44513   0.47078   0.00000  Uiso   1.00
C220   C     0.47400   0.47681   0.48462   0.00000  Uiso   1.00
C221   C     0.40927   0.46047   0.00353   0.00000  Uiso   1.00
C222   C     0.65486   0.58517   0.31662   0.00000  Uiso   1.00
C223   C     0.47292   0.39409   0.08210   0.00000  Uiso   1.00
C224   C     0.49435   0.47944   0.43139   0.00000  Uiso   1.00
C225   C     0.51962   0.49214   0.01640   0.00000  Uiso   1.00
C226   C     0.58122   0.51793   0.49465   0.00000  Uiso   1.00
C227   C     0.60069   0.51515   0.44260   0.00000  Uiso   1.00
C228   C     0.55942   0.48839   0.41278   0.00000  Uiso   1.00
C229   C     0.50789   0.48118   0.06820   0.00000  Uiso   1.00
C230   C     0.60946   0.53554   0.07704   0.00000  Uiso   1.00
Cu231  Cu    0.44043   0.49439   0.24435   0.00000  Uiso   1.00
Cu232  Cu    0.55957   0.50561   0.25565   0.00000  Uiso   1.00
F233   F     0.42775   0.64902   0.22460   0.00000  Uiso   1.00
F234   F     0.63956   0.42480   0.48962   0.00000  Uiso   1.00
F235   F     0.58389   0.46288   0.37033   0.00000  Uiso   1.00
H236   H     0.64312   0.55427   0.10027   0.00000  Uiso   1.00
H237   H     0.35086   0.60802   0.34288   0.00000  Uiso   1.00
H238   H     0.43184   0.36398   0.09876   0.00000  Uiso   1.00
H239   H     0.51165   0.39307   0.10192   0.00000  Uiso   1.00
H240   H     0.48561   0.38318   0.04117   0.00000  Uiso   1.00
H241   H     0.66553   0.46528   0.20640   0.00000  Uiso   1.00
H242   H     0.64951   0.52784   0.42577   0.00000  Uiso   1.00
H243   H     0.33832   0.56067   0.00835   0.00000  Uiso   1.00
H244   H     0.35229   0.44420   0.39492   0.00000  Uiso   1.00
H245   H     0.38943   0.46033   0.04332   0.00000  Uiso   1.00
H246   H     0.56427   0.34628   0.26493   0.00000  Uiso   1.00
H247   H     0.60582   0.58020   0.33662   0.00000  Uiso   1.00
H248   H     0.66389   0.60877   0.28249   0.00000  Uiso   1.00
N249   N     0.64908   0.51407   0.26416   0.00000  Uiso   1.00
N250   N     0.35092   0.48593   0.23584   0.00000  Uiso   1.00
O251   O     0.46131   0.57141   0.24633   0.00000  Uiso   1.00
O252   O     0.45668   0.44364   0.08902   0.00000  Uiso   1.00
O253   O     0.56191   0.58089   0.25586   0.00000  Uiso   1.00
O254   O     0.42515   0.49293   0.31839   0.00000  Uiso   1.00
O255   O     0.52575   0.50241   0.32793   0.00000  Uiso   1.00
O256   O     0.43809   0.41911   0.24413   0.00000  Uiso   1.00
O257   O     0.53869   0.42859   0.25367   0.00000  Uiso   1.00
O258   O     0.47425   0.49759   0.17207   0.00000  Uiso   1.00
O259   O     0.57485   0.50707   0.18161   0.00000  Uiso   1.00
O260   O     0.33866   0.53651   0.30514   0.00000  Uiso   1.00
C261   C     0.84842   0.60002   0.25125   0.00000  Uiso   1.00
C262   C     0.78259   0.47389   0.39930   0.00000  Uiso   1.00
C263   C     0.85590   0.65596   0.25308   0.00000  Uiso   1.00
C264   C     0.80021   0.49036   0.34595   0.00000  Uiso   1.00
C265   C     0.81194   0.34437   0.24210   0.00000  Uiso   1.00
C266   C     0.81882   0.40008   0.24704   0.00000  Uiso   1.00
C267   C     0.86638   0.50284   0.15341   0.00000  Uiso   1.00
C268   C     0.95834   0.54033   0.02502   0.00000  Uiso   1.00
C269   C     0.88467   0.50584   0.09866   0.00000  Uiso   1.00
C270   C     0.71990   0.45321   0.41922   0.00000  Uiso   1.00
C271   C     0.70046   0.44513   0.47078   0.00000  Uiso   1.00
C272   C     0.80733   0.47681   0.48462   0.00000  Uiso   1.00
C273   C     0.74260   0.46047   0.00353   0.00000  Uiso   1.00
C274   C     0.98819   0.58517   0.31662   0.00000  Uiso   1.00
C275   C     0.80626   0.39409   0.08210   0.00000  Uiso   1.00
C276   C     0.82768   0.47944   0.43139   0.00000  Uiso   1.00
C277   C     0.85295   0.49214   0.01640   0.00000  Uiso   1.00
C278   C     0.91456   0.51793   0.49465   0.00000  Uiso   1.00
C279   C     0.93403   0.51515   0.44260   0.00000  Uiso   1.00
C280   C     0.89276   0.48839   0.41278   0.00000  Uiso   1.00
C281   C     0.84123   0.48118   0.06820   0.00000  Uiso   1.00
C282   C     0.94280   0.53554   0.07704   0.00000  Uiso   1.00
Cu283  Cu    0.77377   0.49439   0.24435   0.00000  Uiso   1.00
Cu284  Cu    0.89290   0.50561   0.25565   0.00000  Uiso   1.00
F285   F     0.76108   0.64902   0.22460   0.00000  Uiso   1.00
F286   F     0.97289   0.42480   0.48962   0.00000  Uiso   1.00
F287   F     0.91723   0.46288   0.37033   0.00000  Uiso   1.00
H288   H     0.97646   0.55427   0.10027   0.00000  Uiso   1.00
H289   H     0.68419   0.60802   0.34288   0.00000  Uiso   1.00
H290   H     0.76517   0.36398   0.09876   0.00000  Uiso   1.00
H291   H     0.84498   0.39307   0.10192   0.00000  Uiso   1.00
H292   H     0.81895   0.38318   0.04117   0.00000  Uiso   1.00
H293   H     0.99886   0.46528   0.20640   0.00000  Uiso   1.00
H294   H     0.98285   0.52784   0.42577   0.00000  Uiso   1.00
H295   H     0.67166   0.56067   0.00835   0.00000  Uiso   1.00
H296   H     0.68562   0.44420   0.39492   0.00000  Uiso   1.00
H297   H     0.72276   0.46033   0.04332   0.00000  Uiso   1.00
H298   H     0.89760   0.34628   0.26493   0.00000  Uiso   1.00
H299   H     0.93916   0.58020   0.33662   0.00000  Uiso   1.00
H300   H     0.99722   0.60877   0.28249   0.00000  Uiso   1.00
N301   N     0.98241   0.51407   0.26416   0.00000  Uiso   1.00
N302   N     0.68426   0.48593   0.23584   0.00000  Uiso   1.00
O303   O     0.79464   0.57141   0.24633   0.00000  Uiso   1.00
O304   O     0.79001   0.44364   0.08902   0.00000  Uiso   1.00
O305   O     0.89524   0.58089   0.25586   0.00000  Uiso   1.00
O306   O     0.75848   0.49293   0.31839   0.00000  Uiso   1.00
O307   O     0.85908   0.50241   0.32793   0.00000  Uiso   1.00
O308   O     0.77142   0.41911   0.24413   0.00000  Uiso   1.00
O309   O     0.87203   0.42859   0.25367   0.00000  Uiso   1.00
O310   O     0.80758   0.49759   0.17207   0.00000  Uiso   1.00
O311   O     0.90819   0.50707   0.18161   0.00000  Uiso   1.00
O312   O     0.67200   0.53651   0.30514   0.00000  Uiso   1.00
C313   C     0.18175   0.93335   0.25125   0.00000  Uiso   1.00
C314   C     0.11593   0.80723   0.39930   0.00000  Uiso   1.00
C315   C     0.18923   0.98929   0.25308   0.00000  Uiso   1.00
C316   C     0.13354   0.82369   0.34595   0.00000  Uiso   1.00
C317   C     0.14528   0.67770   0.24210   0.00000  Uiso   1.00
C318   C     0.15215   0.73341   0.24704   0.00000  Uiso   1.00
C319   C     0.19971   0.83618   0.15341   0.00000  Uiso   1.00
C320   C     0.29167   0.87366   0.02502   0.00000  Uiso   1.00
C321   C     0.21801   0.83917   0.09866   0.00000  Uiso   1.00
C322   C     0.05323   0.78654   0.41922   0.00000  Uiso   1.00
C323   C     0.03379   0.77846   0.47078   0.00000  Uiso   1.00
C324   C     0.14067   0.81015   0.48462   0.00000  Uiso   1.00
C325   C     0.07594   0.79380   0.00353   0.00000  Uiso   1.00
C326   C     0.32152   0.91851   0.31662   0.00000  Uiso   1.00
C327   C     0.13959   0.72743   0.08210   0.00000  Uiso   1.00
C328   C     0.16101   0.81277   0.43139   0.00000  Uiso   1.00
C329   C     0.18628   0.82547   0.01640   0.00000  Uiso   1.00
C330   C     0.24789   0.85126   0.49465   0.00000  Uiso   1.00
C331   C     0.26736   0.84848   0.44260   0.00000  Uiso   1.00
C332   C     0.22609   0.82172   0.41278   0.00000  Uiso   1.00
C333   C     0.17456   0.81452   0.06820   0.00000  Uiso   1.00
C334   C     0.27613   0.86888   0.07704   0.00000  Uiso   1.00
Cu335  Cu    0.10710   0.82772   0.24435   0.00000  Uiso   1.00
Cu336  Cu    0.22623   0.83895   0.25565   0.00000  Uiso   1.00
F337   F     0.09441   0.98235   0.22460   0.00000  Uiso   1.00
F338   F     0.30623   0.75814   0.48962   0.00000  Uiso   1.00
F339   F     0.25056   0.79622   0.37033   0.00000  Uiso   1.00
H340   H     0.30979   0.88760   0.10027   0.00000  Uiso   1.00
H341   H     0.01753   0.94136   0.34288   0.00000  Uiso   1.00
H342   H     0.09851   0.69732   0.09876   0.00000  Uiso   1.00
H343   H     0.17832   0.72640   0.10192   0.00000  Uiso   1.00
H344   H     0.15228   0.71651   0.04117   0.00000  Uiso   1.00
H345   H     0.33220   0.79862   0.20640   0.00000  Uiso   1.00
H346   H     0.31618   0.86117   0.42577   0.00000  Uiso   1.00
H347   H     0.00499   0.89401   0.00835   0.00000  Uiso   1.00
H348   H     0.01895   0.77753   0.39492   0.00000  Uiso   1.00
H349   H     0.05609   0.79367   0.04332   0.00000  Uiso   1.00
H350   H     0.23093   0.67962   0.26493   0.00000  Uiso   1.00
H351   H     0.27249   0.91353   0.33662   0.00000  Uiso   1.00
H352   H     0.33056   0.94211   0.28249   0.00000  Uiso   1.00
N353   N     0.31574   0.84741   0.26416   0.00000  Uiso   1.00
N354   N     0.01759   0.81926   0.23584   0.00000  Uiso   1.00
O355   O     0.12797   0.90474   0.24633   0.00000  Uiso   1.00
O356   O     0.12334   0.77697   0.08902   0.00000  Uiso   1.00
O357   O     0.22858   0.91422   0.25586   0.00000  Uiso   1.00
O358   O     0.09181   0.82627   0.31839   0.00000  Uiso   1.00
O359   O     0.19242   0.83575   0.32793   0.00000  Uiso   1.00
O360   O     0.10476   0.75245   0.24413   0.00000  Uiso   1.00
O361   O     0.20536   0.76193   0.25367   0.00000  Uiso   1.00
O362   O     0.14092   0.83092   0.17207   0.00000  Uiso   1.00
O363   O     0.24152   0.84040   0.18161   0.00000  Uiso   1.00
O364   O     0.00533   0.86985   0.30514   0.00000  Uiso   1.00
C365   C     0.51508   0.93335   0.25125   0.00000  Uiso   1.00
C366   C     0.44926   0.80723   0.39930   0.00000  Uiso   1.00
C367   C     0.52257   0.98929   0.25308   0.00000  Uiso   1.00
C368   C     0.46687   0.82369   0.34595   0.00000  Uiso   1.00
C369   C     0.47861   0.67770   0.24210   0.00000  Uiso   1.00
C370   C     0.48548   0.73341   0.24704   0.00000  Uiso   1.00
C371   C     0.53304   0.83618   0.15341   0.00000  Uiso   1.00
C372   C     0.62500   0.87366   0.02502   0.00000  Uiso   1.00
C373   C     0.55134   0.83917   0.09866   0.00000  Uiso   1.00
C374   C     0.38657   0.78654   0.41922   0.00000  Uiso   1.00
C375   C     0.36713   0.77846   0.47078   0.00000  Uiso   1.00
C376   C     0.47400   0.81015   0.48462   0.00000  Uiso   1.00
C377   C     0.40927   0.79380   0.00353   0.00000  Uiso   1.00
C378   C     0.65486   0.91851   0.31662   0.00000  Uiso   1.00
C379   C     0.47292   0.72743   0.08210   0.00000  Uiso   1.00
C380   C     0.49435   0.81277   0.43139   0.00000  Uiso   1.00
C381   C     0.51962   0.82547   0.01640   0.00000  Uiso   1.00
C382   C     0.58122   0.85126   0.49465   0.00000  Uiso   1.00
C383   C     0.60069   0.84848   0.44260   0.00000  Uiso   1.00
C384   C     0.55942   0.82172   0.41278   0.00000  Uiso   1.00
C385   C     0.50789   0.81452   0.06820   0.00000  Uiso   1.00
C386   C     0.60946   0.86888   0.07704   0.00000  Uiso   1.00
Cu387  Cu    0.44043   0.82772   0.24435   0.00000  Uiso   1.00
Cu388  Cu    0.55957   0.83895   0.25565   0.00000  Uiso   1.00
F389   F     0.42775   0.98235   0.22460   0.00000  Uiso   1.00
F390   F     0.63956   0.75814   0.48962   0.00000  Uiso   1.00
F391   F     0.58389   0.79622   0.37033   0.00000  Uiso   1.00
H392   H     0.64312   0.88760   0.10027   0.00000  Uiso   1.00
H393   H     0.35086   0.94136   0.34288   0.00000  Uiso   1.00
H394   H     0.43184   0.69732   0.09876   0.00000  Uiso   1.00
H395   H     0.51165   0.72640   0.10192   0.00000  Uiso   1.00
H396   H     0.48561   0.71651   0.04117   0.00000  Uiso   1.00
H397   H     0.66553   0.79862   0.20640   0.00000  Uiso   1.00
H398   H     0.64951   0.86117   0.42577   0.00000  Uiso   1.00
H399   H     0.33832   0.89401   0.00835   0.00000  Uiso   1.00
H400   H     0.35229   0.77753   0.39492   0.00000  Uiso   1.00
H401   H     0.38943   0.79367   0.04332   0.00000  Uiso   1.00
H402   H     0.56427   0.67962   0.26493   0.00000  Uiso   1.00
H403   H     0.60582   0.91353   0.33662   0.00000  Uiso   1.00
H404   H     0.66389   0.94211   0.28249   0.00000  Uiso   1.00
N405   N     0.64908   0.84741   0.26416   0.00000  Uiso   1.00
N406   N     0.35092   0.81926   0.23584   0.00000  Uiso   1.00
O407   O     0.46131   0.90474   0.24633   0.00000  Uiso   1.00
O408   O     0.45668   0.77697   0.08902   0.00000  Uiso   1.00
O409   O     0.56191   0.91422   0.25586   0.00000  Uiso   1.00
O410   O     0.42515   0.82627   0.31839   0.00000  Uiso   1.00
O411   O     0.52575   0.83575   0.32793   0.00000  Uiso   1.00
O412   O     0.43809   0.75245   0.24413   0.00000  Uiso   1.00
O413   O     0.53869   0.76193   0.25367   0.00000  Uiso   1.00
O414   O     0.47425   0.83092   0.17207   0.00000  Uiso   1.00
O415   O     0.57485   0.84040   0.18161   0.00000  Uiso   1.00
O416   O     0.33866   0.86985   0.30514   0.00000  Uiso   1.00
C417   C     0.84842   0.93335   0.25125   0.00000  Uiso   1.00
C418   C     0.78259   0.80723   0.39930   0.00000  Uiso   1.00
C419   C     0.85590   0.98929   0.25308   0.00000  Uiso   1.00
C420   C     0.80021   0.82369   0.34595   0.00000  Uiso   1.00
C421   C     0.81194   0.67770   0.24210   0.00000  Uiso   1.00
C422   C     0.81882   0.73341   0.24704   0.00000  Uiso   1.00
C423   C     0.86638   0.83618   0.15341   0.00000  Uiso   1.00
C424   C     0.95834   0.87366   0.02502   0.00000  Uiso   1.00
C425   C     0.88467   0.83917   0.09866   0.00000  Uiso   1.00
C426   C     0.71990   0.78654   0.41922   0.00000  Uiso   1.00
C427   C     0.70046   0.77846   0.47078   0.00000  Uiso   1.00
C428   C     0.80733   0.81015   0.48462   0.00000  Uiso   1.00
C429   C     0.74260   0.79380   0.00353   0.00000  Uiso   1.00
C430   C     0.98819   0.91851   0.31662   0.00000  Uiso   1.00
C431   C     0.80626   0.72743   0.08210   0.00000  Uiso   1.00
C432   C     0.82768   0.81277   0.43139   0.00000  Uiso   1.00
C433   C     0.85295   0.82547   0.01640   0.00000  Uiso   1.00
C434   C     0.91456   0.85126   0.49465   0.00000  Uiso   1.00
C435   C     0.93403   0.84848   0.44260   0.00000  Uiso   1.00
C436   C     0.89276   0.82172   0.41278   0.00000  Uiso   1.00
C437   C     0.84123   0.81452   0.06820   0.00000  Uiso   1.00
C438   C     0.94280   0.86888   0.07704   0.00000  Uiso   1.00
Cu439  Cu    0.77377   0.82772   0.24435   0.00000  Uiso   1.00
Cu440  Cu    0.89290   0.83895   0.25565   0.00000  Uiso   1.00
F441   F     0.76108   0.98235   0.22460   0.00000  Uiso   1.00
F442   F     0.97289   0.75814   0.48962   0.00000  Uiso   1.00
F443   F     0.91723   0.79622   0.37033   0.00000  Uiso   1.00
H444   H     0.97646   0.88760   0.10027   0.00000  Uiso   1.00
H445   H     0.68419   0.94136   0.34288   0.00000  Uiso   1.00
H446   H     0.76517   0.69732   0.09876   0.00000  Uiso   1.00
H447   H     0.84498   0.72640   0.10192   0.00000  Uiso   1.00
H448   H     0.81895   0.71651   0.04117   0.00000  Uiso   1.00
H449   H     0.99886   0.79862   0.20640   0.00000  Uiso   1.00
H450   H     0.98285   0.86117   0.42577   0.00000  Uiso   1.00
H451   H     0.67166   0.89401   0.00835   0.00000  Uiso   1.00
H452   H     0.68562   0.77753   0.39492   0.00000  Uiso   1.00
H453   H     0.72276   0.79367   0.04332   0.00000  Uiso   1.00
H454   H     0.89760   0.67962   0.26493   0.00000  Uiso   1.00
H455   H     0.93916   0.91353   0.33662   0.00000  Uiso   1.00
H456   H     0.99722   0.94211   0.28249   0.00000  Uiso   1.00
N457   N     0.98241   0.84741   0.26416   0.00000  Uiso   1.00
N458   N     0.68426   0.81926   0.23584   0.00000  Uiso   1.00
O459   O     0.79464   0.90474   0.24633   0.00000  Uiso   1.00
O460   O     0.79001   0.77697   0.08902   0.00000  Uiso   1.00
O461   O     0.89524   0.91422   0.25586   0.00000  Uiso   1.00
O462   O     0.75848   0.82627   0.31839   0.00000  Uiso   1.00
O463   O     0.85908   0.83575   0.32793   0.00000  Uiso   1.00
O464   O     0.77142   0.75245   0.24413   0.00000  Uiso   1.00
O465   O     0.87203   0.76193   0.25367   0.00000  Uiso   1.00
O466   O     0.80758   0.83092   0.17207   0.00000  Uiso   1.00
O467   O     0.90819   0.84040   0.18161   0.00000  Uiso   1.00
O468   O     0.67200   0.86985   0.30514   0.00000  Uiso   1.00
C469   C     0.18175   0.26669   0.75125   0.00000  Uiso   1.00
C470   C     0.11593   0.14056   0.89930   0.00000  Uiso   1.00
C471   C     0.18923   0.32263   0.75308   0.00000  Uiso   1.00
C472   C     0.13354   0.15702   0.84595   0.00000  Uiso   1.00
C473   C     0.14528   0.01104   0.74210   0.00000  Uiso   1.00
C474   C     0.15215   0.06675   0.74704   0.00000  Uiso   1.00
C475   C     0.19971   0.16951   0.65341   0.00000  Uiso   1.00
C476   C     0.29167   0.20699   0.52502   0.00000  Uiso   1.00
C477   C     0.21801   0.17251   0.59866   0.00000  Uiso   1.00
C478   C     0.05323   0.11987   0.91922   0.00000  Uiso   1.00
C479   C     0.03379   0.11180   0.97078   0.00000  Uiso   1.00
C480   C     0.14067   0.14348   0.98462   0.00000  Uiso   1.00
C481   C     0.07594   0.12714   0.50353   0.00000  Uiso   1.00
C482   C     0.32152   0.25184   0.81662   0.00000  Uiso   1.00
C483   C     0.13959   0.06076   0.58210   0.00000  Uiso   1.00
C484   C     0.16101   0.14610   0.93139   0.00000  Uiso   1.00
C485   C     0.18628   0.15880   0.51640   0.00000  Uiso   1.00
C486   C     0.24789   0.18459   0.99465   0.00000  Uiso   1.00
C487   C     0.26736   0.18182   0.94260   0.00000  Uiso   1.00
C488   C     0.22609   0.15505   0.91278   0.00000  Uiso   1.00
C489   C     0.17456   0.14785   0.56820   0.00000  Uiso   1.00
C490   C     0.27613   0.20221   0.57704   0.00000  Uiso   1.00
Cu491  Cu    0.10710   0.16105   0.74435   0.00000  Uiso   1.00
Cu492  Cu    0.22623   0.17228   0.75565   0.00000  Uiso   1.00
F493   F     0.09441   0.31569   0.72460   0.00000  Uiso   1.00
F494   F     0.30623   0.09147   0.98962   0.00000  Uiso   1.00
F495   F     0.25056   0.12955   0.87033   0.00000  Uiso   1.00
H496   H     0.30979   0.22094   0.60027   0.00000  Uiso   1.00
H497   H     0.01753   0.27469   0.84288   0.00000  Uiso   1.00
H498   H     0.09851   0.03065   0.59876   0.00000  Uiso   1.00
H499   H     0.17832   0.05973   0.60192   0.00000  Uiso   1.00
H500   H     0.15228   0.04984   0.54117   0.00000  Uiso   1.00
H501   H     0.33220   0.13195   0.70640   0.00000  Uiso   1.00
H502   H     0.31618   0.19451   0.92577   0.00000  Uiso   1.00
H503   H     0.00499   0.22734   0.50835   0.00000  Uiso   1.00
H504   H     0.01895   0.11087   0.89492   0.00000  Uiso   1.00
H505   H     0.05609   0.12700   0.54332   0.00000  Uiso   1.00
H506   H     0.23093   0.01295   0.76493   0.00000  Uiso   1.00
H507   H     0.27249   0.24686   0.83662   0.00000  Uiso   1.00
H508   H     0.33056   0.27544   0.78249   0.00000  Uiso   1.00
N509   N     0.31574   0.18074   0.76416   0.00000  Uiso   1.00
N510   N     0.01759   0.15259   0.73584   0.00000  Uiso   1.00
O511   O     0.12797   0.23807   0.74633   0.00000  Uiso   1.00
O512   O     0.12334   0.11030   0.58902   0.00000  Uiso   1.00
O513   O     0.22858   0.24755   0.75586   0.00000  Uiso   1.00
O514   O     0.09181   0.15960   0.81839   0.00000  Uiso   1.00
O515   O     0.19242   0.16908   0.82793   0.00000  Uiso   1.00
O516   O     0.10476   0.08578   0.74413   0.00000  Uiso   1.00
O517   O     0.20536   0.09526   0.75367   0.00000  Uiso   1.00
O518   O     0.14092   0.16425   0.67207   0.00000  Uiso   1.00
O519   O     0.24152   0.17373   0.68161   0.00000  Uiso   1.00
O520   O     0.00533   0.20318   0.80514   0.00000  Uiso   1.00
C521   C     0.51508   0.26669   0.75125   0.00000  Uiso   1.00
C522   C     0.44926   0.14056   0.89930   0.00000  Uiso   1.00
C523   C     0.52257   0.32263   0.75308   0.00000  Uiso   1.00
C524   C     0.46687   0.15702   0.84595   0.00000  Uiso   1.00
C525   C     0.47861   0.01104   0.74210   0.00000  Uiso   1.00
C526   C     0.48548   0.06675   0.74704   0.00000  Uiso   1.00
C527   C     0.53304   0.16951   0.65341   0.00000  Uiso   1.00
C528   C     0.62500   0.20699   0.52502   0.00000  Uiso   1.00
C529   C     0.55134   0.17251   0.59866   0.00000  Uiso   1.00
C530   C     0.38657   0.11987   0.91922   0.00000  Uiso   1.00
C531   C     0.36713   0.11180   0.97078   0.00000  Uiso   1.00
C532   C     0.47400   0.14348   0.98462   0.00000  Uiso   1.00
C533   C     0.40927   0.12714   0.50353   0.00000  Uiso   1.00
C534   C     0.65486   0.25184   0.81662   0.00000  Uiso   1.00
C535   C     0.47292   0.06076   0.58210   0.00000  Uiso   1.00
C536   C     0.49435   0.14610   0.93139   0.00000  Uiso   1.00
C537   C     0.51962   0.15880   0.51640   0.00000  Uiso   1.00
C538   C     0.58122   0.18459   0.99465   0.00000  Uiso   1.00
C539   C     0.60069   0.18182   0.94260   0.00000  Uiso   1.00
C540   C     0.55942   0.15505   0.91278   0.00000  Uiso   1.00
C541   C     0.50789   0.14785   0.56820   0.00000  Uiso   1.00
C542   C     0.60946   0.20221   0.57704   0.00000  Uiso   1.00
Cu543  Cu    0.44043   0.16105   0.74435   0.00000  Uiso   1.00
Cu544  Cu    0.55957   0.17228   0.75565   0.00000  Uiso   1.00
F545   F     0.42775   0.31569   0.72460   0.00000  Uiso   1.00
F546   F     0.63956   0.09147   0.98962   0.00000  Uiso   1.00
F547   F     0.58389   0.12955   0.87033   0.00000  Uiso   1.00
H548   H     0.64312   0.22094   0.60027   0.00000  Uiso   1.00
H549   H     0.35086   0.27469   0.84288   0.00000  Uiso   1.00
H550   H     0.43184   0.03065   0.59876   0.00000  Uiso   1.00
H551   H     0.51165   0.05973   0.60192   0.00000  Uiso   1.00
H552   H     0.48561   0.04984   0.54117   0.00000  Uiso   1.00
H553   H     0.66553   0.13195   0.70640   0.00000  Uiso   1.00
H554   H     0.64951   0.19451   0.92577   0.00000  Uiso   1.00
H555   H     0.33832   0.22734   0.50835   0.00000  Uiso   1.00
H556   H     0.35229   0.11087   0.89492   0.00000  Uiso   1.00
H557   H     0.38943   0.12700   0.54332   0.00000  Uiso   1.00
H558   H     0.56427   0.01295   0.76493   0.00000  Uiso   1.00
H559   H     0.60582   0.24686   0.83662   0.00000  Uiso   1.00
H560   H     0.66389   0.27544   0.78249   0.00000  Uiso   1.00
N561   N     0.64908   0.18074   0.76416   0.00000  Uiso   1.00
N562   N     0.35092   0.15259   0.73584   0.00000  Uiso   1.00
O563   O     0.46131   0.23807   0.74633   0.00000  Uiso   1.00
O564   O     0.45668   0.11030   0.58902   0.00000  Uiso   1.00
O565   O     0.56191   0.24755   0.75586   0.00000  Uiso   1.00
O566   O     0.42515   0.15960   0.81839   0.00000  Uiso   1.00
O567   O     0.52575   0.16908   0.82793   0.00000  Uiso   1.00
O568   O     0.43809   0.08578   0.74413   0.00000  Uiso   1.00
O569   O     0.53869   0.09526   0.75367   0.00000  Uiso   1.00
O570   O     0.47425   0.16425   0.67207   0.00000  Uiso   1.00
O571   O     0.57485   0.17373   0.68161   0.00000  Uiso   1.00
O572   O     0.33866   0.20318   0.80514   0.00000  Uiso   1.00
C573   C     0.84842   0.26669   0.75125   0.00000  Uiso   1.00
C574   C     0.78259   0.14056   0.89930   0.00000  Uiso   1.00
C575   C     0.85590   0.32263   0.75308   0.00000  Uiso   1.00
C576   C     0.80021   0.15702   0.84595   0.00000  Uiso   1.00
C577   C     0.81194   0.01104   0.74210   0.00000  Uiso   1.00
C578   C     0.81882   0.06675   0.74704   0.00000  Uiso   1.00
C579   C     0.86638   0.16951   0.65341   0.00000  Uiso   1.00
C580   C     0.95834   0.20699   0.52502   0.00000  Uiso   1.00
C581   C     0.88467   0.17251   0.59866   0.00000  Uiso   1.00
C582   C     0.71990   0.11987   0.91922   0.00000  Uiso   1.00
C583   C     0.70046   0.11180   0.97078   0.00000  Uiso   1.00
C584   C     0.80733   0.14348   0.98462   0.00000  Uiso   1.00
C585   C     0.74260   0.12714   0.50353   0.00000  Uiso   1.00
C586   C     0.98819   0.25184   0.81662   0.00000  Uiso   1.00
C587   C     0.80626   0.06076   0.58210   0.00000  Uiso   1.00
C588   C     0.82768   0.14610   0.93139   0.00000  Uiso   1.00
C589   C     0.85295   0.15880   0.51640   0.00000  Uiso   1.00
C590   C     0.91456   0.18459   0.99465   0.00000  Uiso   1.00
C591   C     0.93403   0.18182   0.94260   0.00000  Uiso   1.00
C592   C     0.89276   0.15505   0.91278   0.00000  Uiso   1.00
C593   C     0.84123   0.14785   0.56820   0.00000  Uiso   1.00
C594   C     0.94280   0.20221   0.57704   0.00000  Uiso   1.00
Cu595  Cu    0.77377   0.16105   0.74435   0.00000  Uiso   1.00
Cu596  Cu    0.89290   0.17228   0.75565   0.00000  Uiso   1.00
F597   F     0.76108   0.31569   0.72460   0.00000  Uiso   1.00
F598   F     0.97289   0.09147   0.98962   0.00000  Uiso   1.00
F599   F     0.91723   0.12955   0.87033   0.00000  Uiso   1.00
H600   H     0.97646   0.22094   0.60027   0.00000  Uiso   1.00
H601   H     0.68419   0.27469   0.84288   0.00000  Uiso   1.00
H602   H     0.76517   0.03065   0.59876   0.00000  Uiso   1.00
H603   H     0.84498   0.05973   0.60192   0.00000  Uiso   1.00
H604   H     0.81895   0.04984   0.54117   0.00000  Uiso   1.00
H605   H     0.99886   0.13195   0.70640   0.00000  Uiso   1.00
H606   H     0.98285   0.19451   0.92577   0.00000  Uiso   1.00
H607   H     0.67166   0.22734   0.50835   0.00000  Uiso   1.00
H608   H     0.68562   0.11087   0.89492   0.00000  Uiso   1.00
H609   H     0.72276   0.12700   0.54332   0.00000  Uiso   1.00
H610   H     0.89760   0.01295   0.76493   0.00000  Uiso   1.00
H611   H     0.93916   0.24686   0.83662   0.00000  Uiso   1.00
H612   H     0.99722   0.27544   0.78249   0.00000  Uiso   1.00
N613   N     0.98241   0.18074   0.76416   0.00000  Uiso   1.00
N614   N     0.68426   0.15259   0.73584   0.00000  Uiso   1.00
O615   O     0.79464   0.23807   0.74633   0.00000  Uiso   1.00
O616   O     0.79001   0.11030   0.58902   0.00000  Uiso   1.00
O617   O     0.89524   0.24755   0.75586   0.00000  Uiso   1.00
O618   O     0.75848   0.15960   0.81839   0.00000  Uiso   1.00
O619   O     0.85908   0.16908   0.82793   0.00000  Uiso   1.00
O620   O     0.77142   0.08578   0.74413   0.00000  Uiso   1.00
O621   O     0.87203   0.09526   0.75367   0.00000  Uiso   1.00
O622   O     0.80758   0.16425   0.67207   0.00000  Uiso   1.00
O623   O     0.90819   0.17373   0.68161   0.00000  Uiso   1.00
O624   O     0.67200   0.20318   0.80514   0.00000  Uiso   1.00
C625   C     0.18175   0.60002   0.75125   0.00000  Uiso   1.00
C626   C     0.11593   0.47389   0.89930   0.00000  Uiso   1.00
C627   C     0.18923   0.65596   0.75308   0.00000  Uiso   1.00
C628   C     0.13354   0.49036   0.84595   0.00000  Uiso   1.00
C629   C     0.14528   0.34437   0.74210   0.00000  Uiso   1.00
C630   C     0.15215   0.40008   0.74704   0.00000  Uiso   1.00
C631   C     0.19971   0.50284   0.65341   0.00000  Uiso   1.00
C632   C     0.29167   0.54033   0.52502   0.00000  Uiso   1.00
C633   C     0.21801   0.50584   0.59866   0.00000  Uiso   1.00
C634   C     0.05323   0.45321   0.91922   0.00000  Uiso   1.00
C635   C     0.03379   0.44513   0.97078   0.00000  Uiso   1.00
C636   C     0.14067   0.47681   0.98462   0.00000  Uiso   1.00
C637   C     0.07594   0.46047   0.50353   0.00000  Uiso   1.00
C638   C     0.32152   0.58517   0.81662   0.00000  Uiso   1.00
C639   C     0.13959   0.39409   0.58210   0.00000  Uiso   1.00
C640   C     0.16101   0.47944   0.93139   0.00000  Uiso   1.00
C641   C     0.18628   0.49214   0.51640   0.00000  Uiso   1.00
C642   C     0.24789   0.51793   0.99465   0.00000  Uiso   1.00
C643   C     0.26736   0.51515   0.94260   0.00000  Uiso   1.00
C644   C     0.22609   0.48839   0.91278   0.00000  Uiso   1.00
C645   C     0.17456   0.48118   0.56820   0.00000  Uiso   1.00
C646   C     0.27613   0.53554   0.57704   0.00000  Uiso   1.00
Cu647  Cu    0.10710   0.49439   0.74435   0.00000  Uiso   1.00
Cu648  Cu    0.22623   0.50561   0.75565   0.00000  Uiso   1.00
F649   F     0.09441   0.64902   0.72460   0.00000  Uiso   1.00
F650   F     0.30623   0.42480   0.98962   0.00000  Uiso   1.00
F651   F     0.25056   0.46288   0.87033   0.00000  Uiso   1.00
H652   H     0.30979   0.55427   0.60027   0.00000  Uiso   1.00
H653   H     0.01753   0.60802   0.84288   0.00000  Uiso   1.00
H654   H     0.09851   0.36398   0.59876   0.00000  Uiso   1.00
H655   H     0.17832   0.39307   0.60192   0.00000  Uiso   1.00
H656   H     0.15228   0.38318   0.54117   0.00000  Uiso   1.00
H657   H     0.33220   0.46528   0.70640   0.00000  Uiso   1.00
H658   H     0.31618   0.52784   0.92577   0.00000  Uiso   1.00
H659   H     0.00499   0.56067   0.50835   0.00000  Uiso   1.00
H660   H     0.01895   0.44420   0.89492   0.00000  Uiso   1.00
H661   H     0.05609   0.46033   0.54332   0.00000  Uiso   1.00
H662   H     0.23093   0.34628   0.76493   0.00000  Uiso   1.00
H663   H     0.27249   0.58020   0.83662   0.00000  Uiso   1.00
H664   H     0.33056   0.60877   0.78249   0.00000  Uiso   1.00
N665   N     0.31574   0.51407   0.76416   0.00000  Uiso   1.00
N666   N     0.01759   0.48593   0.73584   0.00000  Uiso   1.00
O667   O     0.12797   0.57141   0.74633   0.00000  Uiso   1.00
O668   O     0.12334   0.44364   0.58902   0.00000  Uiso   1.00
O669   O     0.22858   0.58089   0.75586   0.00000  Uiso   1.00
O670   O     0.09181   0.49293   0.81839   0.00000  Uiso   1.00
O671   O     0.19242   0.50241   0.82793   0.00000  Uiso   1.00
O672   O     0.10476   0.41911   0.74413   0.00000  Uiso   1.00
O673   O     0.20536   0.42859   0.75367   0.00000  Uiso   1.00
O674   O     0.14092   0.49759   0.67207   0.00000  Uiso   1.00
O675   O     0.24152   0.50707   0.68161   0.00000  Uiso   1.00
O676   O     0.00533   0.53651   0.80514   0.00000  Uiso   1.00
C677   C     0.51508   0.60002   0.75125   0.00000  Uiso   1.00
C678   C     0.44926   0.47389   0.89930   0.00000  Uiso   1.00
C679   C     0.52257   0.65596   0.75308   0.00000  Uiso   1.00
C680   C     0.46687   0.49036   0.84595   0.00000  Uiso   1.00
C681   C     0.47861   0.34437   0.74210   0.00000  Uiso   1.00
C682   C     0.48548   0.40008   0.74704   0.00000  Uiso   1.00
C683   C     0.53304   0.50284   0.65341   0.00000  Uiso   1.00
C684   C     0.62500   0.54033   0.52502   0.00000  Uiso   1.00
C685   C     0.55134   0.50584   0.59866   0.00000  Uiso   1.00
C686   C     0.38657   0.45321   0.91922   0.00000  Uiso   1.00
C687   C     0.36713   0.44513   0.97078   0.00000  Uiso   1.00
C688   C     0.47400   0.47681   0.98462   0.00000  Uiso   1.00
C689   C     0.40927   0.46047   0.50353   0.00000  Uiso   1.00
C690   C     0.65486   0.58517   0.81662   0.00000  Uiso   1.00
C691   C     0.47292   0.39409   0.58210   0.00000  Uiso   1.00
C692   C     0.49435   0.47944   0.93139   0.00000  Uiso   1.00
C693   C     0.51962   0.49214   0.51640   0.00000  Uiso   1.00
C694   C     0.58122   0.51793   0.99465   0.00000  Uiso   1.00
C695   C     0.60069   0.51515   0.94260   0.00000  Uiso   1.00
C696   C     0.55942   0.48839   0.91278   0.00000  Uiso   1.00
C697   C     0.50789   0.48118   0.56820   0.00000  Uiso   1.00
C698   C     0.60946   0.53554   0.57704   0.00000  Uiso   1.00
Cu699  Cu    0.44043   0.49439   0.74435   0.00000  Uiso   1.00
Cu700  Cu    0.55957   0.50561   0.75565   0.00000  Uiso   1.00
F701   F     0.42775   0.64902   0.72460   0.00000  Uiso   1.00
F702   F     0.63956   0.42480   0.98962   0.00000  Uiso   1.00
F703   F     0.58389   0.46288   0.87033   0.00000  Uiso   1.00
H704   H     0.64312   0.55427   0.60027   0.00000  Uiso   1.00
H705   H     0.35086   0.60802   0.84288   0.00000  Uiso   1.00
H706   H     0.43184   0.36398   0.59876   0.00000  Uiso   1.00
H707   H     0.51165   0.39307   0.60192   0.00000  Uiso   1.00
H708   H     0.48561   0.38318   0.54117   0.00000  Uiso   1.00
H709   H     0.66553   0.46528   0.70640   0.00000  Uiso   1.00
H710   H     0.64951   0.52784   0.92577   0.00000  Uiso   1.00
H711   H     0.33832   0.56067   0.50835   0.00000  Uiso   1.00
H712   H     0.35229   0.44420   0.89492   0.00000  Uiso   1.00
H713   H     0.38943   0.46033   0.54332   0.00000  Uiso   1.00
H714   H     0.56427   0.34628   0.76493   0.00000  Uiso   1.00
H715   H     0.60582   0.58020   0.83662   0.00000  Uiso   1.00
H716   H     0.66389   0.60877   0.78249   0.00000  Uiso   1.00
N717   N     0.64908   0.51407   0.76416   0.00000  Uiso   1.00
N718   N     0.35092   0.48593   0.73584   0.00000  Uiso   1.00
O719   O     0.46131   0.57141   0.74633   0.00000  Uiso   1.00
O720   O     0.45668   0.44364   0.58902   0.00000  Uiso   1.00
O721   O     0.56191   0.58089   0.75586   0.00000  Uiso   1.00
O722   O     0.42515   0.49293   0.81839   0.00000  Uiso   1.00
O723   O     0.52575   0.50241   0.82793   0.00000  Uiso   1.00
O724   O     0.43809   0.41911   0.74413   0.00000  Uiso   1.00
O725   O     0.53869   0.42859   0.75367   0.00000  Uiso   1.00
O726   O     0.47425   0.49759   0.67207   0.00000  Uiso   1.00
O727   O     0.57485   0.50707   0.68161   0.00000  Uiso   1.00
O728   O     0.33866   0.53651   0.80514   0.00000  Uiso   1.00
C729   C     0.84842   0.60002   0.75125   0.00000  Uiso   1.00
C730   C     0.78259   0.47389   0.89930   0.00000  Uiso   1.00
C731   C     0.85590   0.65596   0.75308   0.00000  Uiso   1.00
C732   C     0.80021   0.49036   0.84595   0.00000  Uiso   1.00
C733   C     0.81194   0.34437   0.74210   0.00000  Uiso   1.00
C734   C     0.81882   0.40008   0.74704   0.00000  Uiso   1.00
C735   C     0.86638   0.50284   0.65341   0.00000  Uiso   1.00
C736   C     0.95834   0.54033   0.52502   0.00000  Uiso   1.00
C737   C     0.88467   0.50584   0.59866   0.00000  Uiso   1.00
C738   C     0.71990   0.45321   0.91922   0.00000  Uiso   1.00
C739   C     0.70046   0.44513   0.97078   0.00000  Uiso   1.00
C740   C     0.80733   0.47681   0.98462   0.00000  Uiso   1.00
C741   C     0.74260   0.46047   0.50353   0.00000  Uiso   1.00
C742   C     0.98819   0.58517   0.81662   0.00000  Uiso   1.00
C743   C     0.80626   0.39409   0.58210   0.00000  Uiso   1.00
C744   C     0.82768   0.47944   0.93139   0.00000  Uiso   1.00
C745   C     0.85295   0.49214   0.51640   0.00000  Uiso   1.00
C746   C     0.91456   0.51793   0.99465   0.00000  Uiso   1.00
C747   C     0.93403   0.51515   0.94260   0.00000  Uiso   1.00
C748   C     0.89276   0.48839   0.91278   0.00000  Uiso   1.00
C749   C     0.84123   0.48118   0.56820   0.00000  Uiso   1.00
C750   C     0.94280   0.53554   0.57704   0.00000  Uiso   1.00
Cu751  Cu    0.77377   0.49439   0.74435   0.00000  Uiso   1.00
Cu752  Cu    0.89290   0.50561   0.75565   0.00000  Uiso   1.00
F753   F     0.76108   0.64902   0.72460   0.00000  Uiso   1.00
F754   F     0.97289   0.42480   0.98962   0.00000  Uiso   1.00
F755   F     0.91723   0.46288   0.87033   0.00000  Uiso   1.00
H756   H     0.97646   0.55427   0.60027   0.00000  Uiso   1.00
H757   H     0.68419   0.60802   0.84288   0.00000  Uiso   1.00
H758   H     0.76517   0.36398   0.59876   0.00000  Uiso   1.00
H759   H     0.84498   0.39307   0.60192   0.00000  Uiso   1.00
H760   H     0.81895   0.38318   0.54117   0.00000  Uiso   1.00
H761   H     0.99886   0.46528   0.70640   0.00000  Uiso   1.00
H762   H     0.98285   0.52784   0.92577   0.00000  Uiso   1.00
H763   H     0.67166   0.56067   0.50835   0.00000  Uiso   1.00
H764   H     0.68562   0.44420   0.89492   0.00000  Uiso   1.00
H765   H     0.72276   0.46033   0.54332   0.00000  Uiso   1.00
H766   H     0.89760   0.34628   0.76493   0.00000  Uiso   1.00
H767   H     0.93916   0.58020   0.83662   0.00000  Uiso   1.00
H768   H     0.99722   0.60877   0.78249   0.00000  Uiso   1.00
N769   N     0.98241   0.51407   0.76416   0.00000  Uiso   1.00
N770   N     0.68426   0.48593   0.73584   0.00000  Uiso   1.00
O771   O     0.79464   0.57141   0.74633   0.00000  Uiso   1.00
O772   O     0.79001   0.44364   0.58902   0.00000  Uiso   1.00
O773   O     0.89524   0.58089   0.75586   0.00000  Uiso   1.00
O774   O     0.75848   0.49293   0.81839   0.00000  Uiso   1.00
O775   O     0.85908   0.50241   0.82793   0.00000  Uiso   1.00
O776   O     0.77142   0.41911   0.74413   0.00000  Uiso   1.00
O777   O     0.87203   0.42859   0.75367   0.00000  Uiso   1.00
O778   O     0.80758   0.49759   0.67207   0.00000  Uiso   1.00
O779   O     0.90819   0.50707   0.68161   0.00000  Uiso   1.00
O780   O     0.67200   0.53651   0.80514   0.00000  Uiso   1.00
C781   C     0.18175   0.93335   0.75125   0.00000  Uiso   1.00
C782   C     0.11593   0.80723   0.89930   0.00000  Uiso   1.00
C783   C     0.18923   0.98929   0.75308   0.00000  Uiso   1.00
C784   C     0.13354   0.82369   0.84595   0.00000  Uiso   1.00
C785   C     0.14528   0.67770   0.74210   0.00000  Uiso   1.00
C786   C     0.15215   0.73341   0.74704   0.00000  Uiso   1.00
C787   C     0.19971   0.83618   0.65341   0.00000  Uiso   1.00
C788   C     0.29167   0.87366   0.52502   0.00000  Uiso   1.00
C789   C     0.21801   0.83917   0.59866   0.00000  Uiso   1.00
C790   C     0.05323   0.78654   0.91922   0.00000  Uiso   1.00
C791   C     0.03379   0.77846   0.97078   0.00000  Uiso   1.00
C792   C     0.14067   0.81015   0.98462   0.00000  Uiso   1.00
C793   C     0.07594   0.79380   0.50353   0.00000  Uiso   1.00
C794   C     0.32152   0.91851   0.81662   0.00000  Uiso   1.00
C795   C     0.13959   0.72743   0.58210   0.00000  Uiso   1.00
C796   C     0.16101   0.81277   0.93139   0.00000  Uiso   1.00
C797   C     0.18628   0.82547   0.51640   0.00000  Uiso   1.00
C798   C     0.24789   0.85126   0.99465   0.00000  Uiso   1.00
C799   C     0.26736   0.84848   0.94260   0.00000  Uiso   1.00
C800   C     0.22609   0.82172   0.91278   0.00000  Uiso   1.00
C801   C     0.17456   0.81452   0.56820   0.00000  Uiso   1.00
C802   C     0.27613   0.86888   0.57704   0.00000  Uiso   1.00
Cu803  Cu    0.10710   0.82772   0.74435   0.00000  Uiso   1.00
Cu804  Cu    0.22623   0.83895   0.75565   0.00000  Uiso   1.00
F805   F     0.09441   0.98235   0.72460   0.00000  Uiso   1.00
F806   F     0.30623   0.75814   0.98962   0.00000  Uiso   1.00
F807   F     0.25056   0.79622   0.87033   0.00000  Uiso   1.00
H808   H     0.30979   0.88760   0.60027   0.00000  Uiso   1.00
H809   H     0.01753   0.94136   0.84288   0.00000  Uiso   1.00
H810   H     0.09851   0.69732   0.59876   0.00000  Uiso   1.00
H811   H     0.17832   0.72640   0.60192   0.00000  Uiso   1.00
H812   H     0.15228   0.71651   0.54117   0.00000  Uiso   1.00
H813   H     0.33220   0.79862   0.70640   0.00000  Uiso   1.00
H814   H     0.31618   0.86117   0.92577   0.00000  Uiso   1.00
H815   H     0.00499   0.89401   0.50835   0.00000  Uiso   1.00
H816   H     0.01895   0.77753   0.89492   0.00000  Uiso   1.00
H817   H     0.05609   0.79367   0.54332   0.00000  Uiso   1.00
H818   H     0.23093   0.67962   0.76493   0.00000  Uiso   1.00
H819   H     0.27249   0.91353   0.83662   0.00000  Uiso   1.00
H820   H     0.33056   0.94211   0.78249   0.00000  Uiso   1.00
N821   N     0.31574   0.84741   0.76416   0.00000  Uiso   1.00
N822   N     0.01759   0.81926   0.73584   0.00000  Uiso   1.00
O823   O     0.12797   0.90474   0.74633   0.00000  Uiso   1.00
O824   O     0.12334   0.77697   0.58902   0.00000  Uiso   1.00
O825   O     0.22858   0.91422   0.75586   0.00000  Uiso   1.00
O826   O     0.09181   0.82627   0.81839   0.00000  Uiso   1.00
O827   O     0.19242   0.83575   0.82793   0.00000  Uiso   1.00
O828   O     0.10476   0.75245   0.74413   0.00000  Uiso   1.00
O829   O     0.20536   0.76193   0.75367   0.00000  Uiso   1.00
O830   O     0.14092   0.83092   0.67207   0.00000  Uiso   1.00
O831   O     0.24152   0.84040   0.68161   0.00000  Uiso   1.00
O832   O     0.00533   0.86985   0.80514   0.00000  Uiso   1.00
C833   C     0.51508   0.93335   0.75125   0.00000  Uiso   1.00
C834   C     0.44926   0.80723   0.89930   0.00000  Uiso   1.00
C835   C     0.52257   0.98929   0.75308   0.00000  Uiso   1.00
C836   C     0.46687   0.82369   0.84595   0.00000  Uiso   1.00
C837   C     0.47861   0.67770   0.74210   0.00000  Uiso   1.00
C838   C     0.48548   0.73341   0.74704   0.00000  Uiso   1.00
C839   C     0.53304   0.83618   0.65341   0.00000  Uiso   1.00
C840   C     0.62500   0.87366   0.52502   0.00000  Uiso   1.00
C841   C     0.55134   0.83917   0.59866   0.00000  Uiso   1.00
C842   C     0.38657   0.78654   0.91922   0.00000  Uiso   1.00
C843   C     0.36713   0.77846   0.97078   0.00000  Uiso   1.00
C844   C     0.47400   0.81015   0.98462   0.00000  Uiso   1.00
C845   C     0.40927   0.79380   0.50353   0.00000  Uiso   1.00
C846   C     0.65486   0.91851   0.81662   0.00000  Uiso   1.00
C847   C     0.47292   0.72743   0.58210   0.00000  Uiso   1.00
C848   C     0.49435   0.81277   0.93139   0.00000  Uiso   1.00
C849   C     0.51962   0.82547   0.51640   0.00000  Uiso   1.00
C850   C     0.58122   0.85126   0.99465   0.00000  Uiso   1.00
C851   C     0.60069   0.84848   0.94260   0.00000  Uiso   1.00
C852   C     0.55942   0.82172   0.91278   0.00000  Uiso   1.00
C853   C     0.50789   0.81452   0.56820   0.00000  Uiso   1.00
C854   C     0.60946   0.86888   0.57704   0.00000  Uiso   1.00
Cu855  Cu    0.44043   0.82772   0.74435   0.00000  Uiso   1.00
Cu856  Cu    0.55957   0.83895   0.75565   0.00000  Uiso   1.00
F857   F     0.42775   0.98235   0.72460   0.00000  Uiso   1.00
F858   F     0.63956   0.75814   0.98962   0.00000  Uiso   1.00
F859   F     0.58389   0.79622   0.87033   0.00000  Uiso   1.00
H860   H     0.64312   0.88760   0.60027   0.00000  Uiso   1.00
H861   H     0.35086   0.94136   0.84288   0.00000  Uiso   1.00
H862   H     0.43184   0.69732   0.59876   0.00000  Uiso   1.00
H863   H     0.51165   0.72640   0.60192   0.00000  Uiso   1.00
H864   H     0.48561   0.71651   0.54117   0.00000  Uiso   1.00
H865   H     0.66553   0.79862   0.70640   0.00000  Uiso   1.00
H866   H     0.64951   0.86117   0.92577   0.00000  Uiso   1.00
H867   H     0.33832   0.89401   0.50835   0.00000  Uiso   1.00
H868   H     0.35229   0.77753   0.89492   0.00000  Uiso   1.00
H869   H     0.38943   0.79367   0.54332   0.00000  Uiso   1.00
H870   H     0.56427   0.67962   0.76493   0.00000  Uiso   1.00
H871   H     0.60582   0.91353   0.83662   0.00000  Uiso   1.00
H872   H     0.66389   0.94211   0.78249   0.00000  Uiso   1.00
N873   N     0.64908   0.84741   0.76416   0.00000  Uiso   1.00
N874   N     0.35092   0.81926   0.73584   0.00000  Uiso   1.00
O875   O     0.46131   0.90474   0.74633   0.00000  Uiso   1.00
O876   O     0.45668   0.77697   0.58902   0.00000  Uiso   1.00
O877   O     0.56191   0.91422   0.75586   0.00000  Uiso   1.00
O878   O     0.42515   0.82627   0.81839   0.00000  Uiso   1.00
O879   O     0.52575   0.83575   0.82793   0.00000  Uiso   1.00
O880   O     0.43809   0.75245   0.74413   0.00000  Uiso   1.00
O881   O     0.53869   0.76193   0.75367   0.00000  Uiso   1.00
O882   O     0.47425   0.83092   0.67207   0.00000  Uiso   1.00
O883   O     0.57485   0.84040   0.68161   0.00000  Uiso   1.00
O884   O     0.33866   0.86985   0.80514   0.00000  Uiso   1.00
C885   C     0.84842   0.93335   0.75125   0.00000  Uiso   1.00
C886   C     0.78259   0.80723   0.89930   0.00000  Uiso   1.00
C887   C     0.85590   0.98929   0.75308   0.00000  Uiso   1.00
C888   C     0.80021   0.82369   0.84595   0.00000  Uiso   1.00
C889   C     0.81194   0.67770   0.74210   0.00000  Uiso   1.00
C890   C     0.81882   0.73341   0.74704   0.00000  Uiso   1.00
C891   C     0.86638   0.83618   0.65341   0.00000  Uiso   1.00
C892   C     0.95834   0.87366   0.52502   0.00000  Uiso   1.00
C893   C     0.88467   0.83917   0.59866   0.00000  Uiso   1.00
C894   C     0.71990   0.78654   0.91922   0.00000  Uiso   1.00
C895   C     0.70046   0.77846   0.97078   0.00000  Uiso   1.00
C896   C     0.80733   0.81015   0.98462   0.00000  Uiso   1.00
C897   C     0.74260   0.79380   0.50353   0.00000  Uiso   1.00
C898   C     0.98819   0.91851   0.81662   0.00000  Uiso   1.00
C899   C     0.80626   0.72743   0.58210   0.00000  Uiso   1.00
C900   C     0.82768   0.81277   0.93139   0.00000  Uiso   1.00
C901   C     0.85295   0.82547   0.51640   0.00000  Uiso   1.00
C902   C     0.91456   0.85126   0.99465   0.00000  Uiso   1.00
C903   C     0.93403   0.84848   0.94260   0.00000  Uiso   1.00
C904   C     0.89276   0.82172   0.91278   0.00000  Uiso   1.00
C905   C     0.84123   0.81452   0.56820   0.00000  Uiso   1.00
C906   C     0.94280   0.86888   0.57704   0.00000  Uiso   1.00
Cu907  Cu    0.77377   0.82772   0.74435   0.00000  Uiso   1.00
Cu908  Cu    0.89290   0.83895   0.75565   0.00000  Uiso   1.00
F909   F     0.76108   0.98235   0.72460   0.00000  Uiso   1.00
F910   F     0.97289   0.75814   0.98962   0.00000  Uiso   1.00
F911   F     0.91723   0.79622   0.87033   0.00000  Uiso   1.00
H912   H     0.97646   0.88760   0.60027   0.00000  Uiso   1.00
H913   H     0.68419   0.94136   0.84288   0.00000  Uiso   1.00
H914   H     0.76517   0.69732   0.59876   0.00000  Uiso   1.00
H915   H     0.84498   0.72640   0.60192   0.00000  Uiso   1.00
H916   H     0.81895   0.71651   0.54117   0.00000  Uiso   1.00
H917   H     0.99886   0.79862   0.70640   0.00000  Uiso   1.00
H918   H     0.98285   0.86117   0.92577   0.00000  Uiso   1.00
H919   H     0.67166   0.89401   0.50835   0.00000  Uiso   1.00
H920   H     0.68562   0.77753   0.89492   0.00000  Uiso   1.00
H921   H     0.72276   0.79367   0.54332   0.00000  Uiso   1.00
H922   H     0.89760   0.67962   0.76493   0.00000  Uiso   1.00
H923   H     0.93916   0.91353   0.83662   0.00000  Uiso   1.00
H924   H     0.99722   0.94211   0.78249   0.00000  Uiso   1.00
N925   N     0.98241   0.84741   0.76416   0.00000  Uiso   1.00
N926   N     0.68426   0.81926   0.73584   0.00000  Uiso   1.00
O927   O     0.79464   0.90474   0.74633   0.00000  Uiso   1.00
O928   O     0.79001   0.77697   0.58902   0.00000  Uiso   1.00
O929   O     0.89524   0.91422   0.75586   0.00000  Uiso   1.00
O930   O     0.75848   0.82627   0.81839   0.00000  Uiso   1.00
O931   O     0.85908   0.83575   0.82793   0.00000  Uiso   1.00
O932   O     0.77142   0.75245   0.74413   0.00000  Uiso   1.00
O933   O     0.87203   0.76193   0.75367   0.00000  Uiso   1.00
O934   O     0.80758   0.83092   0.67207   0.00000  Uiso   1.00
O935   O     0.90819   0.84040   0.68161   0.00000  Uiso   1.00
O936   O     0.67200   0.86985   0.80514   0.00000  Uiso   1.00
loop_
_geom_bond_atom_site_label_1
_geom_bond_atom_site_label_2
_geom_bond_distance
_geom_bond_site_symmetry_2
_ccdc_geom_bond_type
C1     O45     1.291   .     A
C1     O43     1.291   .     A
C1     C3      1.430   .     S
C2     C16     1.435   .     A
C2     C4      1.487   .     S
C2     C10     1.398   .     A
C3     C161    1.334   .     S
C3     H194    1.088   .     S
C4     O46     1.323   .     A
C4     O47     1.286   .     A
C5     C6      1.426   .     S
C5     C315    1.334   1_545 S
C5     F337    1.362   1_545 S
C6     O48     1.289   .     A
C6     O49     1.292   .     A
C7     O51     1.302   .     A
C7     O50     1.292   .     A
C7     C9      1.455   .     S
C8     C22     1.386   .     A
C8     C486    1.400   1_554 S
C8     H87     1.084   .     S
C9     C21     1.410   .     A
C9     C22     1.396   .     A
C10    H36     1.082   .     S
C10    C11     1.390   .     A
C11    C481    1.393   .     S
C11    F130    1.356   1_455 S
C12    C16     1.419   .     A
C12    C481    1.415   .     S
C12    C485    1.432   .     S
C13    H37     1.076   .     S
C13    C480    1.415   1_554 S
C13    C479    1.393   1_554 S
C14    H40     1.110   .     S
C14    H39     1.106   .     S
C14    H81     1.109   .     S
C14    O104    1.403   .     S
C15    H31     1.114   .     S
C15    H32     1.114   .     S
C15    O44     1.410   .     S
C15    H30     1.110   .     S
C16    C20     1.415   .     A
C17    C21     1.410   .     A
C17    C480    1.432   1_554 S
C17    C486    1.422   1_554 S
C18    C19     1.385   .     A
C18    C485    1.422   .     S
C18    C476    1.400   .     S
C19    C20     1.380   .     A
C19    H34     1.083   .     S
C20    F27     1.358   .     S
C21    O44     1.384   .     S
C22    H28     1.083   .     S
Cu23   Cu24    2.695   .     S
Cu23   O46     1.960   .     S
Cu23   N42     2.025   .     S
Cu23   O43     1.958   .     S
Cu23   O50     1.947   .     S
Cu23   O48     1.954   .     S
Cu24   O51     1.960   .     S
Cu24   N41     2.025   .     S
Cu24   O45     1.954   .     S
Cu24   O49     1.958   .     S
Cu24   O47     1.947   .     S
F25    C161    1.362   .     S
F26    C63     1.356   .     S
H29    C118    1.109   1_455 S
H33    N94     1.029   .     S
H35    C112    1.084   1_455 S
H38    C315    1.088   1_545 S
N41    N94     1.294   .     S
N41    O104    1.347   .     S
N42    N145    1.294   1_455 S
N42    H137    1.029   1_455 S
O52    N145    1.347   1_455 S
O52    C118    1.403   1_455 S
C53    O97     1.291   .     A
C53    O95     1.291   .     A
C53    C55     1.430   .     S
C54    C68     1.435   .     A
C54    C56     1.487   .     S
C54    C62     1.398   .     A
C55    C213    1.334   .     S
C55    H246    1.088   .     S
C56    O98     1.323   .     A
C56    O99     1.286   .     A
C57    C58     1.426   .     S
C57    C367    1.334   1_545 S
C57    F389    1.362   1_545 S
C58    O100    1.289   .     A
C58    O101    1.292   .     A
C59    O103    1.302   .     A
C59    O102    1.292   .     A
C59    C61     1.455   .     S
C60    C74     1.386   .     A
C60    C538    1.400   1_554 S
C60    H139    1.084   .     S
C61    C73     1.410   .     A
C61    C74     1.396   .     A
C62    H88     1.082   .     S
C62    C63     1.390   .     A
C63    C533    1.393   .     S
C64    C68     1.419   .     A
C64    C533    1.415   .     S
C64    C537    1.432   .     S
C65    H89     1.076   .     S
C65    C532    1.415   1_554 S
C65    C531    1.393   1_554 S
C66    H92     1.110   .     S
C66    H91     1.106   .     S
C66    H133    1.109   .     S
C66    O156    1.403   .     S
C67    H83     1.114   .     S
C67    H84     1.114   .     S
C67    O96     1.410   .     S
C67    H82     1.110   .     S
C68    C72     1.415   .     A
C69    C73     1.410   .     A
C69    C532    1.432   1_554 S
C69    C538    1.422   1_554 S
C70    C71     1.385   .     A
C70    C537    1.422   .     S
C70    C528    1.400   .     S
C71    C72     1.380   .     A
C71    H86     1.083   .     S
C72    F79     1.358   .     S
C73    O96     1.384   .     S
C74    H80     1.083   .     S
Cu75   Cu76    2.695   .     S
Cu75   O98     1.960   .     S
Cu75   N94     2.025   .     S
Cu75   O95     1.958   .     S
Cu75   O102    1.947   .     S
Cu75   O100    1.954   .     S
Cu76   O103    1.960   .     S
Cu76   N93     2.025   .     S
Cu76   O97     1.954   .     S
Cu76   O101    1.958   .     S
Cu76   O99     1.947   .     S
F77    C213    1.362   .     S
F78    C115    1.356   .     S
H85    N146    1.029   .     S
H90    C367    1.088   1_545 S
N93    N146    1.294   .     S
N93    O156    1.347   .     S
C105   O149    1.291   .     A
C105   O147    1.291   .     A
C105   C107    1.430   .     S
C106   C120    1.435   .     A
C106   C108    1.487   .     S
C106   C114    1.398   .     A
C107   C265    1.334   .     S
C107   H298    1.088   .     S
C108   O150    1.323   .     A
C108   O151    1.286   .     A
C109   C110    1.426   .     S
C109   C419    1.334   1_545 S
C109   F441    1.362   1_545 S
C110   O152    1.289   .     A
C110   O153    1.292   .     A
C111   O155    1.302   .     A
C111   O154    1.292   .     A
C111   C113    1.455   .     S
C112   C126    1.386   .     A
C112   C590    1.400   1_554 S
C112   H35     1.084   1_655 S
C113   C125    1.410   .     A
C113   C126    1.396   .     A
C114   H140    1.082   .     S
C114   C115    1.390   .     A
C115   C585    1.393   .     S
C116   C120    1.419   .     A
C116   C585    1.415   .     S
C116   C589    1.432   .     S
C117   H141    1.076   .     S
C117   C584    1.415   1_554 S
C117   C583    1.393   1_554 S
C118   H144    1.110   .     S
C118   H143    1.106   .     S
C118   H29     1.109   1_655 S
C118   O52     1.403   1_655 S
C119   H135    1.114   .     S
C119   H136    1.114   .     S
C119   O148    1.410   .     S
C119   H134    1.110   .     S
C120   C124    1.415   .     A
C121   C125    1.410   .     A
C121   C584    1.432   1_554 S
C121   C590    1.422   1_554 S
C122   C123    1.385   .     A
C122   C589    1.422   .     S
C122   C580    1.400   .     S
C123   C124    1.380   .     A
C123   H138    1.083   .     S
C124   F131    1.358   .     S
C125   O148    1.384   .     S
C126   H132    1.083   .     S
Cu127  Cu128   2.695   .     S
Cu127  O150    1.960   .     S
Cu127  N146    2.025   .     S
Cu127  O147    1.958   .     S
Cu127  O154    1.947   .     S
Cu127  O152    1.954   .     S
Cu128  O155    1.960   .     S
Cu128  N145    2.025   .     S
Cu128  O149    1.954   .     S
Cu128  O153    1.958   .     S
Cu128  O151    1.947   .     S
F129   C265    1.362   .     S
F130   C11     1.356   1_655 S
H137   N42     1.029   1_655 S
H142   C419    1.088   1_545 S
N145   N42     1.294   1_655 S
N145   O52     1.347   1_655 S
C157   O201    1.291   .     A
C157   O199    1.291   .     A
C157   C159    1.430   .     S
C158   C172    1.435   .     A
C158   C160    1.487   .     S
C158   C166    1.398   .     A
C159   C317    1.334   .     S
C159   H350    1.088   .     S
C160   O202    1.323   .     A
C160   O203    1.286   .     A
C161   C162    1.426   .     S
C162   O204    1.289   .     A
C162   O205    1.292   .     A
C163   O207    1.302   .     A
C163   O206    1.292   .     A
C163   C165    1.455   .     S
C164   C178    1.386   .     A
C164   C642    1.400   1_554 S
C164   H243    1.084   .     S
C165   C177    1.410   .     A
C165   C178    1.396   .     A
C166   H192    1.082   .     S
C166   C167    1.390   .     A
C167   C637    1.393   .     S
C167   F286    1.356   1_455 S
C168   C172    1.419   .     A
C168   C637    1.415   .     S
C168   C641    1.432   .     S
C169   H193    1.076   .     S
C169   C636    1.415   1_554 S
C169   C635    1.393   1_554 S
C170   H196    1.110   .     S
C170   H195    1.106   .     S
C170   H237    1.109   .     S
C170   O260    1.403   .     S
C171   H187    1.114   .     S
C171   H188    1.114   .     S
C171   O200    1.410   .     S
C171   H186    1.110   .     S
C172   C176    1.415   .     A
C173   C177    1.410   .     A
C173   C636    1.432   1_554 S
C173   C642    1.422   1_554 S
C174   C175    1.385   .     A
C174   C641    1.422   .     S
C174   C632    1.400   .     S
C175   C176    1.380   .     A
C175   H190    1.083   .     S
C176   F183    1.358   .     S
C177   O200    1.384   .     S
C178   H184    1.083   .     S
Cu179  Cu180   2.695   .     S
Cu179  O202    1.960   .     S
Cu179  N198    2.025   .     S
Cu179  O199    1.958   .     S
Cu179  O206    1.947   .     S
Cu179  O204    1.954   .     S
Cu180  O207    1.960   .     S
Cu180  N197    2.025   .     S
Cu180  O201    1.954   .     S
Cu180  O205    1.958   .     S
Cu180  O203    1.947   .     S
F181   C317    1.362   .     S
F182   C219    1.356   .     S
H185   C274    1.109   1_455 S
H189   N250    1.029   .     S
H191   C268    1.084   1_455 S
N197   N250    1.294   .     S
N197   O260    1.347   .     S
N198   N301    1.294   1_455 S
N198   H293    1.029   1_455 S
O208   N301    1.347   1_455 S
O208   C274    1.403   1_455 S
C209   O253    1.291   .     A
C209   O251    1.291   .     A
C209   C211    1.430   .     S
C210   C224    1.435   .     A
C210   C212    1.487   .     S
C210   C218    1.398   .     A
C211   C369    1.334   .     S
C211   H402    1.088   .     S
C212   O254    1.323   .     A
C212   O255    1.286   .     A
C213   C214    1.426   .     S
C214   O256    1.289   .     A
C214   O257    1.292   .     A
C215   O259    1.302   .     A
C215   O258    1.292   .     A
C215   C217    1.455   .     S
C216   C230    1.386   .     A
C216   C694    1.400   1_554 S
C216   H295    1.084   .     S
C217   C229    1.410   .     A
C217   C230    1.396   .     A
C218   H244    1.082   .     S
C218   C219    1.390   .     A
C219   C689    1.393   .     S
C220   C224    1.419   .     A
C220   C689    1.415   .     S
C220   C693    1.432   .     S
C221   H245    1.076   .     S
C221   C688    1.415   1_554 S
C221   C687    1.393   1_554 S
C222   H248    1.110   .     S
C222   H247    1.106   .     S
C222   H289    1.109   .     S
C222   O312    1.403   .     S
C223   H239    1.114   .     S
C223   H240    1.114   .     S
C223   O252    1.410   .     S
C223   H238    1.110   .     S
C224   C228    1.415   .     A
C225   C229    1.410   .     A
C225   C688    1.432   1_554 S
C225   C694    1.422   1_554 S
C226   C227    1.385   .     A
C226   C693    1.422   .     S
C226   C684    1.400   .     S
C227   C228    1.380   .     A
C227   H242    1.083   .     S
C228   F235    1.358   .     S
C229   O252    1.384   .     S
C230   H236    1.083   .     S
Cu231  Cu232   2.695   .     S
Cu231  O254    1.960   .     S
Cu231  N250    2.025   .     S
Cu231  O251    1.958   .     S
Cu231  O258    1.947   .     S
Cu231  O256    1.954   .     S
Cu232  O259    1.960   .     S
Cu232  N249    2.025   .     S
Cu232  O253    1.954   .     S
Cu232  O257    1.958   .     S
Cu232  O255    1.947   .     S
F233   C369    1.362   .     S
F234   C271    1.356   .     S
H241   N302    1.029   .     S
N249   N302    1.294   .     S
N249   O312    1.347   .     S
C261   O305    1.291   .     A
C261   O303    1.291   .     A
C261   C263    1.430   .     S
C262   C276    1.435   .     A
C262   C264    1.487   .     S
C262   C270    1.398   .     A
C263   C421    1.334   .     S
C263   H454    1.088   .     S
C264   O306    1.323   .     A
C264   O307    1.286   .     A
C265   C266    1.426   .     S
C266   O308    1.289   .     A
C266   O309    1.292   .     A
C267   O311    1.302   .     A
C267   O310    1.292   .     A
C267   C269    1.455   .     S
C268   C282    1.386   .     A
C268   C746    1.400   1_554 S
C268   H191    1.084   1_655 S
C269   C281    1.410   .     A
C269   C282    1.396   .     A
C270   H296    1.082   .     S
C270   C271    1.390   .     A
C271   C741    1.393   .     S
C272   C276    1.419   .     A
C272   C741    1.415   .     S
C272   C745    1.432   .     S
C273   H297    1.076   .     S
C273   C740    1.415   1_554 S
C273   C739    1.393   1_554 S
C274   H300    1.110   .     S
C274   H299    1.106   .     S
C274   H185    1.109   1_655 S
C274   O208    1.403   1_655 S
C275   H291    1.114   .     S
C275   H292    1.114   .     S
C275   O304    1.410   .     S
C275   H290    1.110   .     S
C276   C280    1.415   .     A
C277   C281    1.410   .     A
C277   C740    1.432   1_554 S
C277   C746    1.422   1_554 S
C278   C279    1.385   .     A
C278   C745    1.422   .     S
C278   C736    1.400   .     S
C279   C280    1.380   .     A
C279   H294    1.083   .     S
C280   F287    1.358   .     S
C281   O304    1.384   .     S
C282   H288    1.083   .     S
Cu283  Cu284   2.695   .     S
Cu283  O306    1.960   .     S
Cu283  N302    2.025   .     S
Cu283  O303    1.958   .     S
Cu283  O310    1.947   .     S
Cu283  O308    1.954   .     S
Cu284  O311    1.960   .     S
Cu284  N301    2.025   .     S
Cu284  O305    1.954   .     S
Cu284  O309    1.958   .     S
Cu284  O307    1.947   .     S
F285   C421    1.362   .     S
F286   C167    1.356   1_655 S
H293   N198    1.029   1_655 S
N301   N198    1.294   1_655 S
N301   O208    1.347   1_655 S
C313   O357    1.291   .     A
C313   O355    1.291   .     A
C313   C315    1.430   .     S
C314   C328    1.435   .     A
C314   C316    1.487   .     S
C314   C322    1.398   .     A
C315   C5      1.334   1_565 S
C315   H38     1.088   1_565 S
C316   O358    1.323   .     A
C316   O359    1.286   .     A
C317   C318    1.426   .     S
C318   O360    1.289   .     A
C318   O361    1.292   .     A
C319   O363    1.302   .     A
C319   O362    1.292   .     A
C319   C321    1.455   .     S
C320   C334    1.386   .     A
C320   C798    1.400   1_554 S
C320   H399    1.084   .     S
C321   C333    1.410   .     A
C321   C334    1.396   .     A
C322   H348    1.082   .     S
C322   C323    1.390   .     A
C323   C793    1.393   .     S
C323   F442    1.356   1_455 S
C324   C328    1.419   .     A
C324   C793    1.415   .     S
C324   C797    1.432   .     S
C325   H349    1.076   .     S
C325   C792    1.415   1_554 S
C325   C791    1.393   1_554 S
C326   H352    1.110   .     S
C326   H351    1.106   .     S
C326   H393    1.109   .     S
C326   O416    1.403   .     S
C327   H343    1.114   .     S
C327   H344    1.114   .     S
C327   O356    1.410   .     S
C327   H342    1.110   .     S
C328   C332    1.415   .     A
C329   C333    1.410   .     A
C329   C792    1.432   1_554 S
C329   C798    1.422   1_554 S
C330   C331    1.385   .     A
C330   C797    1.422   .     S
C330   C788    1.400   .     S
C331   C332    1.380   .     A
C331   H346    1.083   .     S
C332   F339    1.358   .     S
C333   O356    1.384   .     S
C334   H340    1.083   .     S
Cu335  Cu336   2.695   .     S
Cu335  O358    1.960   .     S
Cu335  N354    2.025   .     S
Cu335  O355    1.958   .     S
Cu335  O362    1.947   .     S
Cu335  O360    1.954   .     S
Cu336  O363    1.960   .     S
Cu336  N353    2.025   .     S
Cu336  O357    1.954   .     S
Cu336  O361    1.958   .     S
Cu336  O359    1.947   .     S
F337   C5      1.362   1_565 S
F338   C375    1.356   .     S
H341   C430    1.109   1_455 S
H345   N406    1.029   .     S
H347   C424    1.084   1_455 S
N353   N406    1.294   .     S
N353   O416    1.347   .     S
N354   N457    1.294   1_455 S
N354   H449    1.029   1_455 S
O364   N457    1.347   1_455 S
O364   C430    1.403   1_455 S
C365   O409    1.291   .     A
C365   O407    1.291   .     A
C365   C367    1.430   .     S
C366   C380    1.435   .     A
C366   C368    1.487   .     S
C366   C374    1.398   .     A
C367   C57     1.334   1_565 S
C367   H90     1.088   1_565 S
C368   O410    1.323   .     A
C368   O411    1.286   .     A
C369   C370    1.426   .     S
C370   O412    1.289   .     A
C370   O413    1.292   .     A
C371   O415    1.302   .     A
C371   O414    1.292   .     A
C371   C373    1.455   .     S
C372   C386    1.386   .     A
C372   C850    1.400   1_554 S
C372   H451    1.084   .     S
C373   C385    1.410   .     A
C373   C386    1.396   .     A
C374   H400    1.082   .     S
C374   C375    1.390   .     A
C375   C845    1.393   .     S
C376   C380    1.419   .     A
C376   C845    1.415   .     S
C376   C849    1.432   .     S
C377   H401    1.076   .     S
C377   C844    1.415   1_554 S
C377   C843    1.393   1_554 S
C378   H404    1.110   .     S
C378   H403    1.106   .     S
C378   H445    1.109   .     S
C378   O468    1.403   .     S
C379   H395    1.114   .     S
C379   H396    1.114   .     S
C379   O408    1.410   .     S
C379   H394    1.110   .     S
C380   C384    1.415   .     A
C381   C385    1.410   .     A
C381   C844    1.432   1_554 S
C381   C850    1.422   1_554 S
C382   C383    1.385   .     A
C382   C849    1.422   .     S
C382   C840    1.400   .     S
C383   C384    1.380   .     A
C383   H398    1.083   .     S
C384   F391    1.358   .     S
C385   O408    1.384   .     S
C386   H392    1.083   .     S
Cu387  Cu388   2.695   .     S
Cu387  O410    1.960   .     S
Cu387  N406    2.025   .     S
Cu387  O407    1.958   .     S
Cu387  O414    1.947   .     S
Cu387  O412    1.954   .     S
Cu388  O415    1.960   .     S
Cu388  N405    2.025   .     S
Cu388  O409    1.954   .     S
Cu388  O413    1.958   .     S
Cu388  O411    1.947   .     S
F389   C57     1.362   1_565 S
F390   C427    1.356   .     S
H397   N458    1.029   .     S
N405   N458    1.294   .     S
N405   O468    1.347   .     S
C417   O461    1.291   .     A
C417   O459    1.291   .     A
C417   C419    1.430   .     S
C418   C432    1.435   .     A
C418   C420    1.487   .     S
C418   C426    1.398   .     A
C419   C109    1.334   1_565 S
C419   H142    1.088   1_565 S
C420   O462    1.323   .     A
C420   O463    1.286   .     A
C421   C422    1.426   .     S
C422   O464    1.289   .     A
C422   O465    1.292   .     A
C423   O467    1.302   .     A
C423   O466    1.292   .     A
C423   C425    1.455   .     S
C424   C438    1.386   .     A
C424   C902    1.400   1_554 S
C424   H347    1.084   1_655 S
C425   C437    1.410   .     A
C425   C438    1.396   .     A
C426   H452    1.082   .     S
C426   C427    1.390   .     A
C427   C897    1.393   .     S
C428   C432    1.419   .     A
C428   C897    1.415   .     S
C428   C901    1.432   .     S
C429   H453    1.076   .     S
C429   C896    1.415   1_554 S
C429   C895    1.393   1_554 S
C430   H456    1.110   .     S
C430   H455    1.106   .     S
C430   H341    1.109   1_655 S
C430   O364    1.403   1_655 S
C431   H447    1.114   .     S
C431   H448    1.114   .     S
C431   O460    1.410   .     S
C431   H446    1.110   .     S
C432   C436    1.415   .     A
C433   C437    1.410   .     A
C433   C896    1.432   1_554 S
C433   C902    1.422   1_554 S
C434   C435    1.385   .     A
C434   C901    1.422   .     S
C434   C892    1.400   .     S
C435   C436    1.380   .     A
C435   H450    1.083   .     S
C436   F443    1.358   .     S
C437   O460    1.384   .     S
C438   H444    1.083   .     S
Cu439  Cu440   2.695   .     S
Cu439  O462    1.960   .     S
Cu439  N458    2.025   .     S
Cu439  O459    1.958   .     S
Cu439  O466    1.947   .     S
Cu439  O464    1.954   .     S
Cu440  O467    1.960   .     S
Cu440  N457    2.025   .     S
Cu440  O461    1.954   .     S
Cu440  O465    1.958   .     S
Cu440  O463    1.947   .     S
F441   C109    1.362   1_565 S
F442   C323    1.356   1_655 S
H449   N354    1.029   1_655 S
N457   N354    1.294   1_655 S
N457   O364    1.347   1_655 S
C469   O513    1.291   .     A
C469   O511    1.291   .     A
C469   C471    1.430   .     S
C470   C484    1.435   .     A
C470   C472    1.487   .     S
C470   C478    1.398   .     A
C471   C629    1.334   .     S
C471   H662    1.088   .     S
C472   O514    1.323   .     A
C472   O515    1.286   .     A
C473   C474    1.426   .     S
C473   C783    1.334   1_545 S
C473   F805    1.362   1_545 S
C474   O516    1.289   .     A
C474   O517    1.292   .     A
C475   O519    1.302   .     A
C475   O518    1.292   .     A
C475   C477    1.455   .     S
C476   C490    1.386   .     A
C476   H555    1.084   .     S
C477   C489    1.410   .     A
C477   C490    1.396   .     A
C478   H504    1.082   .     S
C478   C479    1.390   .     A
C479   C13     1.393   1_556 S
C479   F598    1.356   1_455 S
C480   C484    1.419   .     A
C480   C13     1.415   1_556 S
C480   C17     1.432   1_556 S
C481   H505    1.076   .     S
C482   H508    1.110   .     S
C482   H507    1.106   .     S
C482   H549    1.109   .     S
C482   O572    1.403   .     S
C483   H499    1.114   .     S
C483   H500    1.114   .     S
C483   O512    1.410   .     S
C483   H498    1.110   .     S
C484   C488    1.415   .     A
C485   C489    1.410   .     A
C486   C487    1.385   .     A
C486   C17     1.422   1_556 S
C486   C8      1.400   1_556 S
C487   C488    1.380   .     A
C487   H502    1.083   .     S
C488   F495    1.358   .     S
C489   O512    1.384   .     S
C490   H496    1.083   .     S
Cu491  Cu492   2.695   .     S
Cu491  O514    1.960   .     S
Cu491  N510    2.025   .     S
Cu491  O511    1.958   .     S
Cu491  O518    1.947   .     S
Cu491  O516    1.954   .     S
Cu492  O519    1.960   .     S
Cu492  N509    2.025   .     S
Cu492  O513    1.954   .     S
Cu492  O517    1.958   .     S
Cu492  O515    1.947   .     S
F493   C629    1.362   .     S
F494   C531    1.356   .     S
H497   C586    1.109   1_455 S
H501   N562    1.029   .     S
H503   C580    1.084   1_455 S
H506   C783    1.088   1_545 S
N509   N562    1.294   .     S
N509   O572    1.347   .     S
N510   N613    1.294   1_455 S
N510   H605    1.029   1_455 S
O520   N613    1.347   1_455 S
O520   C586    1.403   1_455 S
C521   O565    1.291   .     A
C521   O563    1.291   .     A
C521   C523    1.430   .     S
C522   C536    1.435   .     A
C522   C524    1.487   .     S
C522   C530    1.398   .     A
C523   C681    1.334   .     S
C523   H714    1.088   .     S
C524   O566    1.323   .     A
C524   O567    1.286   .     A
C525   C526    1.426   .     S
C525   C835    1.334   1_545 S
C525   F857    1.362   1_545 S
C526   O568    1.289   .     A
C526   O569    1.292   .     A
C527   O571    1.302   .     A
C527   O570    1.292   .     A
C527   C529    1.455   .     S
C528   C542    1.386   .     A
C528   H607    1.084   .     S
C529   C541    1.410   .     A
C529   C542    1.396   .     A
C530   H556    1.082   .     S
C530   C531    1.390   .     A
C531   C65     1.393   1_556 S
C532   C536    1.419   .     A
C532   C65     1.415   1_556 S
C532   C69     1.432   1_556 S
C533   H557    1.076   .     S
C534   H560    1.110   .     S
C534   H559    1.106   .     S
C534   H601    1.109   .     S
C534   O624    1.403   .     S
C535   H551    1.114   .     S
C535   H552    1.114   .     S
C535   O564    1.410   .     S
C535   H550    1.110   .     S
C536   C540    1.415   .     A
C537   C541    1.410   .     A
C538   C539    1.385   .     A
C538   C69     1.422   1_556 S
C538   C60     1.400   1_556 S
C539   C540    1.380   .     A
C539   H554    1.083   .     S
C540   F547    1.358   .     S
C541   O564    1.384   .     S
C542   H548    1.083   .     S
Cu543  Cu544   2.695   .     S
Cu543  O566    1.960   .     S
Cu543  N562    2.025   .     S
Cu543  O563    1.958   .     S
Cu543  O570    1.947   .     S
Cu543  O568    1.954   .     S
Cu544  O571    1.960   .     S
Cu544  N561    2.025   .     S
Cu544  O565    1.954   .     S
Cu544  O569    1.958   .     S
Cu544  O567    1.947   .     S
F545   C681    1.362   .     S
F546   C583    1.356   .     S
H553   N614    1.029   .     S
H558   C835    1.088   1_545 S
N561   N614    1.294   .     S
N561   O624    1.347   .     S
C573   O617    1.291   .     A
C573   O615    1.291   .     A
C573   C575    1.430   .     S
C574   C588    1.435   .     A
C574   C576    1.487   .     S
C574   C582    1.398   .     A
C575   C733    1.334   .     S
C575   H766    1.088   .     S
C576   O618    1.323   .     A
C576   O619    1.286   .     A
C577   C578    1.426   .     S
C577   C887    1.334   1_545 S
C577   F909    1.362   1_545 S
C578   O620    1.289   .     A
C578   O621    1.292   .     A
C579   O623    1.302   .     A
C579   O622    1.292   .     A
C579   C581    1.455   .     S
C580   C594    1.386   .     A
C580   H503    1.084   1_655 S
C581   C593    1.410   .     A
C581   C594    1.396   .     A
C582   H608    1.082   .     S
C582   C583    1.390   .     A
C583   C117    1.393   1_556 S
C584   C588    1.419   .     A
C584   C117    1.415   1_556 S
C584   C121    1.432   1_556 S
C585   H609    1.076   .     S
C586   H612    1.110   .     S
C586   H611    1.106   .     S
C586   H497    1.109   1_655 S
C586   O520    1.403   1_655 S
C587   H603    1.114   .     S
C587   H604    1.114   .     S
C587   O616    1.410   .     S
C587   H602    1.110   .     S
C588   C592    1.415   .     A
C589   C593    1.410   .     A
C590   C591    1.385   .     A
C590   C121    1.422   1_556 S
C590   C112    1.400   1_556 S
C591   C592    1.380   .     A
C591   H606    1.083   .     S
C592   F599    1.358   .     S
C593   O616    1.384   .     S
C594   H600    1.083   .     S
Cu595  Cu596   2.695   .     S
Cu595  O618    1.960   .     S
Cu595  N614    2.025   .     S
Cu595  O615    1.958   .     S
Cu595  O622    1.947   .     S
Cu595  O620    1.954   .     S
Cu596  O623    1.960   .     S
Cu596  N613    2.025   .     S
Cu596  O617    1.954   .     S
Cu596  O621    1.958   .     S
Cu596  O619    1.947   .     S
F597   C733    1.362   .     S
F598   C479    1.356   1_655 S
H605   N510    1.029   1_655 S
H610   C887    1.088   1_545 S
N613   N510    1.294   1_655 S
N613   O520    1.347   1_655 S
C625   O669    1.291   .     A
C625   O667    1.291   .     A
C625   C627    1.430   .     S
C626   C640    1.435   .     A
C626   C628    1.487   .     S
C626   C634    1.398   .     A
C627   C785    1.334   .     S
C627   H818    1.088   .     S
C628   O670    1.323   .     A
C628   O671    1.286   .     A
C629   C630    1.426   .     S
C630   O672    1.289   .     A
C630   O673    1.292   .     A
C631   O675    1.302   .     A
C631   O674    1.292   .     A
C631   C633    1.455   .     S
C632   C646    1.386   .     A
C632   H711    1.084   .     S
C633   C645    1.410   .     A
C633   C646    1.396   .     A
C634   H660    1.082   .     S
C634   C635    1.390   .     A
C635   C169    1.393   1_556 S
C635   F754    1.356   1_455 S
C636   C640    1.419   .     A
C636   C169    1.415   1_556 S
C636   C173    1.432   1_556 S
C637   H661    1.076   .     S
C638   H664    1.110   .     S
C638   H663    1.106   .     S
C638   H705    1.109   .     S
C638   O728    1.403   .     S
C639   H655    1.114   .     S
C639   H656    1.114   .     S
C639   O668    1.410   .     S
C639   H654    1.110   .     S
C640   C644    1.415   .     A
C641   C645    1.410   .     A
C642   C643    1.385   .     A
C642   C173    1.422   1_556 S
C642   C164    1.400   1_556 S
C643   C644    1.380   .     A
C643   H658    1.083   .     S
C644   F651    1.358   .     S
C645   O668    1.384   .     S
C646   H652    1.083   .     S
Cu647  Cu648   2.695   .     S
Cu647  O670    1.960   .     S
Cu647  N666    2.025   .     S
Cu647  O667    1.958   .     S
Cu647  O674    1.947   .     S
Cu647  O672    1.954   .     S
Cu648  O675    1.960   .     S
Cu648  N665    2.025   .     S
Cu648  O669    1.954   .     S
Cu648  O673    1.958   .     S
Cu648  O671    1.947   .     S
F649   C785    1.362   .     S
F650   C687    1.356   .     S
H653   C742    1.109   1_455 S
H657   N718    1.029   .     S
H659   C736    1.084   1_455 S
N665   N718    1.294   .     S
N665   O728    1.347   .     S
N666   N769    1.294   1_455 S
N666   H761    1.029   1_455 S
O676   N769    1.347   1_455 S
O676   C742    1.403   1_455 S
C677   O721    1.291   .     A
C677   O719    1.291   .     A
C677   C679    1.430   .     S
C678   C692    1.435   .     A
C678   C680    1.487   .     S
C678   C686    1.398   .     A
C679   C837    1.334   .     S
C679   H870    1.088   .     S
C680   O722    1.323   .     A
C680   O723    1.286   .     A
C681   C682    1.426   .     S
C682   O724    1.289   .     A
C682   O725    1.292   .     A
C683   O727    1.302   .     A
C683   O726    1.292   .     A
C683   C685    1.455   .     S
C684   C698    1.386   .     A
C684   H763    1.084   .     S
C685   C697    1.410   .     A
C685   C698    1.396   .     A
C686   H712    1.082   .     S
C686   C687    1.390   .     A
C687   C221    1.393   1_556 S
C688   C692    1.419   .     A
C688   C221    1.415   1_556 S
C688   C225    1.432   1_556 S
C689   H713    1.076   .     S
C690   H716    1.110   .     S
C690   H715    1.106   .     S
C690   H757    1.109   .     S
C690   O780    1.403   .     S
C691   H707    1.114   .     S
C691   H708    1.114   .     S
C691   O720    1.410   .     S
C691   H706    1.110   .     S
C692   C696    1.415   .     A
C693   C697    1.410   .     A
C694   C695    1.385   .     A
C694   C225    1.422   1_556 S
C694   C216    1.400   1_556 S
C695   C696    1.380   .     A
C695   H710    1.083   .     S
C696   F703    1.358   .     S
C697   O720    1.384   .     S
C698   H704    1.083   .     S
Cu699  Cu700   2.695   .     S
Cu699  O722    1.960   .     S
Cu699  N718    2.025   .     S
Cu699  O719    1.958   .     S
Cu699  O726    1.947   .     S
Cu699  O724    1.954   .     S
Cu700  O727    1.960   .     S
Cu700  N717    2.025   .     S
Cu700  O721    1.954   .     S
Cu700  O725    1.958   .     S
Cu700  O723    1.947   .     S
F701   C837    1.362   .     S
F702   C739    1.356   .     S
H709   N770    1.029   .     S
N717   N770    1.294   .     S
N717   O780    1.347   .     S
C729   O773    1.291   .     A
C729   O771    1.291   .     A
C729   C731    1.430   .     S
C730   C744    1.435   .     A
C730   C732    1.487   .     S
C730   C738    1.398   .     A
C731   C889    1.334   .     S
C731   H922    1.088   .     S
C732   O774    1.323   .     A
C732   O775    1.286   .     A
C733   C734    1.426   .     S
C734   O776    1.289   .     A
C734   O777    1.292   .     A
C735   O779    1.302   .     A
C735   O778    1.292   .     A
C735   C737    1.455   .     S
C736   C750    1.386   .     A
C736   H659    1.084   1_655 S
C737   C749    1.410   .     A
C737   C750    1.396   .     A
C738   H764    1.082   .     S
C738   C739    1.390   .     A
C739   C273    1.393   1_556 S
C740   C744    1.419   .     A
C740   C273    1.415   1_556 S
C740   C277    1.432   1_556 S
C741   H765    1.076   .     S
C742   H768    1.110   .     S
C742   H767    1.106   .     S
C742   H653    1.109   1_655 S
C742   O676    1.403   1_655 S
C743   H759    1.114   .     S
C743   H760    1.114   .     S
C743   O772    1.410   .     S
C743   H758    1.110   .     S
C744   C748    1.415   .     A
C745   C749    1.410   .     A
C746   C747    1.385   .     A
C746   C277    1.422   1_556 S
C746   C268    1.400   1_556 S
C747   C748    1.380   .     A
C747   H762    1.083   .     S
C748   F755    1.358   .     S
C749   O772    1.384   .     S
C750   H756    1.083   .     S
Cu751  Cu752   2.695   .     S
Cu751  O774    1.960   .     S
Cu751  N770    2.025   .     S
Cu751  O771    1.958   .     S
Cu751  O778    1.947   .     S
Cu751  O776    1.954   .     S
Cu752  O779    1.960   .     S
Cu752  N769    2.025   .     S
Cu752  O773    1.954   .     S
Cu752  O777    1.958   .     S
Cu752  O775    1.947   .     S
F753   C889    1.362   .     S
F754   C635    1.356   1_655 S
H761   N666    1.029   1_655 S
N769   N666    1.294   1_655 S
N769   O676    1.347   1_655 S
C781   O825    1.291   .     A
C781   O823    1.291   .     A
C781   C783    1.430   .     S
C782   C796    1.435   .     A
C782   C784    1.487   .     S
C782   C790    1.398   .     A
C783   C473    1.334   1_565 S
C783   H506    1.088   1_565 S
C784   O826    1.323   .     A
C784   O827    1.286   .     A
C785   C786    1.426   .     S
C786   O828    1.289   .     A
C786   O829    1.292   .     A
C787   O831    1.302   .     A
C787   O830    1.292   .     A
C787   C789    1.455   .     S
C788   C802    1.386   .     A
C788   H867    1.084   .     S
C789   C801    1.410   .     A
C789   C802    1.396   .     A
C790   H816    1.082   .     S
C790   C791    1.390   .     A
C791   C325    1.393   1_556 S
C791   F910    1.356   1_455 S
C792   C796    1.419   .     A
C792   C325    1.415   1_556 S
C792   C329    1.432   1_556 S
C793   H817    1.076   .     S
C794   H820    1.110   .     S
C794   H819    1.106   .     S
C794   H861    1.109   .     S
C794   O884    1.403   .     S
C795   H811    1.114   .     S
C795   H812    1.114   .     S
C795   O824    1.410   .     S
C795   H810    1.110   .     S
C796   C800    1.415   .     A
C797   C801    1.410   .     A
C798   C799    1.385   .     A
C798   C329    1.422   1_556 S
C798   C320    1.400   1_556 S
C799   C800    1.380   .     A
C799   H814    1.083   .     S
C800   F807    1.358   .     S
C801   O824    1.384   .     S
C802   H808    1.083   .     S
Cu803  Cu804   2.695   .     S
Cu803  O826    1.960   .     S
Cu803  N822    2.025   .     S
Cu803  O823    1.958   .     S
Cu803  O830    1.947   .     S
Cu803  O828    1.954   .     S
Cu804  O831    1.960   .     S
Cu804  N821    2.025   .     S
Cu804  O825    1.954   .     S
Cu804  O829    1.958   .     S
Cu804  O827    1.947   .     S
F805   C473    1.362   1_565 S
F806   C843    1.356   .     S
H809   C898    1.109   1_455 S
H813   N874    1.029   .     S
H815   C892    1.084   1_455 S
N821   N874    1.294   .     S
N821   O884    1.347   .     S
N822   N925    1.294   1_455 S
N822   H917    1.029   1_455 S
O832   N925    1.347   1_455 S
O832   C898    1.403   1_455 S
C833   O877    1.291   .     A
C833   O875    1.291   .     A
C833   C835    1.430   .     S
C834   C848    1.435   .     A
C834   C836    1.487   .     S
C834   C842    1.398   .     A
C835   C525    1.334   1_565 S
C835   H558    1.088   1_565 S
C836   O878    1.323   .     A
C836   O879    1.286   .     A
C837   C838    1.426   .     S
C838   O880    1.289   .     A
C838   O881    1.292   .     A
C839   O883    1.302   .     A
C839   O882    1.292   .     A
C839   C841    1.455   .     S
C840   C854    1.386   .     A
C840   H919    1.084   .     S
C841   C853    1.410   .     A
C841   C854    1.396   .     A
C842   H868    1.082   .     S
C842   C843    1.390   .     A
C843   C377    1.393   1_556 S
C844   C848    1.419   .     A
C844   C377    1.415   1_556 S
C844   C381    1.432   1_556 S
C845   H869    1.076   .     S
C846   H872    1.110   .     S
C846   H871    1.106   .     S
C846   H913    1.109   .     S
C846   O936    1.403   .     S
C847   H863    1.114   .     S
C847   H864    1.114   .     S
C847   O876    1.410   .     S
C847   H862    1.110   .     S
C848   C852    1.415   .     A
C849   C853    1.410   .     A
C850   C851    1.385   .     A
C850   C381    1.422   1_556 S
C850   C372    1.400   1_556 S
C851   C852    1.380   .     A
C851   H866    1.083   .     S
C852   F859    1.358   .     S
C853   O876    1.384   .     S
C854   H860    1.083   .     S
Cu855  Cu856   2.695   .     S
Cu855  O878    1.960   .     S
Cu855  N874    2.025   .     S
Cu855  O875    1.958   .     S
Cu855  O882    1.947   .     S
Cu855  O880    1.954   .     S
Cu856  O883    1.960   .     S
Cu856  N873    2.025   .     S
Cu856  O877    1.954   .     S
Cu856  O881    1.958   .     S
Cu856  O879    1.947   .     S
F857   C525    1.362   1_565 S
F858   C895    1.356   .     S
H865   N926    1.029   .     S
N873   N926    1.294   .     S
N873   O936    1.347   .     S
C885   O929    1.291   .     A
C885   O927    1.291   .     A
C885   C887    1.430   .     S
C886   C900    1.435   .     A
C886   C888    1.487   .     S
C886   C894    1.398   .     A
C887   C577    1.334   1_565 S
C887   H610    1.088   1_565 S
C888   O930    1.323   .     A
C888   O931    1.286   .     A
C889   C890    1.426   .     S
C890   O932    1.289   .     A
C890   O933    1.292   .     A
C891   O935    1.302   .     A
C891   O934    1.292   .     A
C891   C893    1.455   .     S
C892   C906    1.386   .     A
C892   H815    1.084   1_655 S
C893   C905    1.410   .     A
C893   C906    1.396   .     A
C894   H920    1.082   .     S
C894   C895    1.390   .     A
C895   C429    1.393   1_556 S
C896   C900    1.419   .     A
C896   C429    1.415   1_556 S
C896   C433    1.432   1_556 S
C897   H921    1.076   .     S
C898   H924    1.110   .     S
C898   H923    1.106   .     S
C898   H809    1.109   1_655 S
C898   O832    1.403   1_655 S
C899   H915    1.114   .     S
C899   H916    1.114   .     S
C899   O928    1.410   .     S
C899   H914    1.110   .     S
C900   C904    1.415   .     A
C901   C905    1.410   .     A
C902   C903    1.385   .     A
C902   C433    1.422   1_556 S
C902   C424    1.400   1_556 S
C903   C904    1.380   .     A
C903   H918    1.083   .     S
C904   F911    1.358   .     S
C905   O928    1.384   .     S
C906   H912    1.083   .     S
Cu907  Cu908   2.695   .     S
Cu907  O930    1.960   .     S
Cu907  N926    2.025   .     S
Cu907  O927    1.958   .     S
Cu907  O934    1.947   .     S
Cu907  O932    1.954   .     S
Cu908  O935    1.960   .     S
Cu908  N925    2.025   .     S
Cu908  O929    1.954   .     S
Cu908  O933    1.958   .     S
Cu908  O931    1.947   .     S
F909   C577    1.362   1_565 S
F910   C791    1.356   1_655 S
H917   N822    1.029   1_655 S
N925   N822    1.294   1_655 S
N925   O832    1.347   1_655 S
