data_str_m2_o1_o17_pcu_sym.155
_audit_creation_date              2020-01-03
_audit_creation_method            'Materials Studio'
_symmetry_space_group_name_H-M    'P1'
_symmetry_Int_Tables_number       1
_symmetry_cell_setting            triclinic
loop_
_symmetry_equiv_pos_as_xyz
  x,y,z
_cell_length_a                    32.4121
_cell_length_b                    28.9463
_cell_length_c                    30.2604
_cell_angle_alpha                 89.1178
_cell_angle_beta                  93.3305
_cell_angle_gamma                 90.1456
loop_
_atom_site_label
_atom_site_type_symbol
_atom_site_fract_x
_atom_site_fract_y
_atom_site_fract_z
_atom_site_U_iso_or_equiv
_atom_site_adp_type
_atom_site_occupancy
C1     C     0.08754   0.16664   0.24953   0.00000  Uiso   1.00
C2     C     0.24579   0.16669   0.25047   0.00000  Uiso   1.00
C3     C     0.15238   0.24974   0.01984   0.00000  Uiso   1.00
C4     C     0.18096   0.08360   0.48016   0.00000  Uiso   1.00
C5     C     0.01972   0.13902   0.21946   0.00000  Uiso   1.00
C6     C     0.31362   0.19432   0.28054   0.00000  Uiso   1.00
C7     C     0.30960   0.13985   0.21920   0.00000  Uiso   1.00
C8     C     0.02374   0.19348   0.28080   0.00000  Uiso   1.00
C9     C     0.29053   0.16656   0.25050   0.00000  Uiso   1.00
C10    C     0.04281   0.16677   0.24950   0.00000  Uiso   1.00
C11    C     0.14526   0.02487   0.21728   0.00000  Uiso   1.00
C12    C     0.18807   0.30846   0.28272   0.00000  Uiso   1.00
C13    C     0.18827   0.02393   0.28259   0.00000  Uiso   1.00
C14    C     0.14507   0.30940   0.21741   0.00000  Uiso   1.00
C15    C     0.16659   0.16703   0.16439   0.00000  Uiso   1.00
C16    C     0.16675   0.16630   0.33561   0.00000  Uiso   1.00
C17    C     0.17317   0.12430   0.40868   0.00000  Uiso   1.00
C18    C     0.16016   0.20903   0.09132   0.00000  Uiso   1.00
C19    C     0.16657   0.16562   0.38414   0.00000  Uiso   1.00
C20    C     0.16676   0.16772   0.11586   0.00000  Uiso   1.00
C21    C     0.15973   0.20691   0.40609   0.00000  Uiso   1.00
C22    C     0.17361   0.12642   0.09391   0.00000  Uiso   1.00
C23    C     0.15951   0.20762   0.45211   0.00000  Uiso   1.00
C24    C     0.17382   0.12571   0.04789   0.00000  Uiso   1.00
C25    C     0.16662   0.16634   0.47677   0.00000  Uiso   1.00
C26    C     0.16672   0.16700   0.02323   0.00000  Uiso   1.00
C27    C     0.17359   0.12441   0.45502   0.00000  Uiso   1.00
C28    C     0.15974   0.20892   0.04498   0.00000  Uiso   1.00
C29    C     0.15227   0.24900   0.47383   0.00000  Uiso   1.00
C30    C     0.18106   0.08433   0.02617   0.00000  Uiso   1.00
Cu31   Cu    0.16667   0.21355   0.25000   0.00000  Uiso   1.00
Cu32   Cu    0.16667   0.11978   0.25000   0.00000  Uiso   1.00
H33    H     0.15431   0.23865   0.38720   0.00000  Uiso   1.00
H34    H     0.17903   0.09468   0.11280   0.00000  Uiso   1.00
N35    N     0.16667   0.28402   0.25000   0.00000  Uiso   1.00
N36    N     0.16667   0.04931   0.25000   0.00000  Uiso   1.00
O37    O     0.10655   0.20625   0.25000   0.00000  Uiso   1.00
O38    O     0.22679   0.12709   0.25000   0.00000  Uiso   1.00
O39    O     0.22679   0.20625   0.25000   0.00000  Uiso   1.00
O40    O     0.10655   0.12709   0.24999   0.00000  Uiso   1.00
O41    O     0.16666   0.20627   0.18513   0.00000  Uiso   1.00
O42    O     0.16668   0.12707   0.31487   0.00000  Uiso   1.00
O43    O     0.16668   0.20627   0.31487   0.00000  Uiso   1.00
O44    O     0.16666   0.12707   0.18513   0.00000  Uiso   1.00
F45    F     0.17935   0.08408   0.38761   0.00000  Uiso   1.00
F46    F     0.15398   0.24925   0.11239   0.00000  Uiso   1.00
F47    F     0.14486   0.28887   0.45049   0.00000  Uiso   1.00
F48    F     0.18848   0.04446   0.04951   0.00000  Uiso   1.00
F49    F     0.14495   0.29052   0.03946   0.00000  Uiso   1.00
F50    F     0.18838   0.04281   0.46054   0.00000  Uiso   1.00
O51    O     0.04038   0.11200   0.19074   0.00000  Uiso   1.00
H52    H     0.02377   0.08389   0.18424   0.00000  Uiso   1.00
O53    O     0.29295   0.22134   0.30926   0.00000  Uiso   1.00
H54    H     0.30956   0.24945   0.31574   0.00000  Uiso   1.00
O55    O     0.28491   0.11699   0.18773   0.00000  Uiso   1.00
H56    H     0.29991   0.11449   0.16029   0.00000  Uiso   1.00
O57    O     0.04843   0.21635   0.31227   0.00000  Uiso   1.00
H58    H     0.03342   0.21885   0.33971   0.00000  Uiso   1.00
O59    O     0.12266   0.04637   0.18309   0.00000  Uiso   1.00
H60    H     0.11263   0.07575   0.19390   0.00000  Uiso   1.00
O61    O     0.21067   0.28696   0.31691   0.00000  Uiso   1.00
H62    H     0.22070   0.25758   0.30610   0.00000  Uiso   1.00
O63    O     0.21189   0.04434   0.31611   0.00000  Uiso   1.00
H64    H     0.22025   0.07509   0.30608   0.00000  Uiso   1.00
O65    O     0.12144   0.28899   0.18389   0.00000  Uiso   1.00
H66    H     0.11308   0.25825   0.19392   0.00000  Uiso   1.00
C67    C     0.42088   0.16664   0.24953   0.00000  Uiso   1.00
C68    C     0.57912   0.16669   0.25047   0.00000  Uiso   1.00
C69    C     0.48571   0.24974   0.01984   0.00000  Uiso   1.00
C70    C     0.51429   0.08360   0.48016   0.00000  Uiso   1.00
C71    C     0.35305   0.13902   0.21946   0.00000  Uiso   1.00
C72    C     0.64695   0.19432   0.28054   0.00000  Uiso   1.00
C73    C     0.64293   0.13985   0.21920   0.00000  Uiso   1.00
C74    C     0.35707   0.19348   0.28080   0.00000  Uiso   1.00
C75    C     0.62386   0.16656   0.25050   0.00000  Uiso   1.00
C76    C     0.37614   0.16677   0.24950   0.00000  Uiso   1.00
C77    C     0.47860   0.02487   0.21728   0.00000  Uiso   1.00
C78    C     0.52140   0.30846   0.28272   0.00000  Uiso   1.00
C79    C     0.52160   0.02393   0.28259   0.00000  Uiso   1.00
C80    C     0.47840   0.30940   0.21741   0.00000  Uiso   1.00
C81    C     0.49992   0.16703   0.16439   0.00000  Uiso   1.00
C82    C     0.50008   0.16630   0.33561   0.00000  Uiso   1.00
C83    C     0.50650   0.12430   0.40868   0.00000  Uiso   1.00
C84    C     0.49350   0.20903   0.09132   0.00000  Uiso   1.00
C85    C     0.49990   0.16562   0.38414   0.00000  Uiso   1.00
C86    C     0.50010   0.16772   0.11586   0.00000  Uiso   1.00
C87    C     0.49306   0.20691   0.40609   0.00000  Uiso   1.00
C88    C     0.50694   0.12642   0.09391   0.00000  Uiso   1.00
C89    C     0.49284   0.20762   0.45211   0.00000  Uiso   1.00
C90    C     0.50716   0.12571   0.04789   0.00000  Uiso   1.00
C91    C     0.49995   0.16634   0.47677   0.00000  Uiso   1.00
C92    C     0.50005   0.16700   0.02323   0.00000  Uiso   1.00
C93    C     0.50693   0.12441   0.45502   0.00000  Uiso   1.00
C94    C     0.49307   0.20892   0.04498   0.00000  Uiso   1.00
C95    C     0.48560   0.24900   0.47383   0.00000  Uiso   1.00
C96    C     0.51440   0.08433   0.02617   0.00000  Uiso   1.00
Cu97   Cu    0.50000   0.21355   0.25000   0.00000  Uiso   1.00
Cu98   Cu    0.50000   0.11978   0.25000   0.00000  Uiso   1.00
H99    H     0.48764   0.23865   0.38720   0.00000  Uiso   1.00
H100   H     0.51236   0.09468   0.11280   0.00000  Uiso   1.00
N101   N     0.50000   0.28402   0.25000   0.00000  Uiso   1.00
N102   N     0.50000   0.04931   0.25000   0.00000  Uiso   1.00
O103   O     0.43988   0.20625   0.25000   0.00000  Uiso   1.00
O104   O     0.56012   0.12709   0.25000   0.00000  Uiso   1.00
O105   O     0.56012   0.20625   0.25000   0.00000  Uiso   1.00
O106   O     0.43988   0.12709   0.24999   0.00000  Uiso   1.00
O107   O     0.49999   0.20627   0.18513   0.00000  Uiso   1.00
O108   O     0.50001   0.12707   0.31487   0.00000  Uiso   1.00
O109   O     0.50001   0.20627   0.31487   0.00000  Uiso   1.00
O110   O     0.49999   0.12707   0.18513   0.00000  Uiso   1.00
F111   F     0.51268   0.08408   0.38761   0.00000  Uiso   1.00
F112   F     0.48732   0.24925   0.11239   0.00000  Uiso   1.00
F113   F     0.47819   0.28887   0.45049   0.00000  Uiso   1.00
F114   F     0.52181   0.04446   0.04951   0.00000  Uiso   1.00
F115   F     0.47828   0.29052   0.03946   0.00000  Uiso   1.00
F116   F     0.52172   0.04281   0.46054   0.00000  Uiso   1.00
O117   O     0.37372   0.11200   0.19074   0.00000  Uiso   1.00
H118   H     0.35710   0.08389   0.18424   0.00000  Uiso   1.00
O119   O     0.62628   0.22134   0.30926   0.00000  Uiso   1.00
H120   H     0.64290   0.24945   0.31574   0.00000  Uiso   1.00
O121   O     0.61824   0.11699   0.18773   0.00000  Uiso   1.00
H122   H     0.63324   0.11449   0.16029   0.00000  Uiso   1.00
O123   O     0.38176   0.21635   0.31227   0.00000  Uiso   1.00
H124   H     0.36675   0.21885   0.33971   0.00000  Uiso   1.00
O125   O     0.45600   0.04637   0.18309   0.00000  Uiso   1.00
H126   H     0.44597   0.07575   0.19390   0.00000  Uiso   1.00
O127   O     0.54400   0.28696   0.31691   0.00000  Uiso   1.00
H128   H     0.55403   0.25758   0.30610   0.00000  Uiso   1.00
O129   O     0.54522   0.04434   0.31611   0.00000  Uiso   1.00
H130   H     0.55359   0.07509   0.30608   0.00000  Uiso   1.00
O131   O     0.45478   0.28899   0.18389   0.00000  Uiso   1.00
H132   H     0.44641   0.25825   0.19392   0.00000  Uiso   1.00
C133   C     0.75421   0.16664   0.24953   0.00000  Uiso   1.00
C134   C     0.91246   0.16669   0.25047   0.00000  Uiso   1.00
C135   C     0.81905   0.24974   0.01984   0.00000  Uiso   1.00
C136   C     0.84762   0.08360   0.48016   0.00000  Uiso   1.00
C137   C     0.68639   0.13902   0.21946   0.00000  Uiso   1.00
C138   C     0.98028   0.19432   0.28054   0.00000  Uiso   1.00
C139   C     0.97626   0.13985   0.21920   0.00000  Uiso   1.00
C140   C     0.69040   0.19348   0.28080   0.00000  Uiso   1.00
C141   C     0.95719   0.16656   0.25050   0.00000  Uiso   1.00
C142   C     0.70948   0.16677   0.24950   0.00000  Uiso   1.00
C143   C     0.81193   0.02487   0.21728   0.00000  Uiso   1.00
C144   C     0.85474   0.30846   0.28272   0.00000  Uiso   1.00
C145   C     0.85493   0.02393   0.28259   0.00000  Uiso   1.00
C146   C     0.81173   0.30940   0.21741   0.00000  Uiso   1.00
C147   C     0.83325   0.16703   0.16439   0.00000  Uiso   1.00
C148   C     0.83341   0.16630   0.33561   0.00000  Uiso   1.00
C149   C     0.83984   0.12430   0.40868   0.00000  Uiso   1.00
C150   C     0.82683   0.20903   0.09132   0.00000  Uiso   1.00
C151   C     0.83324   0.16562   0.38414   0.00000  Uiso   1.00
C152   C     0.83343   0.16772   0.11586   0.00000  Uiso   1.00
C153   C     0.82640   0.20691   0.40609   0.00000  Uiso   1.00
C154   C     0.84027   0.12642   0.09391   0.00000  Uiso   1.00
C155   C     0.82618   0.20762   0.45211   0.00000  Uiso   1.00
C156   C     0.84049   0.12571   0.04789   0.00000  Uiso   1.00
C157   C     0.83329   0.16634   0.47677   0.00000  Uiso   1.00
C158   C     0.83338   0.16700   0.02323   0.00000  Uiso   1.00
C159   C     0.84026   0.12441   0.45502   0.00000  Uiso   1.00
C160   C     0.82641   0.20892   0.04498   0.00000  Uiso   1.00
C161   C     0.81894   0.24900   0.47383   0.00000  Uiso   1.00
C162   C     0.84773   0.08433   0.02617   0.00000  Uiso   1.00
Cu163  Cu    0.83333   0.21355   0.25000   0.00000  Uiso   1.00
Cu164  Cu    0.83333   0.11978   0.25000   0.00000  Uiso   1.00
H165   H     0.82098   0.23865   0.38720   0.00000  Uiso   1.00
H166   H     0.84569   0.09468   0.11280   0.00000  Uiso   1.00
N167   N     0.83333   0.28402   0.25000   0.00000  Uiso   1.00
N168   N     0.83333   0.04931   0.25000   0.00000  Uiso   1.00
O169   O     0.77321   0.20625   0.25000   0.00000  Uiso   1.00
O170   O     0.89345   0.12709   0.25000   0.00000  Uiso   1.00
O171   O     0.89345   0.20625   0.25000   0.00000  Uiso   1.00
O172   O     0.77321   0.12709   0.24999   0.00000  Uiso   1.00
O173   O     0.83332   0.20627   0.18513   0.00000  Uiso   1.00
O174   O     0.83334   0.12707   0.31487   0.00000  Uiso   1.00
O175   O     0.83334   0.20627   0.31487   0.00000  Uiso   1.00
O176   O     0.83332   0.12707   0.18513   0.00000  Uiso   1.00
F177   F     0.84602   0.08408   0.38761   0.00000  Uiso   1.00
F178   F     0.82065   0.24925   0.11239   0.00000  Uiso   1.00
F179   F     0.81152   0.28887   0.45049   0.00000  Uiso   1.00
F180   F     0.85514   0.04446   0.04951   0.00000  Uiso   1.00
F181   F     0.81162   0.29052   0.03946   0.00000  Uiso   1.00
F182   F     0.85505   0.04281   0.46054   0.00000  Uiso   1.00
O183   O     0.70705   0.11200   0.19074   0.00000  Uiso   1.00
H184   H     0.69044   0.08389   0.18424   0.00000  Uiso   1.00
O185   O     0.95962   0.22134   0.30926   0.00000  Uiso   1.00
H186   H     0.97623   0.24945   0.31574   0.00000  Uiso   1.00
O187   O     0.95157   0.11699   0.18773   0.00000  Uiso   1.00
H188   H     0.96658   0.11449   0.16029   0.00000  Uiso   1.00
O189   O     0.71509   0.21635   0.31227   0.00000  Uiso   1.00
H190   H     0.70009   0.21885   0.33971   0.00000  Uiso   1.00
O191   O     0.78933   0.04637   0.18309   0.00000  Uiso   1.00
H192   H     0.77930   0.07575   0.19390   0.00000  Uiso   1.00
O193   O     0.87734   0.28696   0.31691   0.00000  Uiso   1.00
H194   H     0.88737   0.25758   0.30610   0.00000  Uiso   1.00
O195   O     0.87856   0.04434   0.31611   0.00000  Uiso   1.00
H196   H     0.88692   0.07509   0.30608   0.00000  Uiso   1.00
O197   O     0.78811   0.28899   0.18389   0.00000  Uiso   1.00
H198   H     0.77975   0.25825   0.19392   0.00000  Uiso   1.00
C199   C     0.08754   0.49997   0.24953   0.00000  Uiso   1.00
C200   C     0.24579   0.50003   0.25047   0.00000  Uiso   1.00
C201   C     0.15238   0.58307   0.01984   0.00000  Uiso   1.00
C202   C     0.18096   0.41693   0.48016   0.00000  Uiso   1.00
C203   C     0.01972   0.47235   0.21946   0.00000  Uiso   1.00
C204   C     0.31362   0.52765   0.28054   0.00000  Uiso   1.00
C205   C     0.30960   0.47318   0.21920   0.00000  Uiso   1.00
C206   C     0.02374   0.52682   0.28080   0.00000  Uiso   1.00
C207   C     0.29053   0.49989   0.25050   0.00000  Uiso   1.00
C208   C     0.04281   0.50011   0.24950   0.00000  Uiso   1.00
C209   C     0.14526   0.35820   0.21728   0.00000  Uiso   1.00
C210   C     0.18807   0.64180   0.28272   0.00000  Uiso   1.00
C211   C     0.18827   0.35727   0.28259   0.00000  Uiso   1.00
C212   C     0.14507   0.64273   0.21741   0.00000  Uiso   1.00
C213   C     0.16659   0.50037   0.16439   0.00000  Uiso   1.00
C214   C     0.16675   0.49963   0.33561   0.00000  Uiso   1.00
C215   C     0.17317   0.45763   0.40868   0.00000  Uiso   1.00
C216   C     0.16016   0.54237   0.09132   0.00000  Uiso   1.00
C217   C     0.16657   0.49895   0.38414   0.00000  Uiso   1.00
C218   C     0.16676   0.50105   0.11586   0.00000  Uiso   1.00
C219   C     0.15973   0.54024   0.40609   0.00000  Uiso   1.00
C220   C     0.17361   0.45976   0.09391   0.00000  Uiso   1.00
C221   C     0.15951   0.54096   0.45211   0.00000  Uiso   1.00
C222   C     0.17382   0.45904   0.04789   0.00000  Uiso   1.00
C223   C     0.16662   0.49967   0.47677   0.00000  Uiso   1.00
C224   C     0.16672   0.50033   0.02323   0.00000  Uiso   1.00
C225   C     0.17359   0.45774   0.45502   0.00000  Uiso   1.00
C226   C     0.15974   0.54225   0.04498   0.00000  Uiso   1.00
C227   C     0.15227   0.58233   0.47383   0.00000  Uiso   1.00
C228   C     0.18106   0.41766   0.02617   0.00000  Uiso   1.00
Cu229  Cu    0.16667   0.54689   0.25000   0.00000  Uiso   1.00
Cu230  Cu    0.16667   0.45311   0.25000   0.00000  Uiso   1.00
H231   H     0.15431   0.57199   0.38720   0.00000  Uiso   1.00
H232   H     0.17903   0.42801   0.11280   0.00000  Uiso   1.00
N233   N     0.16667   0.61736   0.25000   0.00000  Uiso   1.00
N234   N     0.16667   0.38264   0.25000   0.00000  Uiso   1.00
O235   O     0.10655   0.53958   0.25000   0.00000  Uiso   1.00
O236   O     0.22679   0.46042   0.25000   0.00000  Uiso   1.00
O237   O     0.22679   0.53958   0.25000   0.00000  Uiso   1.00
O238   O     0.10655   0.46042   0.24999   0.00000  Uiso   1.00
O239   O     0.16666   0.53960   0.18513   0.00000  Uiso   1.00
O240   O     0.16668   0.46040   0.31487   0.00000  Uiso   1.00
O241   O     0.16668   0.53960   0.31487   0.00000  Uiso   1.00
O242   O     0.16666   0.46040   0.18513   0.00000  Uiso   1.00
F243   F     0.17935   0.41741   0.38761   0.00000  Uiso   1.00
F244   F     0.15398   0.58258   0.11239   0.00000  Uiso   1.00
F245   F     0.14486   0.62221   0.45049   0.00000  Uiso   1.00
F246   F     0.18848   0.37779   0.04951   0.00000  Uiso   1.00
F247   F     0.14495   0.62385   0.03946   0.00000  Uiso   1.00
F248   F     0.18838   0.37615   0.46054   0.00000  Uiso   1.00
O249   O     0.04038   0.44533   0.19074   0.00000  Uiso   1.00
H250   H     0.02377   0.41722   0.18424   0.00000  Uiso   1.00
O251   O     0.29295   0.55467   0.30926   0.00000  Uiso   1.00
H252   H     0.30956   0.58278   0.31574   0.00000  Uiso   1.00
O253   O     0.28491   0.45032   0.18773   0.00000  Uiso   1.00
H254   H     0.29991   0.44782   0.16029   0.00000  Uiso   1.00
O255   O     0.04843   0.54968   0.31227   0.00000  Uiso   1.00
H256   H     0.03342   0.55218   0.33971   0.00000  Uiso   1.00
O257   O     0.12266   0.37971   0.18309   0.00000  Uiso   1.00
H258   H     0.11263   0.40908   0.19390   0.00000  Uiso   1.00
O259   O     0.21067   0.62029   0.31691   0.00000  Uiso   1.00
H260   H     0.22070   0.59091   0.30610   0.00000  Uiso   1.00
O261   O     0.21189   0.37767   0.31611   0.00000  Uiso   1.00
H262   H     0.22025   0.40842   0.30608   0.00000  Uiso   1.00
O263   O     0.12144   0.62233   0.18389   0.00000  Uiso   1.00
H264   H     0.11308   0.59158   0.19392   0.00000  Uiso   1.00
C265   C     0.42088   0.49997   0.24953   0.00000  Uiso   1.00
C266   C     0.57912   0.50003   0.25047   0.00000  Uiso   1.00
C267   C     0.48571   0.58307   0.01984   0.00000  Uiso   1.00
C268   C     0.51429   0.41693   0.48016   0.00000  Uiso   1.00
C269   C     0.35305   0.47235   0.21946   0.00000  Uiso   1.00
C270   C     0.64695   0.52765   0.28054   0.00000  Uiso   1.00
C271   C     0.64293   0.47318   0.21920   0.00000  Uiso   1.00
C272   C     0.35707   0.52682   0.28080   0.00000  Uiso   1.00
C273   C     0.62386   0.49989   0.25050   0.00000  Uiso   1.00
C274   C     0.37614   0.50011   0.24950   0.00000  Uiso   1.00
C275   C     0.47860   0.35820   0.21728   0.00000  Uiso   1.00
C276   C     0.52140   0.64180   0.28272   0.00000  Uiso   1.00
C277   C     0.52160   0.35727   0.28259   0.00000  Uiso   1.00
C278   C     0.47840   0.64273   0.21741   0.00000  Uiso   1.00
C279   C     0.49992   0.50037   0.16439   0.00000  Uiso   1.00
C280   C     0.50008   0.49963   0.33561   0.00000  Uiso   1.00
C281   C     0.50650   0.45763   0.40868   0.00000  Uiso   1.00
C282   C     0.49350   0.54237   0.09132   0.00000  Uiso   1.00
C283   C     0.49990   0.49895   0.38414   0.00000  Uiso   1.00
C284   C     0.50010   0.50105   0.11586   0.00000  Uiso   1.00
C285   C     0.49306   0.54024   0.40609   0.00000  Uiso   1.00
C286   C     0.50694   0.45976   0.09391   0.00000  Uiso   1.00
C287   C     0.49284   0.54096   0.45211   0.00000  Uiso   1.00
C288   C     0.50716   0.45904   0.04789   0.00000  Uiso   1.00
C289   C     0.49995   0.49967   0.47677   0.00000  Uiso   1.00
C290   C     0.50005   0.50033   0.02323   0.00000  Uiso   1.00
C291   C     0.50693   0.45774   0.45502   0.00000  Uiso   1.00
C292   C     0.49307   0.54225   0.04498   0.00000  Uiso   1.00
C293   C     0.48560   0.58233   0.47383   0.00000  Uiso   1.00
C294   C     0.51440   0.41766   0.02617   0.00000  Uiso   1.00
Cu295  Cu    0.50000   0.54689   0.25000   0.00000  Uiso   1.00
Cu296  Cu    0.50000   0.45311   0.25000   0.00000  Uiso   1.00
H297   H     0.48764   0.57199   0.38720   0.00000  Uiso   1.00
H298   H     0.51236   0.42801   0.11280   0.00000  Uiso   1.00
N299   N     0.50000   0.61736   0.25000   0.00000  Uiso   1.00
N300   N     0.50000   0.38264   0.25000   0.00000  Uiso   1.00
O301   O     0.43988   0.53958   0.25000   0.00000  Uiso   1.00
O302   O     0.56012   0.46042   0.25000   0.00000  Uiso   1.00
O303   O     0.56012   0.53958   0.25000   0.00000  Uiso   1.00
O304   O     0.43988   0.46042   0.24999   0.00000  Uiso   1.00
O305   O     0.49999   0.53960   0.18513   0.00000  Uiso   1.00
O306   O     0.50001   0.46040   0.31487   0.00000  Uiso   1.00
O307   O     0.50001   0.53960   0.31487   0.00000  Uiso   1.00
O308   O     0.49999   0.46040   0.18513   0.00000  Uiso   1.00
F309   F     0.51268   0.41741   0.38761   0.00000  Uiso   1.00
F310   F     0.48732   0.58258   0.11239   0.00000  Uiso   1.00
F311   F     0.47819   0.62221   0.45049   0.00000  Uiso   1.00
F312   F     0.52181   0.37779   0.04951   0.00000  Uiso   1.00
F313   F     0.47828   0.62385   0.03946   0.00000  Uiso   1.00
F314   F     0.52172   0.37615   0.46054   0.00000  Uiso   1.00
O315   O     0.37372   0.44533   0.19074   0.00000  Uiso   1.00
H316   H     0.35710   0.41722   0.18424   0.00000  Uiso   1.00
O317   O     0.62628   0.55467   0.30926   0.00000  Uiso   1.00
H318   H     0.64290   0.58278   0.31574   0.00000  Uiso   1.00
O319   O     0.61824   0.45032   0.18773   0.00000  Uiso   1.00
H320   H     0.63324   0.44782   0.16029   0.00000  Uiso   1.00
O321   O     0.38176   0.54968   0.31227   0.00000  Uiso   1.00
H322   H     0.36675   0.55218   0.33971   0.00000  Uiso   1.00
O323   O     0.45600   0.37971   0.18309   0.00000  Uiso   1.00
H324   H     0.44597   0.40908   0.19390   0.00000  Uiso   1.00
O325   O     0.54400   0.62029   0.31691   0.00000  Uiso   1.00
H326   H     0.55403   0.59091   0.30610   0.00000  Uiso   1.00
O327   O     0.54522   0.37767   0.31611   0.00000  Uiso   1.00
H328   H     0.55359   0.40842   0.30608   0.00000  Uiso   1.00
O329   O     0.45478   0.62233   0.18389   0.00000  Uiso   1.00
H330   H     0.44641   0.59158   0.19392   0.00000  Uiso   1.00
C331   C     0.75421   0.49997   0.24953   0.00000  Uiso   1.00
C332   C     0.91246   0.50003   0.25047   0.00000  Uiso   1.00
C333   C     0.81905   0.58307   0.01984   0.00000  Uiso   1.00
C334   C     0.84762   0.41693   0.48016   0.00000  Uiso   1.00
C335   C     0.68639   0.47235   0.21946   0.00000  Uiso   1.00
C336   C     0.98028   0.52765   0.28054   0.00000  Uiso   1.00
C337   C     0.97626   0.47318   0.21920   0.00000  Uiso   1.00
C338   C     0.69040   0.52682   0.28080   0.00000  Uiso   1.00
C339   C     0.95719   0.49989   0.25050   0.00000  Uiso   1.00
C340   C     0.70948   0.50011   0.24950   0.00000  Uiso   1.00
C341   C     0.81193   0.35820   0.21728   0.00000  Uiso   1.00
C342   C     0.85474   0.64180   0.28272   0.00000  Uiso   1.00
C343   C     0.85493   0.35727   0.28259   0.00000  Uiso   1.00
C344   C     0.81173   0.64273   0.21741   0.00000  Uiso   1.00
C345   C     0.83325   0.50037   0.16439   0.00000  Uiso   1.00
C346   C     0.83341   0.49963   0.33561   0.00000  Uiso   1.00
C347   C     0.83984   0.45763   0.40868   0.00000  Uiso   1.00
C348   C     0.82683   0.54237   0.09132   0.00000  Uiso   1.00
C349   C     0.83324   0.49895   0.38414   0.00000  Uiso   1.00
C350   C     0.83343   0.50105   0.11586   0.00000  Uiso   1.00
C351   C     0.82640   0.54024   0.40609   0.00000  Uiso   1.00
C352   C     0.84027   0.45976   0.09391   0.00000  Uiso   1.00
C353   C     0.82618   0.54096   0.45211   0.00000  Uiso   1.00
C354   C     0.84049   0.45904   0.04789   0.00000  Uiso   1.00
C355   C     0.83329   0.49967   0.47677   0.00000  Uiso   1.00
C356   C     0.83338   0.50033   0.02323   0.00000  Uiso   1.00
C357   C     0.84026   0.45774   0.45502   0.00000  Uiso   1.00
C358   C     0.82641   0.54225   0.04498   0.00000  Uiso   1.00
C359   C     0.81894   0.58233   0.47383   0.00000  Uiso   1.00
C360   C     0.84773   0.41766   0.02617   0.00000  Uiso   1.00
Cu361  Cu    0.83333   0.54689   0.25000   0.00000  Uiso   1.00
Cu362  Cu    0.83333   0.45311   0.25000   0.00000  Uiso   1.00
H363   H     0.82098   0.57199   0.38720   0.00000  Uiso   1.00
H364   H     0.84569   0.42801   0.11280   0.00000  Uiso   1.00
N365   N     0.83333   0.61736   0.25000   0.00000  Uiso   1.00
N366   N     0.83333   0.38264   0.25000   0.00000  Uiso   1.00
O367   O     0.77321   0.53958   0.25000   0.00000  Uiso   1.00
O368   O     0.89345   0.46042   0.25000   0.00000  Uiso   1.00
O369   O     0.89345   0.53958   0.25000   0.00000  Uiso   1.00
O370   O     0.77321   0.46042   0.24999   0.00000  Uiso   1.00
O371   O     0.83332   0.53960   0.18513   0.00000  Uiso   1.00
O372   O     0.83334   0.46040   0.31487   0.00000  Uiso   1.00
O373   O     0.83334   0.53960   0.31487   0.00000  Uiso   1.00
O374   O     0.83332   0.46040   0.18513   0.00000  Uiso   1.00
F375   F     0.84602   0.41741   0.38761   0.00000  Uiso   1.00
F376   F     0.82065   0.58258   0.11239   0.00000  Uiso   1.00
F377   F     0.81152   0.62221   0.45049   0.00000  Uiso   1.00
F378   F     0.85514   0.37779   0.04951   0.00000  Uiso   1.00
F379   F     0.81162   0.62385   0.03946   0.00000  Uiso   1.00
F380   F     0.85505   0.37615   0.46054   0.00000  Uiso   1.00
O381   O     0.70705   0.44533   0.19074   0.00000  Uiso   1.00
H382   H     0.69044   0.41722   0.18424   0.00000  Uiso   1.00
O383   O     0.95962   0.55467   0.30926   0.00000  Uiso   1.00
H384   H     0.97623   0.58278   0.31574   0.00000  Uiso   1.00
O385   O     0.95157   0.45032   0.18773   0.00000  Uiso   1.00
H386   H     0.96658   0.44782   0.16029   0.00000  Uiso   1.00
O387   O     0.71509   0.54968   0.31227   0.00000  Uiso   1.00
H388   H     0.70009   0.55218   0.33971   0.00000  Uiso   1.00
O389   O     0.78933   0.37971   0.18309   0.00000  Uiso   1.00
H390   H     0.77930   0.40908   0.19390   0.00000  Uiso   1.00
O391   O     0.87734   0.62029   0.31691   0.00000  Uiso   1.00
H392   H     0.88737   0.59091   0.30610   0.00000  Uiso   1.00
O393   O     0.87856   0.37767   0.31611   0.00000  Uiso   1.00
H394   H     0.88692   0.40842   0.30608   0.00000  Uiso   1.00
O395   O     0.78811   0.62233   0.18389   0.00000  Uiso   1.00
H396   H     0.77975   0.59158   0.19392   0.00000  Uiso   1.00
C397   C     0.08754   0.83331   0.24953   0.00000  Uiso   1.00
C398   C     0.24579   0.83336   0.25047   0.00000  Uiso   1.00
C399   C     0.15238   0.91640   0.01984   0.00000  Uiso   1.00
C400   C     0.18096   0.75026   0.48016   0.00000  Uiso   1.00
C401   C     0.01972   0.80568   0.21946   0.00000  Uiso   1.00
C402   C     0.31362   0.86098   0.28054   0.00000  Uiso   1.00
C403   C     0.30960   0.80652   0.21920   0.00000  Uiso   1.00
C404   C     0.02374   0.86015   0.28080   0.00000  Uiso   1.00
C405   C     0.29053   0.83323   0.25050   0.00000  Uiso   1.00
C406   C     0.04281   0.83344   0.24950   0.00000  Uiso   1.00
C407   C     0.14526   0.69154   0.21728   0.00000  Uiso   1.00
C408   C     0.18807   0.97513   0.28272   0.00000  Uiso   1.00
C409   C     0.18827   0.69060   0.28259   0.00000  Uiso   1.00
C410   C     0.14507   0.97607   0.21741   0.00000  Uiso   1.00
C411   C     0.16659   0.83370   0.16439   0.00000  Uiso   1.00
C412   C     0.16675   0.83297   0.33561   0.00000  Uiso   1.00
C413   C     0.17317   0.79097   0.40868   0.00000  Uiso   1.00
C414   C     0.16016   0.87570   0.09132   0.00000  Uiso   1.00
C415   C     0.16657   0.83228   0.38414   0.00000  Uiso   1.00
C416   C     0.16676   0.83438   0.11586   0.00000  Uiso   1.00
C417   C     0.15973   0.87358   0.40609   0.00000  Uiso   1.00
C418   C     0.17361   0.79309   0.09391   0.00000  Uiso   1.00
C419   C     0.15951   0.87429   0.45211   0.00000  Uiso   1.00
C420   C     0.17382   0.79238   0.04789   0.00000  Uiso   1.00
C421   C     0.16662   0.83300   0.47677   0.00000  Uiso   1.00
C422   C     0.16672   0.83366   0.02323   0.00000  Uiso   1.00
C423   C     0.17359   0.79108   0.45502   0.00000  Uiso   1.00
C424   C     0.15974   0.87559   0.04498   0.00000  Uiso   1.00
C425   C     0.15227   0.91567   0.47383   0.00000  Uiso   1.00
C426   C     0.18106   0.75100   0.02617   0.00000  Uiso   1.00
Cu427  Cu    0.16667   0.88022   0.25000   0.00000  Uiso   1.00
Cu428  Cu    0.16667   0.78645   0.25000   0.00000  Uiso   1.00
H429   H     0.15431   0.90532   0.38720   0.00000  Uiso   1.00
H430   H     0.17903   0.76135   0.11280   0.00000  Uiso   1.00
N431   N     0.16667   0.95069   0.25000   0.00000  Uiso   1.00
N432   N     0.16667   0.71598   0.25000   0.00000  Uiso   1.00
O433   O     0.10655   0.87291   0.25000   0.00000  Uiso   1.00
O434   O     0.22679   0.79375   0.25000   0.00000  Uiso   1.00
O435   O     0.22679   0.87291   0.25000   0.00000  Uiso   1.00
O436   O     0.10655   0.79375   0.24999   0.00000  Uiso   1.00
O437   O     0.16666   0.87293   0.18513   0.00000  Uiso   1.00
O438   O     0.16668   0.79373   0.31487   0.00000  Uiso   1.00
O439   O     0.16668   0.87293   0.31487   0.00000  Uiso   1.00
O440   O     0.16666   0.79373   0.18513   0.00000  Uiso   1.00
F441   F     0.17935   0.75075   0.38761   0.00000  Uiso   1.00
F442   F     0.15398   0.91592   0.11239   0.00000  Uiso   1.00
F443   F     0.14486   0.95554   0.45049   0.00000  Uiso   1.00
F444   F     0.18848   0.71113   0.04951   0.00000  Uiso   1.00
F445   F     0.14495   0.95719   0.03946   0.00000  Uiso   1.00
F446   F     0.18838   0.70948   0.46054   0.00000  Uiso   1.00
O447   O     0.04038   0.77867   0.19074   0.00000  Uiso   1.00
H448   H     0.02377   0.75056   0.18424   0.00000  Uiso   1.00
O449   O     0.29295   0.88801   0.30926   0.00000  Uiso   1.00
H450   H     0.30956   0.91612   0.31574   0.00000  Uiso   1.00
O451   O     0.28491   0.78365   0.18773   0.00000  Uiso   1.00
H452   H     0.29991   0.78115   0.16029   0.00000  Uiso   1.00
O453   O     0.04843   0.88301   0.31227   0.00000  Uiso   1.00
H454   H     0.03342   0.88552   0.33971   0.00000  Uiso   1.00
O455   O     0.12266   0.71304   0.18309   0.00000  Uiso   1.00
H456   H     0.11263   0.74242   0.19390   0.00000  Uiso   1.00
O457   O     0.21067   0.95363   0.31691   0.00000  Uiso   1.00
H458   H     0.22070   0.92425   0.30610   0.00000  Uiso   1.00
O459   O     0.21189   0.71101   0.31611   0.00000  Uiso   1.00
H460   H     0.22025   0.74175   0.30608   0.00000  Uiso   1.00
O461   O     0.12144   0.95566   0.18389   0.00000  Uiso   1.00
H462   H     0.11308   0.92491   0.19392   0.00000  Uiso   1.00
C463   C     0.42088   0.83331   0.24953   0.00000  Uiso   1.00
C464   C     0.57912   0.83336   0.25047   0.00000  Uiso   1.00
C465   C     0.48571   0.91640   0.01984   0.00000  Uiso   1.00
C466   C     0.51429   0.75026   0.48016   0.00000  Uiso   1.00
C467   C     0.35305   0.80568   0.21946   0.00000  Uiso   1.00
C468   C     0.64695   0.86098   0.28054   0.00000  Uiso   1.00
C469   C     0.64293   0.80652   0.21920   0.00000  Uiso   1.00
C470   C     0.35707   0.86015   0.28080   0.00000  Uiso   1.00
C471   C     0.62386   0.83323   0.25050   0.00000  Uiso   1.00
C472   C     0.37614   0.83344   0.24950   0.00000  Uiso   1.00
C473   C     0.47860   0.69154   0.21728   0.00000  Uiso   1.00
C474   C     0.52140   0.97513   0.28272   0.00000  Uiso   1.00
C475   C     0.52160   0.69060   0.28259   0.00000  Uiso   1.00
C476   C     0.47840   0.97607   0.21741   0.00000  Uiso   1.00
C477   C     0.49992   0.83370   0.16439   0.00000  Uiso   1.00
C478   C     0.50008   0.83297   0.33561   0.00000  Uiso   1.00
C479   C     0.50650   0.79097   0.40868   0.00000  Uiso   1.00
C480   C     0.49350   0.87570   0.09132   0.00000  Uiso   1.00
C481   C     0.49990   0.83228   0.38414   0.00000  Uiso   1.00
C482   C     0.50010   0.83438   0.11586   0.00000  Uiso   1.00
C483   C     0.49306   0.87358   0.40609   0.00000  Uiso   1.00
C484   C     0.50694   0.79309   0.09391   0.00000  Uiso   1.00
C485   C     0.49284   0.87429   0.45211   0.00000  Uiso   1.00
C486   C     0.50716   0.79238   0.04789   0.00000  Uiso   1.00
C487   C     0.49995   0.83300   0.47677   0.00000  Uiso   1.00
C488   C     0.50005   0.83366   0.02323   0.00000  Uiso   1.00
C489   C     0.50693   0.79108   0.45502   0.00000  Uiso   1.00
C490   C     0.49307   0.87559   0.04498   0.00000  Uiso   1.00
C491   C     0.48560   0.91567   0.47383   0.00000  Uiso   1.00
C492   C     0.51440   0.75100   0.02617   0.00000  Uiso   1.00
Cu493  Cu    0.50000   0.88022   0.25000   0.00000  Uiso   1.00
Cu494  Cu    0.50000   0.78645   0.25000   0.00000  Uiso   1.00
H495   H     0.48764   0.90532   0.38720   0.00000  Uiso   1.00
H496   H     0.51236   0.76135   0.11280   0.00000  Uiso   1.00
N497   N     0.50000   0.95069   0.25000   0.00000  Uiso   1.00
N498   N     0.50000   0.71598   0.25000   0.00000  Uiso   1.00
O499   O     0.43988   0.87291   0.25000   0.00000  Uiso   1.00
O500   O     0.56012   0.79375   0.25000   0.00000  Uiso   1.00
O501   O     0.56012   0.87291   0.25000   0.00000  Uiso   1.00
O502   O     0.43988   0.79375   0.24999   0.00000  Uiso   1.00
O503   O     0.49999   0.87293   0.18513   0.00000  Uiso   1.00
O504   O     0.50001   0.79373   0.31487   0.00000  Uiso   1.00
O505   O     0.50001   0.87293   0.31487   0.00000  Uiso   1.00
O506   O     0.49999   0.79373   0.18513   0.00000  Uiso   1.00
F507   F     0.51268   0.75075   0.38761   0.00000  Uiso   1.00
F508   F     0.48732   0.91592   0.11239   0.00000  Uiso   1.00
F509   F     0.47819   0.95554   0.45049   0.00000  Uiso   1.00
F510   F     0.52181   0.71113   0.04951   0.00000  Uiso   1.00
F511   F     0.47828   0.95719   0.03946   0.00000  Uiso   1.00
F512   F     0.52172   0.70948   0.46054   0.00000  Uiso   1.00
O513   O     0.37372   0.77867   0.19074   0.00000  Uiso   1.00
H514   H     0.35710   0.75056   0.18424   0.00000  Uiso   1.00
O515   O     0.62628   0.88801   0.30926   0.00000  Uiso   1.00
H516   H     0.64290   0.91612   0.31574   0.00000  Uiso   1.00
O517   O     0.61824   0.78365   0.18773   0.00000  Uiso   1.00
H518   H     0.63324   0.78115   0.16029   0.00000  Uiso   1.00
O519   O     0.38176   0.88301   0.31227   0.00000  Uiso   1.00
H520   H     0.36675   0.88552   0.33971   0.00000  Uiso   1.00
O521   O     0.45600   0.71304   0.18309   0.00000  Uiso   1.00
H522   H     0.44597   0.74242   0.19390   0.00000  Uiso   1.00
O523   O     0.54400   0.95363   0.31691   0.00000  Uiso   1.00
H524   H     0.55403   0.92425   0.30610   0.00000  Uiso   1.00
O525   O     0.54522   0.71101   0.31611   0.00000  Uiso   1.00
H526   H     0.55359   0.74175   0.30608   0.00000  Uiso   1.00
O527   O     0.45478   0.95566   0.18389   0.00000  Uiso   1.00
H528   H     0.44641   0.92491   0.19392   0.00000  Uiso   1.00
C529   C     0.75421   0.83331   0.24953   0.00000  Uiso   1.00
C530   C     0.91246   0.83336   0.25047   0.00000  Uiso   1.00
C531   C     0.81905   0.91640   0.01984   0.00000  Uiso   1.00
C532   C     0.84762   0.75026   0.48016   0.00000  Uiso   1.00
C533   C     0.68639   0.80568   0.21946   0.00000  Uiso   1.00
C534   C     0.98028   0.86098   0.28054   0.00000  Uiso   1.00
C535   C     0.97626   0.80652   0.21920   0.00000  Uiso   1.00
C536   C     0.69040   0.86015   0.28080   0.00000  Uiso   1.00
C537   C     0.95719   0.83323   0.25050   0.00000  Uiso   1.00
C538   C     0.70948   0.83344   0.24950   0.00000  Uiso   1.00
C539   C     0.81193   0.69154   0.21728   0.00000  Uiso   1.00
C540   C     0.85474   0.97513   0.28272   0.00000  Uiso   1.00
C541   C     0.85493   0.69060   0.28259   0.00000  Uiso   1.00
C542   C     0.81173   0.97607   0.21741   0.00000  Uiso   1.00
C543   C     0.83325   0.83370   0.16439   0.00000  Uiso   1.00
C544   C     0.83341   0.83297   0.33561   0.00000  Uiso   1.00
C545   C     0.83984   0.79097   0.40868   0.00000  Uiso   1.00
C546   C     0.82683   0.87570   0.09132   0.00000  Uiso   1.00
C547   C     0.83324   0.83228   0.38414   0.00000  Uiso   1.00
C548   C     0.83343   0.83438   0.11586   0.00000  Uiso   1.00
C549   C     0.82640   0.87358   0.40609   0.00000  Uiso   1.00
C550   C     0.84027   0.79309   0.09391   0.00000  Uiso   1.00
C551   C     0.82618   0.87429   0.45211   0.00000  Uiso   1.00
C552   C     0.84049   0.79238   0.04789   0.00000  Uiso   1.00
C553   C     0.83329   0.83300   0.47677   0.00000  Uiso   1.00
C554   C     0.83338   0.83366   0.02323   0.00000  Uiso   1.00
C555   C     0.84026   0.79108   0.45502   0.00000  Uiso   1.00
C556   C     0.82641   0.87559   0.04498   0.00000  Uiso   1.00
C557   C     0.81894   0.91567   0.47383   0.00000  Uiso   1.00
C558   C     0.84773   0.75100   0.02617   0.00000  Uiso   1.00
Cu559  Cu    0.83333   0.88022   0.25000   0.00000  Uiso   1.00
Cu560  Cu    0.83333   0.78645   0.25000   0.00000  Uiso   1.00
H561   H     0.82098   0.90532   0.38720   0.00000  Uiso   1.00
H562   H     0.84569   0.76135   0.11280   0.00000  Uiso   1.00
N563   N     0.83333   0.95069   0.25000   0.00000  Uiso   1.00
N564   N     0.83333   0.71598   0.25000   0.00000  Uiso   1.00
O565   O     0.77321   0.87291   0.25000   0.00000  Uiso   1.00
O566   O     0.89345   0.79375   0.25000   0.00000  Uiso   1.00
O567   O     0.89345   0.87291   0.25000   0.00000  Uiso   1.00
O568   O     0.77321   0.79375   0.24999   0.00000  Uiso   1.00
O569   O     0.83332   0.87293   0.18513   0.00000  Uiso   1.00
O570   O     0.83334   0.79373   0.31487   0.00000  Uiso   1.00
O571   O     0.83334   0.87293   0.31487   0.00000  Uiso   1.00
O572   O     0.83332   0.79373   0.18513   0.00000  Uiso   1.00
F573   F     0.84602   0.75075   0.38761   0.00000  Uiso   1.00
F574   F     0.82065   0.91592   0.11239   0.00000  Uiso   1.00
F575   F     0.81152   0.95554   0.45049   0.00000  Uiso   1.00
F576   F     0.85514   0.71113   0.04951   0.00000  Uiso   1.00
F577   F     0.81162   0.95719   0.03946   0.00000  Uiso   1.00
F578   F     0.85505   0.70948   0.46054   0.00000  Uiso   1.00
O579   O     0.70705   0.77867   0.19074   0.00000  Uiso   1.00
H580   H     0.69044   0.75056   0.18424   0.00000  Uiso   1.00
O581   O     0.95962   0.88801   0.30926   0.00000  Uiso   1.00
H582   H     0.97623   0.91612   0.31574   0.00000  Uiso   1.00
O583   O     0.95157   0.78365   0.18773   0.00000  Uiso   1.00
H584   H     0.96658   0.78115   0.16029   0.00000  Uiso   1.00
O585   O     0.71509   0.88301   0.31227   0.00000  Uiso   1.00
H586   H     0.70009   0.88552   0.33971   0.00000  Uiso   1.00
O587   O     0.78933   0.71304   0.18309   0.00000  Uiso   1.00
H588   H     0.77930   0.74242   0.19390   0.00000  Uiso   1.00
O589   O     0.87734   0.95363   0.31691   0.00000  Uiso   1.00
H590   H     0.88737   0.92425   0.30610   0.00000  Uiso   1.00
O591   O     0.87856   0.71101   0.31611   0.00000  Uiso   1.00
H592   H     0.88692   0.74175   0.30608   0.00000  Uiso   1.00
O593   O     0.78811   0.95566   0.18389   0.00000  Uiso   1.00
H594   H     0.77975   0.92491   0.19392   0.00000  Uiso   1.00
C595   C     0.08754   0.16664   0.74953   0.00000  Uiso   1.00
C596   C     0.24579   0.16669   0.75047   0.00000  Uiso   1.00
C597   C     0.15238   0.24974   0.51984   0.00000  Uiso   1.00
C598   C     0.18096   0.08360   0.98016   0.00000  Uiso   1.00
C599   C     0.01972   0.13902   0.71946   0.00000  Uiso   1.00
C600   C     0.31362   0.19432   0.78054   0.00000  Uiso   1.00
C601   C     0.30960   0.13985   0.71920   0.00000  Uiso   1.00
C602   C     0.02374   0.19348   0.78080   0.00000  Uiso   1.00
C603   C     0.29053   0.16656   0.75050   0.00000  Uiso   1.00
C604   C     0.04281   0.16677   0.74950   0.00000  Uiso   1.00
C605   C     0.14526   0.02487   0.71728   0.00000  Uiso   1.00
C606   C     0.18807   0.30846   0.78272   0.00000  Uiso   1.00
C607   C     0.18827   0.02393   0.78259   0.00000  Uiso   1.00
C608   C     0.14507   0.30940   0.71741   0.00000  Uiso   1.00
C609   C     0.16659   0.16703   0.66439   0.00000  Uiso   1.00
C610   C     0.16675   0.16630   0.83561   0.00000  Uiso   1.00
C611   C     0.17317   0.12430   0.90868   0.00000  Uiso   1.00
C612   C     0.16016   0.20903   0.59132   0.00000  Uiso   1.00
C613   C     0.16657   0.16562   0.88414   0.00000  Uiso   1.00
C614   C     0.16676   0.16772   0.61586   0.00000  Uiso   1.00
C615   C     0.15973   0.20691   0.90609   0.00000  Uiso   1.00
C616   C     0.17361   0.12642   0.59391   0.00000  Uiso   1.00
C617   C     0.15951   0.20762   0.95211   0.00000  Uiso   1.00
C618   C     0.17382   0.12571   0.54789   0.00000  Uiso   1.00
C619   C     0.16662   0.16634   0.97677   0.00000  Uiso   1.00
C620   C     0.16672   0.16700   0.52323   0.00000  Uiso   1.00
C621   C     0.17359   0.12441   0.95502   0.00000  Uiso   1.00
C622   C     0.15974   0.20892   0.54498   0.00000  Uiso   1.00
C623   C     0.15227   0.24900   0.97383   0.00000  Uiso   1.00
C624   C     0.18106   0.08433   0.52617   0.00000  Uiso   1.00
Cu625  Cu    0.16667   0.21355   0.75000   0.00000  Uiso   1.00
Cu626  Cu    0.16667   0.11978   0.75000   0.00000  Uiso   1.00
H627   H     0.15431   0.23865   0.88720   0.00000  Uiso   1.00
H628   H     0.17903   0.09468   0.61280   0.00000  Uiso   1.00
N629   N     0.16667   0.28402   0.75000   0.00000  Uiso   1.00
N630   N     0.16667   0.04931   0.75000   0.00000  Uiso   1.00
O631   O     0.10655   0.20625   0.75000   0.00000  Uiso   1.00
O632   O     0.22679   0.12709   0.75000   0.00000  Uiso   1.00
O633   O     0.22679   0.20625   0.75000   0.00000  Uiso   1.00
O634   O     0.10655   0.12709   0.74999   0.00000  Uiso   1.00
O635   O     0.16666   0.20627   0.68513   0.00000  Uiso   1.00
O636   O     0.16668   0.12707   0.81487   0.00000  Uiso   1.00
O637   O     0.16668   0.20627   0.81487   0.00000  Uiso   1.00
O638   O     0.16666   0.12707   0.68513   0.00000  Uiso   1.00
F639   F     0.17935   0.08408   0.88761   0.00000  Uiso   1.00
F640   F     0.15398   0.24925   0.61239   0.00000  Uiso   1.00
F641   F     0.14486   0.28887   0.95049   0.00000  Uiso   1.00
F642   F     0.18848   0.04446   0.54951   0.00000  Uiso   1.00
F643   F     0.14495   0.29052   0.53946   0.00000  Uiso   1.00
F644   F     0.18838   0.04281   0.96054   0.00000  Uiso   1.00
O645   O     0.04038   0.11200   0.69074   0.00000  Uiso   1.00
H646   H     0.02377   0.08389   0.68424   0.00000  Uiso   1.00
O647   O     0.29295   0.22134   0.80926   0.00000  Uiso   1.00
H648   H     0.30956   0.24945   0.81574   0.00000  Uiso   1.00
O649   O     0.28491   0.11699   0.68773   0.00000  Uiso   1.00
H650   H     0.29991   0.11449   0.66029   0.00000  Uiso   1.00
O651   O     0.04843   0.21635   0.81227   0.00000  Uiso   1.00
H652   H     0.03342   0.21885   0.83971   0.00000  Uiso   1.00
O653   O     0.12266   0.04637   0.68309   0.00000  Uiso   1.00
H654   H     0.11263   0.07575   0.69390   0.00000  Uiso   1.00
O655   O     0.21067   0.28696   0.81691   0.00000  Uiso   1.00
H656   H     0.22070   0.25758   0.80610   0.00000  Uiso   1.00
O657   O     0.21189   0.04434   0.81611   0.00000  Uiso   1.00
H658   H     0.22025   0.07509   0.80608   0.00000  Uiso   1.00
O659   O     0.12144   0.28899   0.68389   0.00000  Uiso   1.00
H660   H     0.11308   0.25825   0.69392   0.00000  Uiso   1.00
C661   C     0.42088   0.16664   0.74953   0.00000  Uiso   1.00
C662   C     0.57912   0.16669   0.75047   0.00000  Uiso   1.00
C663   C     0.48571   0.24974   0.51984   0.00000  Uiso   1.00
C664   C     0.51429   0.08360   0.98016   0.00000  Uiso   1.00
C665   C     0.35305   0.13902   0.71946   0.00000  Uiso   1.00
C666   C     0.64695   0.19432   0.78054   0.00000  Uiso   1.00
C667   C     0.64293   0.13985   0.71920   0.00000  Uiso   1.00
C668   C     0.35707   0.19348   0.78080   0.00000  Uiso   1.00
C669   C     0.62386   0.16656   0.75050   0.00000  Uiso   1.00
C670   C     0.37614   0.16677   0.74950   0.00000  Uiso   1.00
C671   C     0.47860   0.02487   0.71728   0.00000  Uiso   1.00
C672   C     0.52140   0.30846   0.78272   0.00000  Uiso   1.00
C673   C     0.52160   0.02393   0.78259   0.00000  Uiso   1.00
C674   C     0.47840   0.30940   0.71741   0.00000  Uiso   1.00
C675   C     0.49992   0.16703   0.66439   0.00000  Uiso   1.00
C676   C     0.50008   0.16630   0.83561   0.00000  Uiso   1.00
C677   C     0.50650   0.12430   0.90868   0.00000  Uiso   1.00
C678   C     0.49350   0.20903   0.59132   0.00000  Uiso   1.00
C679   C     0.49990   0.16562   0.88414   0.00000  Uiso   1.00
C680   C     0.50010   0.16772   0.61586   0.00000  Uiso   1.00
C681   C     0.49306   0.20691   0.90609   0.00000  Uiso   1.00
C682   C     0.50694   0.12642   0.59391   0.00000  Uiso   1.00
C683   C     0.49284   0.20762   0.95211   0.00000  Uiso   1.00
C684   C     0.50716   0.12571   0.54789   0.00000  Uiso   1.00
C685   C     0.49995   0.16634   0.97677   0.00000  Uiso   1.00
C686   C     0.50005   0.16700   0.52323   0.00000  Uiso   1.00
C687   C     0.50693   0.12441   0.95502   0.00000  Uiso   1.00
C688   C     0.49307   0.20892   0.54498   0.00000  Uiso   1.00
C689   C     0.48560   0.24900   0.97383   0.00000  Uiso   1.00
C690   C     0.51440   0.08433   0.52617   0.00000  Uiso   1.00
Cu691  Cu    0.50000   0.21355   0.75000   0.00000  Uiso   1.00
Cu692  Cu    0.50000   0.11978   0.75000   0.00000  Uiso   1.00
H693   H     0.48764   0.23865   0.88720   0.00000  Uiso   1.00
H694   H     0.51236   0.09468   0.61280   0.00000  Uiso   1.00
N695   N     0.50000   0.28402   0.75000   0.00000  Uiso   1.00
N696   N     0.50000   0.04931   0.75000   0.00000  Uiso   1.00
O697   O     0.43988   0.20625   0.75000   0.00000  Uiso   1.00
O698   O     0.56012   0.12709   0.75000   0.00000  Uiso   1.00
O699   O     0.56012   0.20625   0.75000   0.00000  Uiso   1.00
O700   O     0.43988   0.12709   0.74999   0.00000  Uiso   1.00
O701   O     0.49999   0.20627   0.68513   0.00000  Uiso   1.00
O702   O     0.50001   0.12707   0.81487   0.00000  Uiso   1.00
O703   O     0.50001   0.20627   0.81487   0.00000  Uiso   1.00
O704   O     0.49999   0.12707   0.68513   0.00000  Uiso   1.00
F705   F     0.51268   0.08408   0.88761   0.00000  Uiso   1.00
F706   F     0.48732   0.24925   0.61239   0.00000  Uiso   1.00
F707   F     0.47819   0.28887   0.95049   0.00000  Uiso   1.00
F708   F     0.52181   0.04446   0.54951   0.00000  Uiso   1.00
F709   F     0.47828   0.29052   0.53946   0.00000  Uiso   1.00
F710   F     0.52172   0.04281   0.96054   0.00000  Uiso   1.00
O711   O     0.37372   0.11200   0.69074   0.00000  Uiso   1.00
H712   H     0.35710   0.08389   0.68424   0.00000  Uiso   1.00
O713   O     0.62628   0.22134   0.80926   0.00000  Uiso   1.00
H714   H     0.64290   0.24945   0.81574   0.00000  Uiso   1.00
O715   O     0.61824   0.11699   0.68773   0.00000  Uiso   1.00
H716   H     0.63324   0.11449   0.66029   0.00000  Uiso   1.00
O717   O     0.38176   0.21635   0.81227   0.00000  Uiso   1.00
H718   H     0.36675   0.21885   0.83971   0.00000  Uiso   1.00
O719   O     0.45600   0.04637   0.68309   0.00000  Uiso   1.00
H720   H     0.44597   0.07575   0.69390   0.00000  Uiso   1.00
O721   O     0.54400   0.28696   0.81691   0.00000  Uiso   1.00
H722   H     0.55403   0.25758   0.80610   0.00000  Uiso   1.00
O723   O     0.54522   0.04434   0.81611   0.00000  Uiso   1.00
H724   H     0.55359   0.07509   0.80608   0.00000  Uiso   1.00
O725   O     0.45478   0.28899   0.68389   0.00000  Uiso   1.00
H726   H     0.44641   0.25825   0.69392   0.00000  Uiso   1.00
C727   C     0.75421   0.16664   0.74953   0.00000  Uiso   1.00
C728   C     0.91246   0.16669   0.75047   0.00000  Uiso   1.00
C729   C     0.81905   0.24974   0.51984   0.00000  Uiso   1.00
C730   C     0.84762   0.08360   0.98016   0.00000  Uiso   1.00
C731   C     0.68639   0.13902   0.71946   0.00000  Uiso   1.00
C732   C     0.98028   0.19432   0.78054   0.00000  Uiso   1.00
C733   C     0.97626   0.13985   0.71920   0.00000  Uiso   1.00
C734   C     0.69040   0.19348   0.78080   0.00000  Uiso   1.00
C735   C     0.95719   0.16656   0.75050   0.00000  Uiso   1.00
C736   C     0.70948   0.16677   0.74950   0.00000  Uiso   1.00
C737   C     0.81193   0.02487   0.71728   0.00000  Uiso   1.00
C738   C     0.85474   0.30846   0.78272   0.00000  Uiso   1.00
C739   C     0.85493   0.02393   0.78259   0.00000  Uiso   1.00
C740   C     0.81173   0.30940   0.71741   0.00000  Uiso   1.00
C741   C     0.83325   0.16703   0.66439   0.00000  Uiso   1.00
C742   C     0.83341   0.16630   0.83561   0.00000  Uiso   1.00
C743   C     0.83984   0.12430   0.90868   0.00000  Uiso   1.00
C744   C     0.82683   0.20903   0.59132   0.00000  Uiso   1.00
C745   C     0.83324   0.16562   0.88414   0.00000  Uiso   1.00
C746   C     0.83343   0.16772   0.61586   0.00000  Uiso   1.00
C747   C     0.82640   0.20691   0.90609   0.00000  Uiso   1.00
C748   C     0.84027   0.12642   0.59391   0.00000  Uiso   1.00
C749   C     0.82618   0.20762   0.95211   0.00000  Uiso   1.00
C750   C     0.84049   0.12571   0.54789   0.00000  Uiso   1.00
C751   C     0.83329   0.16634   0.97677   0.00000  Uiso   1.00
C752   C     0.83338   0.16700   0.52323   0.00000  Uiso   1.00
C753   C     0.84026   0.12441   0.95502   0.00000  Uiso   1.00
C754   C     0.82641   0.20892   0.54498   0.00000  Uiso   1.00
C755   C     0.81894   0.24900   0.97383   0.00000  Uiso   1.00
C756   C     0.84773   0.08433   0.52617   0.00000  Uiso   1.00
Cu757  Cu    0.83333   0.21355   0.75000   0.00000  Uiso   1.00
Cu758  Cu    0.83333   0.11978   0.75000   0.00000  Uiso   1.00
H759   H     0.82098   0.23865   0.88720   0.00000  Uiso   1.00
H760   H     0.84569   0.09468   0.61280   0.00000  Uiso   1.00
N761   N     0.83333   0.28402   0.75000   0.00000  Uiso   1.00
N762   N     0.83333   0.04931   0.75000   0.00000  Uiso   1.00
O763   O     0.77321   0.20625   0.75000   0.00000  Uiso   1.00
O764   O     0.89345   0.12709   0.75000   0.00000  Uiso   1.00
O765   O     0.89345   0.20625   0.75000   0.00000  Uiso   1.00
O766   O     0.77321   0.12709   0.74999   0.00000  Uiso   1.00
O767   O     0.83332   0.20627   0.68513   0.00000  Uiso   1.00
O768   O     0.83334   0.12707   0.81487   0.00000  Uiso   1.00
O769   O     0.83334   0.20627   0.81487   0.00000  Uiso   1.00
O770   O     0.83332   0.12707   0.68513   0.00000  Uiso   1.00
F771   F     0.84602   0.08408   0.88761   0.00000  Uiso   1.00
F772   F     0.82065   0.24925   0.61239   0.00000  Uiso   1.00
F773   F     0.81152   0.28887   0.95049   0.00000  Uiso   1.00
F774   F     0.85514   0.04446   0.54951   0.00000  Uiso   1.00
F775   F     0.81162   0.29052   0.53946   0.00000  Uiso   1.00
F776   F     0.85505   0.04281   0.96054   0.00000  Uiso   1.00
O777   O     0.70705   0.11200   0.69074   0.00000  Uiso   1.00
H778   H     0.69044   0.08389   0.68424   0.00000  Uiso   1.00
O779   O     0.95962   0.22134   0.80926   0.00000  Uiso   1.00
H780   H     0.97623   0.24945   0.81574   0.00000  Uiso   1.00
O781   O     0.95157   0.11699   0.68773   0.00000  Uiso   1.00
H782   H     0.96658   0.11449   0.66029   0.00000  Uiso   1.00
O783   O     0.71509   0.21635   0.81227   0.00000  Uiso   1.00
H784   H     0.70009   0.21885   0.83971   0.00000  Uiso   1.00
O785   O     0.78933   0.04637   0.68309   0.00000  Uiso   1.00
H786   H     0.77930   0.07575   0.69390   0.00000  Uiso   1.00
O787   O     0.87734   0.28696   0.81691   0.00000  Uiso   1.00
H788   H     0.88737   0.25758   0.80610   0.00000  Uiso   1.00
O789   O     0.87856   0.04434   0.81611   0.00000  Uiso   1.00
H790   H     0.88692   0.07509   0.80608   0.00000  Uiso   1.00
O791   O     0.78811   0.28899   0.68389   0.00000  Uiso   1.00
H792   H     0.77975   0.25825   0.69392   0.00000  Uiso   1.00
C793   C     0.08754   0.49997   0.74953   0.00000  Uiso   1.00
C794   C     0.24579   0.50003   0.75047   0.00000  Uiso   1.00
C795   C     0.15238   0.58307   0.51984   0.00000  Uiso   1.00
C796   C     0.18096   0.41693   0.98016   0.00000  Uiso   1.00
C797   C     0.01972   0.47235   0.71946   0.00000  Uiso   1.00
C798   C     0.31362   0.52765   0.78054   0.00000  Uiso   1.00
C799   C     0.30960   0.47318   0.71920   0.00000  Uiso   1.00
C800   C     0.02374   0.52682   0.78080   0.00000  Uiso   1.00
C801   C     0.29053   0.49989   0.75050   0.00000  Uiso   1.00
C802   C     0.04281   0.50011   0.74950   0.00000  Uiso   1.00
C803   C     0.14526   0.35820   0.71728   0.00000  Uiso   1.00
C804   C     0.18807   0.64180   0.78272   0.00000  Uiso   1.00
C805   C     0.18827   0.35727   0.78259   0.00000  Uiso   1.00
C806   C     0.14507   0.64273   0.71741   0.00000  Uiso   1.00
C807   C     0.16659   0.50037   0.66439   0.00000  Uiso   1.00
C808   C     0.16675   0.49963   0.83561   0.00000  Uiso   1.00
C809   C     0.17317   0.45763   0.90868   0.00000  Uiso   1.00
C810   C     0.16016   0.54237   0.59132   0.00000  Uiso   1.00
C811   C     0.16657   0.49895   0.88414   0.00000  Uiso   1.00
C812   C     0.16676   0.50105   0.61586   0.00000  Uiso   1.00
C813   C     0.15973   0.54024   0.90609   0.00000  Uiso   1.00
C814   C     0.17361   0.45976   0.59391   0.00000  Uiso   1.00
C815   C     0.15951   0.54096   0.95211   0.00000  Uiso   1.00
C816   C     0.17382   0.45904   0.54789   0.00000  Uiso   1.00
C817   C     0.16662   0.49967   0.97677   0.00000  Uiso   1.00
C818   C     0.16672   0.50033   0.52323   0.00000  Uiso   1.00
C819   C     0.17359   0.45774   0.95502   0.00000  Uiso   1.00
C820   C     0.15974   0.54225   0.54498   0.00000  Uiso   1.00
C821   C     0.15227   0.58233   0.97383   0.00000  Uiso   1.00
C822   C     0.18106   0.41766   0.52617   0.00000  Uiso   1.00
Cu823  Cu    0.16667   0.54689   0.75000   0.00000  Uiso   1.00
Cu824  Cu    0.16667   0.45311   0.75000   0.00000  Uiso   1.00
H825   H     0.15431   0.57199   0.88720   0.00000  Uiso   1.00
H826   H     0.17903   0.42801   0.61280   0.00000  Uiso   1.00
N827   N     0.16667   0.61736   0.75000   0.00000  Uiso   1.00
N828   N     0.16667   0.38264   0.75000   0.00000  Uiso   1.00
O829   O     0.10655   0.53958   0.75000   0.00000  Uiso   1.00
O830   O     0.22679   0.46042   0.75000   0.00000  Uiso   1.00
O831   O     0.22679   0.53958   0.75000   0.00000  Uiso   1.00
O832   O     0.10655   0.46042   0.74999   0.00000  Uiso   1.00
O833   O     0.16666   0.53960   0.68513   0.00000  Uiso   1.00
O834   O     0.16668   0.46040   0.81487   0.00000  Uiso   1.00
O835   O     0.16668   0.53960   0.81487   0.00000  Uiso   1.00
O836   O     0.16666   0.46040   0.68513   0.00000  Uiso   1.00
F837   F     0.17935   0.41741   0.88761   0.00000  Uiso   1.00
F838   F     0.15398   0.58258   0.61239   0.00000  Uiso   1.00
F839   F     0.14486   0.62221   0.95049   0.00000  Uiso   1.00
F840   F     0.18848   0.37779   0.54951   0.00000  Uiso   1.00
F841   F     0.14495   0.62385   0.53946   0.00000  Uiso   1.00
F842   F     0.18838   0.37615   0.96054   0.00000  Uiso   1.00
O843   O     0.04038   0.44533   0.69074   0.00000  Uiso   1.00
H844   H     0.02377   0.41722   0.68424   0.00000  Uiso   1.00
O845   O     0.29295   0.55467   0.80926   0.00000  Uiso   1.00
H846   H     0.30956   0.58278   0.81574   0.00000  Uiso   1.00
O847   O     0.28491   0.45032   0.68773   0.00000  Uiso   1.00
H848   H     0.29991   0.44782   0.66029   0.00000  Uiso   1.00
O849   O     0.04843   0.54968   0.81227   0.00000  Uiso   1.00
H850   H     0.03342   0.55218   0.83971   0.00000  Uiso   1.00
O851   O     0.12266   0.37971   0.68309   0.00000  Uiso   1.00
H852   H     0.11263   0.40908   0.69390   0.00000  Uiso   1.00
O853   O     0.21067   0.62029   0.81691   0.00000  Uiso   1.00
H854   H     0.22070   0.59091   0.80610   0.00000  Uiso   1.00
O855   O     0.21189   0.37767   0.81611   0.00000  Uiso   1.00
H856   H     0.22025   0.40842   0.80608   0.00000  Uiso   1.00
O857   O     0.12144   0.62233   0.68389   0.00000  Uiso   1.00
H858   H     0.11308   0.59158   0.69392   0.00000  Uiso   1.00
C859   C     0.42088   0.49997   0.74953   0.00000  Uiso   1.00
C860   C     0.57912   0.50003   0.75047   0.00000  Uiso   1.00
C861   C     0.48571   0.58307   0.51984   0.00000  Uiso   1.00
C862   C     0.51429   0.41693   0.98016   0.00000  Uiso   1.00
C863   C     0.35305   0.47235   0.71946   0.00000  Uiso   1.00
C864   C     0.64695   0.52765   0.78054   0.00000  Uiso   1.00
C865   C     0.64293   0.47318   0.71920   0.00000  Uiso   1.00
C866   C     0.35707   0.52682   0.78080   0.00000  Uiso   1.00
C867   C     0.62386   0.49989   0.75050   0.00000  Uiso   1.00
C868   C     0.37614   0.50011   0.74950   0.00000  Uiso   1.00
C869   C     0.47860   0.35820   0.71728   0.00000  Uiso   1.00
C870   C     0.52140   0.64180   0.78272   0.00000  Uiso   1.00
C871   C     0.52160   0.35727   0.78259   0.00000  Uiso   1.00
C872   C     0.47840   0.64273   0.71741   0.00000  Uiso   1.00
C873   C     0.49992   0.50037   0.66439   0.00000  Uiso   1.00
C874   C     0.50008   0.49963   0.83561   0.00000  Uiso   1.00
C875   C     0.50650   0.45763   0.90868   0.00000  Uiso   1.00
C876   C     0.49350   0.54237   0.59132   0.00000  Uiso   1.00
C877   C     0.49990   0.49895   0.88414   0.00000  Uiso   1.00
C878   C     0.50010   0.50105   0.61586   0.00000  Uiso   1.00
C879   C     0.49306   0.54024   0.90609   0.00000  Uiso   1.00
C880   C     0.50694   0.45976   0.59391   0.00000  Uiso   1.00
C881   C     0.49284   0.54096   0.95211   0.00000  Uiso   1.00
C882   C     0.50716   0.45904   0.54789   0.00000  Uiso   1.00
C883   C     0.49995   0.49967   0.97677   0.00000  Uiso   1.00
C884   C     0.50005   0.50033   0.52323   0.00000  Uiso   1.00
C885   C     0.50693   0.45774   0.95502   0.00000  Uiso   1.00
C886   C     0.49307   0.54225   0.54498   0.00000  Uiso   1.00
C887   C     0.48560   0.58233   0.97383   0.00000  Uiso   1.00
C888   C     0.51440   0.41766   0.52617   0.00000  Uiso   1.00
Cu889  Cu    0.50000   0.54689   0.75000   0.00000  Uiso   1.00
Cu890  Cu    0.50000   0.45311   0.75000   0.00000  Uiso   1.00
H891   H     0.48764   0.57199   0.88720   0.00000  Uiso   1.00
H892   H     0.51236   0.42801   0.61280   0.00000  Uiso   1.00
N893   N     0.50000   0.61736   0.75000   0.00000  Uiso   1.00
N894   N     0.50000   0.38264   0.75000   0.00000  Uiso   1.00
O895   O     0.43988   0.53958   0.75000   0.00000  Uiso   1.00
O896   O     0.56012   0.46042   0.75000   0.00000  Uiso   1.00
O897   O     0.56012   0.53958   0.75000   0.00000  Uiso   1.00
O898   O     0.43988   0.46042   0.74999   0.00000  Uiso   1.00
O899   O     0.49999   0.53960   0.68513   0.00000  Uiso   1.00
O900   O     0.50001   0.46040   0.81487   0.00000  Uiso   1.00
O901   O     0.50001   0.53960   0.81487   0.00000  Uiso   1.00
O902   O     0.49999   0.46040   0.68513   0.00000  Uiso   1.00
F903   F     0.51268   0.41741   0.88761   0.00000  Uiso   1.00
F904   F     0.48732   0.58258   0.61239   0.00000  Uiso   1.00
F905   F     0.47819   0.62221   0.95049   0.00000  Uiso   1.00
F906   F     0.52181   0.37779   0.54951   0.00000  Uiso   1.00
F907   F     0.47828   0.62385   0.53946   0.00000  Uiso   1.00
F908   F     0.52172   0.37615   0.96054   0.00000  Uiso   1.00
O909   O     0.37372   0.44533   0.69074   0.00000  Uiso   1.00
H910   H     0.35710   0.41722   0.68424   0.00000  Uiso   1.00
O911   O     0.62628   0.55467   0.80926   0.00000  Uiso   1.00
H912   H     0.64290   0.58278   0.81574   0.00000  Uiso   1.00
O913   O     0.61824   0.45032   0.68773   0.00000  Uiso   1.00
H914   H     0.63324   0.44782   0.66029   0.00000  Uiso   1.00
O915   O     0.38176   0.54968   0.81227   0.00000  Uiso   1.00
H916   H     0.36675   0.55218   0.83971   0.00000  Uiso   1.00
O917   O     0.45600   0.37971   0.68309   0.00000  Uiso   1.00
H918   H     0.44597   0.40908   0.69390   0.00000  Uiso   1.00
O919   O     0.54400   0.62029   0.81691   0.00000  Uiso   1.00
H920   H     0.55403   0.59091   0.80610   0.00000  Uiso   1.00
O921   O     0.54522   0.37767   0.81611   0.00000  Uiso   1.00
H922   H     0.55359   0.40842   0.80608   0.00000  Uiso   1.00
O923   O     0.45478   0.62233   0.68389   0.00000  Uiso   1.00
H924   H     0.44641   0.59158   0.69392   0.00000  Uiso   1.00
C925   C     0.75421   0.49997   0.74953   0.00000  Uiso   1.00
C926   C     0.91246   0.50003   0.75047   0.00000  Uiso   1.00
C927   C     0.81905   0.58307   0.51984   0.00000  Uiso   1.00
C928   C     0.84762   0.41693   0.98016   0.00000  Uiso   1.00
C929   C     0.68639   0.47235   0.71946   0.00000  Uiso   1.00
C930   C     0.98028   0.52765   0.78054   0.00000  Uiso   1.00
C931   C     0.97626   0.47318   0.71920   0.00000  Uiso   1.00
C932   C     0.69040   0.52682   0.78080   0.00000  Uiso   1.00
C933   C     0.95719   0.49989   0.75050   0.00000  Uiso   1.00
C934   C     0.70948   0.50011   0.74950   0.00000  Uiso   1.00
C935   C     0.81193   0.35820   0.71728   0.00000  Uiso   1.00
C936   C     0.85474   0.64180   0.78272   0.00000  Uiso   1.00
C937   C     0.85493   0.35727   0.78259   0.00000  Uiso   1.00
C938   C     0.81173   0.64273   0.71741   0.00000  Uiso   1.00
C939   C     0.83325   0.50037   0.66439   0.00000  Uiso   1.00
C940   C     0.83341   0.49963   0.83561   0.00000  Uiso   1.00
C941   C     0.83984   0.45763   0.90868   0.00000  Uiso   1.00
C942   C     0.82683   0.54237   0.59132   0.00000  Uiso   1.00
C943   C     0.83324   0.49895   0.88414   0.00000  Uiso   1.00
C944   C     0.83343   0.50105   0.61586   0.00000  Uiso   1.00
C945   C     0.82640   0.54024   0.90609   0.00000  Uiso   1.00
C946   C     0.84027   0.45976   0.59391   0.00000  Uiso   1.00
C947   C     0.82618   0.54096   0.95211   0.00000  Uiso   1.00
C948   C     0.84049   0.45904   0.54789   0.00000  Uiso   1.00
C949   C     0.83329   0.49967   0.97677   0.00000  Uiso   1.00
C950   C     0.83338   0.50033   0.52323   0.00000  Uiso   1.00
C951   C     0.84026   0.45774   0.95502   0.00000  Uiso   1.00
C952   C     0.82641   0.54225   0.54498   0.00000  Uiso   1.00
C953   C     0.81894   0.58233   0.97383   0.00000  Uiso   1.00
C954   C     0.84773   0.41766   0.52617   0.00000  Uiso   1.00
Cu955  Cu    0.83333   0.54689   0.75000   0.00000  Uiso   1.00
Cu956  Cu    0.83333   0.45311   0.75000   0.00000  Uiso   1.00
H957   H     0.82098   0.57199   0.88720   0.00000  Uiso   1.00
H958   H     0.84569   0.42801   0.61280   0.00000  Uiso   1.00
N959   N     0.83333   0.61736   0.75000   0.00000  Uiso   1.00
N960   N     0.83333   0.38264   0.75000   0.00000  Uiso   1.00
O961   O     0.77321   0.53958   0.75000   0.00000  Uiso   1.00
O962   O     0.89345   0.46042   0.75000   0.00000  Uiso   1.00
O963   O     0.89345   0.53958   0.75000   0.00000  Uiso   1.00
O964   O     0.77321   0.46042   0.74999   0.00000  Uiso   1.00
O965   O     0.83332   0.53960   0.68513   0.00000  Uiso   1.00
O966   O     0.83334   0.46040   0.81487   0.00000  Uiso   1.00
O967   O     0.83334   0.53960   0.81487   0.00000  Uiso   1.00
O968   O     0.83332   0.46040   0.68513   0.00000  Uiso   1.00
F969   F     0.84602   0.41741   0.88761   0.00000  Uiso   1.00
F970   F     0.82065   0.58258   0.61239   0.00000  Uiso   1.00
F971   F     0.81152   0.62221   0.95049   0.00000  Uiso   1.00
F972   F     0.85514   0.37779   0.54951   0.00000  Uiso   1.00
F973   F     0.81162   0.62385   0.53946   0.00000  Uiso   1.00
F974   F     0.85505   0.37615   0.96054   0.00000  Uiso   1.00
O975   O     0.70705   0.44533   0.69074   0.00000  Uiso   1.00
H976   H     0.69044   0.41722   0.68424   0.00000  Uiso   1.00
O977   O     0.95962   0.55467   0.80926   0.00000  Uiso   1.00
H978   H     0.97623   0.58278   0.81574   0.00000  Uiso   1.00
O979   O     0.95157   0.45032   0.68773   0.00000  Uiso   1.00
H980   H     0.96658   0.44782   0.66029   0.00000  Uiso   1.00
O981   O     0.71509   0.54968   0.81227   0.00000  Uiso   1.00
H982   H     0.70009   0.55218   0.83971   0.00000  Uiso   1.00
O983   O     0.78933   0.37971   0.68309   0.00000  Uiso   1.00
H984   H     0.77930   0.40908   0.69390   0.00000  Uiso   1.00
O985   O     0.87734   0.62029   0.81691   0.00000  Uiso   1.00
H986   H     0.88737   0.59091   0.80610   0.00000  Uiso   1.00
O987   O     0.87856   0.37767   0.81611   0.00000  Uiso   1.00
H988   H     0.88692   0.40842   0.80608   0.00000  Uiso   1.00
O989   O     0.78811   0.62233   0.68389   0.00000  Uiso   1.00
H990   H     0.77975   0.59158   0.69392   0.00000  Uiso   1.00
C991   C     0.08754   0.83331   0.74953   0.00000  Uiso   1.00
C992   C     0.24579   0.83336   0.75047   0.00000  Uiso   1.00
C993   C     0.15238   0.91640   0.51984   0.00000  Uiso   1.00
C994   C     0.18096   0.75026   0.98016   0.00000  Uiso   1.00
C995   C     0.01972   0.80568   0.71946   0.00000  Uiso   1.00
C996   C     0.31362   0.86098   0.78054   0.00000  Uiso   1.00
C997   C     0.30960   0.80652   0.71920   0.00000  Uiso   1.00
C998   C     0.02374   0.86015   0.78080   0.00000  Uiso   1.00
C999   C     0.29053   0.83323   0.75050   0.00000  Uiso   1.00
C1000  C     0.04281   0.83344   0.74950   0.00000  Uiso   1.00
C1001  C     0.14526   0.69154   0.71728   0.00000  Uiso   1.00
C1002  C     0.18807   0.97513   0.78272   0.00000  Uiso   1.00
C1003  C     0.18827   0.69060   0.78259   0.00000  Uiso   1.00
C1004  C     0.14507   0.97607   0.71741   0.00000  Uiso   1.00
C1005  C     0.16659   0.83370   0.66439   0.00000  Uiso   1.00
C1006  C     0.16675   0.83297   0.83561   0.00000  Uiso   1.00
C1007  C     0.17317   0.79097   0.90868   0.00000  Uiso   1.00
C1008  C     0.16016   0.87570   0.59132   0.00000  Uiso   1.00
C1009  C     0.16657   0.83228   0.88414   0.00000  Uiso   1.00
C1010  C     0.16676   0.83438   0.61586   0.00000  Uiso   1.00
C1011  C     0.15973   0.87358   0.90609   0.00000  Uiso   1.00
C1012  C     0.17361   0.79309   0.59391   0.00000  Uiso   1.00
C1013  C     0.15951   0.87429   0.95211   0.00000  Uiso   1.00
C1014  C     0.17382   0.79238   0.54789   0.00000  Uiso   1.00
C1015  C     0.16662   0.83300   0.97677   0.00000  Uiso   1.00
C1016  C     0.16672   0.83366   0.52323   0.00000  Uiso   1.00
C1017  C     0.17359   0.79108   0.95502   0.00000  Uiso   1.00
C1018  C     0.15974   0.87559   0.54498   0.00000  Uiso   1.00
C1019  C     0.15227   0.91567   0.97383   0.00000  Uiso   1.00
C1020  C     0.18106   0.75100   0.52617   0.00000  Uiso   1.00
Cu1021 Cu    0.16667   0.88022   0.75000   0.00000  Uiso   1.00
Cu1022 Cu    0.16667   0.78645   0.75000   0.00000  Uiso   1.00
H1023  H     0.15431   0.90532   0.88720   0.00000  Uiso   1.00
H1024  H     0.17903   0.76135   0.61280   0.00000  Uiso   1.00
N1025  N     0.16667   0.95069   0.75000   0.00000  Uiso   1.00
N1026  N     0.16667   0.71598   0.75000   0.00000  Uiso   1.00
O1027  O     0.10655   0.87291   0.75000   0.00000  Uiso   1.00
O1028  O     0.22679   0.79375   0.75000   0.00000  Uiso   1.00
O1029  O     0.22679   0.87291   0.75000   0.00000  Uiso   1.00
O1030  O     0.10655   0.79375   0.74999   0.00000  Uiso   1.00
O1031  O     0.16666   0.87293   0.68513   0.00000  Uiso   1.00
O1032  O     0.16668   0.79373   0.81487   0.00000  Uiso   1.00
O1033  O     0.16668   0.87293   0.81487   0.00000  Uiso   1.00
O1034  O     0.16666   0.79373   0.68513   0.00000  Uiso   1.00
F1035  F     0.17935   0.75075   0.88761   0.00000  Uiso   1.00
F1036  F     0.15398   0.91592   0.61239   0.00000  Uiso   1.00
F1037  F     0.14486   0.95554   0.95049   0.00000  Uiso   1.00
F1038  F     0.18848   0.71113   0.54951   0.00000  Uiso   1.00
F1039  F     0.14495   0.95719   0.53946   0.00000  Uiso   1.00
F1040  F     0.18838   0.70948   0.96054   0.00000  Uiso   1.00
O1041  O     0.04038   0.77867   0.69074   0.00000  Uiso   1.00
H1042  H     0.02377   0.75056   0.68424   0.00000  Uiso   1.00
O1043  O     0.29295   0.88801   0.80926   0.00000  Uiso   1.00
H1044  H     0.30956   0.91612   0.81574   0.00000  Uiso   1.00
O1045  O     0.28491   0.78365   0.68773   0.00000  Uiso   1.00
H1046  H     0.29991   0.78115   0.66029   0.00000  Uiso   1.00
O1047  O     0.04843   0.88301   0.81227   0.00000  Uiso   1.00
H1048  H     0.03342   0.88552   0.83971   0.00000  Uiso   1.00
O1049  O     0.12266   0.71304   0.68309   0.00000  Uiso   1.00
H1050  H     0.11263   0.74242   0.69390   0.00000  Uiso   1.00
O1051  O     0.21067   0.95363   0.81691   0.00000  Uiso   1.00
H1052  H     0.22070   0.92425   0.80610   0.00000  Uiso   1.00
O1053  O     0.21189   0.71101   0.81611   0.00000  Uiso   1.00
H1054  H     0.22025   0.74175   0.80608   0.00000  Uiso   1.00
O1055  O     0.12144   0.95566   0.68389   0.00000  Uiso   1.00
H1056  H     0.11308   0.92491   0.69392   0.00000  Uiso   1.00
C1057  C     0.42088   0.83331   0.74953   0.00000  Uiso   1.00
C1058  C     0.57912   0.83336   0.75047   0.00000  Uiso   1.00
C1059  C     0.48571   0.91640   0.51984   0.00000  Uiso   1.00
C1060  C     0.51429   0.75026   0.98016   0.00000  Uiso   1.00
C1061  C     0.35305   0.80568   0.71946   0.00000  Uiso   1.00
C1062  C     0.64695   0.86098   0.78054   0.00000  Uiso   1.00
C1063  C     0.64293   0.80652   0.71920   0.00000  Uiso   1.00
C1064  C     0.35707   0.86015   0.78080   0.00000  Uiso   1.00
C1065  C     0.62386   0.83323   0.75050   0.00000  Uiso   1.00
C1066  C     0.37614   0.83344   0.74950   0.00000  Uiso   1.00
C1067  C     0.47860   0.69154   0.71728   0.00000  Uiso   1.00
C1068  C     0.52140   0.97513   0.78272   0.00000  Uiso   1.00
C1069  C     0.52160   0.69060   0.78259   0.00000  Uiso   1.00
C1070  C     0.47840   0.97607   0.71741   0.00000  Uiso   1.00
C1071  C     0.49992   0.83370   0.66439   0.00000  Uiso   1.00
C1072  C     0.50008   0.83297   0.83561   0.00000  Uiso   1.00
C1073  C     0.50650   0.79097   0.90868   0.00000  Uiso   1.00
C1074  C     0.49350   0.87570   0.59132   0.00000  Uiso   1.00
C1075  C     0.49990   0.83228   0.88414   0.00000  Uiso   1.00
C1076  C     0.50010   0.83438   0.61586   0.00000  Uiso   1.00
C1077  C     0.49306   0.87358   0.90609   0.00000  Uiso   1.00
C1078  C     0.50694   0.79309   0.59391   0.00000  Uiso   1.00
C1079  C     0.49284   0.87429   0.95211   0.00000  Uiso   1.00
C1080  C     0.50716   0.79238   0.54789   0.00000  Uiso   1.00
C1081  C     0.49995   0.83300   0.97677   0.00000  Uiso   1.00
C1082  C     0.50005   0.83366   0.52323   0.00000  Uiso   1.00
C1083  C     0.50693   0.79108   0.95502   0.00000  Uiso   1.00
C1084  C     0.49307   0.87559   0.54498   0.00000  Uiso   1.00
C1085  C     0.48560   0.91567   0.97383   0.00000  Uiso   1.00
C1086  C     0.51440   0.75100   0.52617   0.00000  Uiso   1.00
Cu1087 Cu    0.50000   0.88022   0.75000   0.00000  Uiso   1.00
Cu1088 Cu    0.50000   0.78645   0.75000   0.00000  Uiso   1.00
H1089  H     0.48764   0.90532   0.88720   0.00000  Uiso   1.00
H1090  H     0.51236   0.76135   0.61280   0.00000  Uiso   1.00
N1091  N     0.50000   0.95069   0.75000   0.00000  Uiso   1.00
N1092  N     0.50000   0.71598   0.75000   0.00000  Uiso   1.00
O1093  O     0.43988   0.87291   0.75000   0.00000  Uiso   1.00
O1094  O     0.56012   0.79375   0.75000   0.00000  Uiso   1.00
O1095  O     0.56012   0.87291   0.75000   0.00000  Uiso   1.00
O1096  O     0.43988   0.79375   0.74999   0.00000  Uiso   1.00
O1097  O     0.49999   0.87293   0.68513   0.00000  Uiso   1.00
O1098  O     0.50001   0.79373   0.81487   0.00000  Uiso   1.00
O1099  O     0.50001   0.87293   0.81487   0.00000  Uiso   1.00
O1100  O     0.49999   0.79373   0.68513   0.00000  Uiso   1.00
F1101  F     0.51268   0.75075   0.88761   0.00000  Uiso   1.00
F1102  F     0.48732   0.91592   0.61239   0.00000  Uiso   1.00
F1103  F     0.47819   0.95554   0.95049   0.00000  Uiso   1.00
F1104  F     0.52181   0.71113   0.54951   0.00000  Uiso   1.00
F1105  F     0.47828   0.95719   0.53946   0.00000  Uiso   1.00
F1106  F     0.52172   0.70948   0.96054   0.00000  Uiso   1.00
O1107  O     0.37372   0.77867   0.69074   0.00000  Uiso   1.00
H1108  H     0.35710   0.75056   0.68424   0.00000  Uiso   1.00
O1109  O     0.62628   0.88801   0.80926   0.00000  Uiso   1.00
H1110  H     0.64290   0.91612   0.81574   0.00000  Uiso   1.00
O1111  O     0.61824   0.78365   0.68773   0.00000  Uiso   1.00
H1112  H     0.63324   0.78115   0.66029   0.00000  Uiso   1.00
O1113  O     0.38176   0.88301   0.81227   0.00000  Uiso   1.00
H1114  H     0.36675   0.88552   0.83971   0.00000  Uiso   1.00
O1115  O     0.45600   0.71304   0.68309   0.00000  Uiso   1.00
H1116  H     0.44597   0.74242   0.69390   0.00000  Uiso   1.00
O1117  O     0.54400   0.95363   0.81691   0.00000  Uiso   1.00
H1118  H     0.55403   0.92425   0.80610   0.00000  Uiso   1.00
O1119  O     0.54522   0.71101   0.81611   0.00000  Uiso   1.00
H1120  H     0.55359   0.74175   0.80608   0.00000  Uiso   1.00
O1121  O     0.45478   0.95566   0.68389   0.00000  Uiso   1.00
H1122  H     0.44641   0.92491   0.69392   0.00000  Uiso   1.00
C1123  C     0.75421   0.83331   0.74953   0.00000  Uiso   1.00
C1124  C     0.91246   0.83336   0.75047   0.00000  Uiso   1.00
C1125  C     0.81905   0.91640   0.51984   0.00000  Uiso   1.00
C1126  C     0.84762   0.75026   0.98016   0.00000  Uiso   1.00
C1127  C     0.68639   0.80568   0.71946   0.00000  Uiso   1.00
C1128  C     0.98028   0.86098   0.78054   0.00000  Uiso   1.00
C1129  C     0.97626   0.80652   0.71920   0.00000  Uiso   1.00
C1130  C     0.69040   0.86015   0.78080   0.00000  Uiso   1.00
C1131  C     0.95719   0.83323   0.75050   0.00000  Uiso   1.00
C1132  C     0.70948   0.83344   0.74950   0.00000  Uiso   1.00
C1133  C     0.81193   0.69154   0.71728   0.00000  Uiso   1.00
C1134  C     0.85474   0.97513   0.78272   0.00000  Uiso   1.00
C1135  C     0.85493   0.69060   0.78259   0.00000  Uiso   1.00
C1136  C     0.81173   0.97607   0.71741   0.00000  Uiso   1.00
C1137  C     0.83325   0.83370   0.66439   0.00000  Uiso   1.00
C1138  C     0.83341   0.83297   0.83561   0.00000  Uiso   1.00
C1139  C     0.83984   0.79097   0.90868   0.00000  Uiso   1.00
C1140  C     0.82683   0.87570   0.59132   0.00000  Uiso   1.00
C1141  C     0.83324   0.83228   0.88414   0.00000  Uiso   1.00
C1142  C     0.83343   0.83438   0.61586   0.00000  Uiso   1.00
C1143  C     0.82640   0.87358   0.90609   0.00000  Uiso   1.00
C1144  C     0.84027   0.79309   0.59391   0.00000  Uiso   1.00
C1145  C     0.82618   0.87429   0.95211   0.00000  Uiso   1.00
C1146  C     0.84049   0.79238   0.54789   0.00000  Uiso   1.00
C1147  C     0.83329   0.83300   0.97677   0.00000  Uiso   1.00
C1148  C     0.83338   0.83366   0.52323   0.00000  Uiso   1.00
C1149  C     0.84026   0.79108   0.95502   0.00000  Uiso   1.00
C1150  C     0.82641   0.87559   0.54498   0.00000  Uiso   1.00
C1151  C     0.81894   0.91567   0.97383   0.00000  Uiso   1.00
C1152  C     0.84773   0.75100   0.52617   0.00000  Uiso   1.00
Cu1153 Cu    0.83333   0.88022   0.75000   0.00000  Uiso   1.00
Cu1154 Cu    0.83333   0.78645   0.75000   0.00000  Uiso   1.00
H1155  H     0.82098   0.90532   0.88720   0.00000  Uiso   1.00
H1156  H     0.84569   0.76135   0.61280   0.00000  Uiso   1.00
N1157  N     0.83333   0.95069   0.75000   0.00000  Uiso   1.00
N1158  N     0.83333   0.71598   0.75000   0.00000  Uiso   1.00
O1159  O     0.77321   0.87291   0.75000   0.00000  Uiso   1.00
O1160  O     0.89345   0.79375   0.75000   0.00000  Uiso   1.00
O1161  O     0.89345   0.87291   0.75000   0.00000  Uiso   1.00
O1162  O     0.77321   0.79375   0.74999   0.00000  Uiso   1.00
O1163  O     0.83332   0.87293   0.68513   0.00000  Uiso   1.00
O1164  O     0.83334   0.79373   0.81487   0.00000  Uiso   1.00
O1165  O     0.83334   0.87293   0.81487   0.00000  Uiso   1.00
O1166  O     0.83332   0.79373   0.68513   0.00000  Uiso   1.00
F1167  F     0.84602   0.75075   0.88761   0.00000  Uiso   1.00
F1168  F     0.82065   0.91592   0.61239   0.00000  Uiso   1.00
F1169  F     0.81152   0.95554   0.95049   0.00000  Uiso   1.00
F1170  F     0.85514   0.71113   0.54951   0.00000  Uiso   1.00
F1171  F     0.81162   0.95719   0.53946   0.00000  Uiso   1.00
F1172  F     0.85505   0.70948   0.96054   0.00000  Uiso   1.00
O1173  O     0.70705   0.77867   0.69074   0.00000  Uiso   1.00
H1174  H     0.69044   0.75056   0.68424   0.00000  Uiso   1.00
O1175  O     0.95962   0.88801   0.80926   0.00000  Uiso   1.00
H1176  H     0.97623   0.91612   0.81574   0.00000  Uiso   1.00
O1177  O     0.95157   0.78365   0.68773   0.00000  Uiso   1.00
H1178  H     0.96658   0.78115   0.66029   0.00000  Uiso   1.00
O1179  O     0.71509   0.88301   0.81227   0.00000  Uiso   1.00
H1180  H     0.70009   0.88552   0.83971   0.00000  Uiso   1.00
O1181  O     0.78933   0.71304   0.68309   0.00000  Uiso   1.00
H1182  H     0.77930   0.74242   0.69390   0.00000  Uiso   1.00
O1183  O     0.87734   0.95363   0.81691   0.00000  Uiso   1.00
H1184  H     0.88737   0.92425   0.80610   0.00000  Uiso   1.00
O1185  O     0.87856   0.71101   0.81611   0.00000  Uiso   1.00
H1186  H     0.88692   0.74175   0.80608   0.00000  Uiso   1.00
O1187  O     0.78811   0.95566   0.68389   0.00000  Uiso   1.00
H1188  H     0.77975   0.92491   0.69392   0.00000  Uiso   1.00
loop_
_geom_bond_atom_site_label_1
_geom_bond_atom_site_label_2
_geom_bond_distance
_geom_bond_site_symmetry_2
_ccdc_geom_bond_type
C1     O40     1.301   .     A
C1     C10     1.450   .     S
C1     O37     1.300   .     A
C2     O38     1.300   .     A
C2     C9      1.450   .     S
C2     O39     1.301   .     A
C3     F49     1.358   .     S
C3     C28     1.409   .     A
C3     C623    1.392   1_554 S
C4     C27     1.409   .     A
C4     F50     1.358   .     S
C4     C624    1.392   .     S
C5     C10     1.405   .     A
C5     O51     1.381   .     S
C5     C139    1.408   1_455 S
C6     C9      1.404   .     A
C6     O53     1.381   .     S
C6     C74     1.408   .     S
C7     O55     1.383   .     S
C7     C9      1.404   .     A
C7     C71     1.408   .     S
C8     O57     1.383   .     S
C8     C10     1.404   .     A
C8     C138    1.408   1_455 S
C11    O59     1.374   .     S
C11    N36     1.379   .     A
C11    C410    1.413   1_545 S
C12    N35     1.379   .     A
C12    O61     1.374   .     S
C12    C211    1.413   .     S
C13    O63     1.375   .     S
C13    N36     1.379   .     A
C13    C408    1.413   1_545 S
C14    O65     1.375   .     S
C14    N35     1.379   .     A
C14    C209    1.413   .     S
C15    C20     1.469   .     S
C15    O44     1.308   .     A
C15    O41     1.306   .     A
C16    O43     1.308   .     A
C16    C19     1.469   .     S
C16    O42     1.306   .     A
C17    C27     1.401   .     A
C17    C19     1.408   .     A
C17    F45     1.357   .     S
C18    F46     1.357   .     S
C18    C20     1.408   .     A
C18    C28     1.401   .     A
C19    C21     1.401   .     A
C20    C22     1.401   .     A
C21    C23     1.394   .     A
C21    H33     1.084   .     S
C22    H34     1.084   .     S
C22    C24     1.394   .     A
C23    C29     1.402   .     A
C23    C25     1.411   .     A
C24    C26     1.411   .     A
C24    C30     1.402   .     A
C25    C27     1.414   .     A
C25    C620    1.406   .     S
C26    C28     1.414   .     A
C26    C619    1.406   1_554 S
C29    F47     1.359   .     S
C29    C597    1.392   .     S
C30    F48     1.358   .     S
C30    C598    1.392   1_554 S
Cu31   O37     1.960   .     S
Cu31   Cu32    2.714   .     S
Cu31   O43     1.971   .     S
Cu31   N35     2.040   .     S
Cu31   O41     1.977   .     S
Cu31   O39     1.961   .     S
Cu32   O38     1.960   .     S
Cu32   O40     1.961   .     S
Cu32   N36     2.040   .     S
Cu32   O44     1.971   .     S
Cu32   O42     1.977   .     S
O51    H52     0.990   .     S
O53    H54     0.990   .     S
O55    H56     0.990   .     S
O57    H58     0.990   .     S
O59    H60     0.979   .     S
O61    H62     0.979   .     S
O63    H64     0.979   .     S
O65    H66     0.979   .     S
C67    O106    1.301   .     A
C67    C76     1.450   .     S
C67    O103    1.300   .     A
C68    O104    1.300   .     A
C68    C75     1.450   .     S
C68    O105    1.301   .     A
C69    F115    1.358   .     S
C69    C94     1.409   .     A
C69    C689    1.392   1_554 S
C70    C93     1.409   .     A
C70    F116    1.358   .     S
C70    C690    1.392   .     S
C71    C76     1.405   .     A
C71    O117    1.381   .     S
C72    C75     1.404   .     A
C72    O119    1.381   .     S
C72    C140    1.408   .     S
C73    O121    1.383   .     S
C73    C75     1.404   .     A
C73    C137    1.408   .     S
C74    O123    1.383   .     S
C74    C76     1.404   .     A
C77    O125    1.374   .     S
C77    N102    1.379   .     A
C77    C476    1.413   1_545 S
C78    N101    1.379   .     A
C78    O127    1.374   .     S
C78    C277    1.413   .     S
C79    O129    1.375   .     S
C79    N102    1.379   .     A
C79    C474    1.413   1_545 S
C80    O131    1.375   .     S
C80    N101    1.379   .     A
C80    C275    1.413   .     S
C81    C86     1.469   .     S
C81    O110    1.308   .     A
C81    O107    1.306   .     A
C82    O109    1.308   .     A
C82    C85     1.469   .     S
C82    O108    1.306   .     A
C83    C93     1.401   .     A
C83    C85     1.408   .     A
C83    F111    1.357   .     S
C84    F112    1.357   .     S
C84    C86     1.408   .     A
C84    C94     1.401   .     A
C85    C87     1.401   .     A
C86    C88     1.401   .     A
C87    C89     1.394   .     A
C87    H99     1.084   .     S
C88    H100    1.084   .     S
C88    C90     1.394   .     A
C89    C95     1.402   .     A
C89    C91     1.411   .     A
C90    C92     1.411   .     A
C90    C96     1.402   .     A
C91    C93     1.414   .     A
C91    C686    1.406   .     S
C92    C94     1.414   .     A
C92    C685    1.406   1_554 S
C95    F113    1.359   .     S
C95    C663    1.392   .     S
C96    F114    1.358   .     S
C96    C664    1.392   1_554 S
Cu97   O103    1.960   .     S
Cu97   Cu98    2.714   .     S
Cu97   O109    1.971   .     S
Cu97   N101    2.040   .     S
Cu97   O107    1.977   .     S
Cu97   O105    1.961   .     S
Cu98   O104    1.960   .     S
Cu98   O106    1.961   .     S
Cu98   N102    2.040   .     S
Cu98   O110    1.971   .     S
Cu98   O108    1.977   .     S
O117   H118    0.990   .     S
O119   H120    0.990   .     S
O121   H122    0.990   .     S
O123   H124    0.990   .     S
O125   H126    0.979   .     S
O127   H128    0.979   .     S
O129   H130    0.979   .     S
O131   H132    0.979   .     S
C133   O172    1.301   .     A
C133   C142    1.450   .     S
C133   O169    1.300   .     A
C134   O170    1.300   .     A
C134   C141    1.450   .     S
C134   O171    1.301   .     A
C135   F181    1.358   .     S
C135   C160    1.409   .     A
C135   C755    1.392   1_554 S
C136   C159    1.409   .     A
C136   F182    1.358   .     S
C136   C756    1.392   .     S
C137   C142    1.405   .     A
C137   O183    1.381   .     S
C138   C141    1.404   .     A
C138   O185    1.381   .     S
C138   C8      1.408   1_655 S
C139   O187    1.383   .     S
C139   C141    1.404   .     A
C139   C5      1.408   1_655 S
C140   O189    1.383   .     S
C140   C142    1.404   .     A
C143   O191    1.374   .     S
C143   N168    1.379   .     A
C143   C542    1.413   1_545 S
C144   N167    1.379   .     A
C144   O193    1.374   .     S
C144   C343    1.413   .     S
C145   O195    1.375   .     S
C145   N168    1.379   .     A
C145   C540    1.413   1_545 S
C146   O197    1.375   .     S
C146   N167    1.379   .     A
C146   C341    1.413   .     S
C147   C152    1.469   .     S
C147   O176    1.308   .     A
C147   O173    1.306   .     A
C148   O175    1.308   .     A
C148   C151    1.469   .     S
C148   O174    1.306   .     A
C149   C159    1.401   .     A
C149   C151    1.408   .     A
C149   F177    1.357   .     S
C150   F178    1.357   .     S
C150   C152    1.408   .     A
C150   C160    1.401   .     A
C151   C153    1.401   .     A
C152   C154    1.401   .     A
C153   C155    1.394   .     A
C153   H165    1.084   .     S
C154   H166    1.084   .     S
C154   C156    1.394   .     A
C155   C161    1.402   .     A
C155   C157    1.411   .     A
C156   C158    1.411   .     A
C156   C162    1.402   .     A
C157   C159    1.414   .     A
C157   C752    1.406   .     S
C158   C160    1.414   .     A
C158   C751    1.406   1_554 S
C161   F179    1.359   .     S
C161   C729    1.392   .     S
C162   F180    1.358   .     S
C162   C730    1.392   1_554 S
Cu163  O169    1.960   .     S
Cu163  Cu164   2.714   .     S
Cu163  O175    1.971   .     S
Cu163  N167    2.040   .     S
Cu163  O173    1.977   .     S
Cu163  O171    1.961   .     S
Cu164  O170    1.960   .     S
Cu164  O172    1.961   .     S
Cu164  N168    2.040   .     S
Cu164  O176    1.971   .     S
Cu164  O174    1.977   .     S
O183   H184    0.990   .     S
O185   H186    0.990   .     S
O187   H188    0.990   .     S
O189   H190    0.990   .     S
O191   H192    0.979   .     S
O193   H194    0.979   .     S
O195   H196    0.979   .     S
O197   H198    0.979   .     S
C199   O238    1.301   .     A
C199   C208    1.450   .     S
C199   O235    1.300   .     A
C200   O236    1.300   .     A
C200   C207    1.450   .     S
C200   O237    1.301   .     A
C201   F247    1.358   .     S
C201   C226    1.409   .     A
C201   C821    1.392   1_554 S
C202   C225    1.409   .     A
C202   F248    1.358   .     S
C202   C822    1.392   .     S
C203   C208    1.405   .     A
C203   O249    1.381   .     S
C203   C337    1.408   1_455 S
C204   C207    1.404   .     A
C204   O251    1.381   .     S
C204   C272    1.408   .     S
C205   O253    1.383   .     S
C205   C207    1.404   .     A
C205   C269    1.408   .     S
C206   O255    1.383   .     S
C206   C208    1.404   .     A
C206   C336    1.408   1_455 S
C209   O257    1.374   .     S
C209   N234    1.379   .     A
C210   N233    1.379   .     A
C210   O259    1.374   .     S
C210   C409    1.413   .     S
C211   O261    1.375   .     S
C211   N234    1.379   .     A
C212   O263    1.375   .     S
C212   N233    1.379   .     A
C212   C407    1.413   .     S
C213   C218    1.469   .     S
C213   O242    1.308   .     A
C213   O239    1.306   .     A
C214   O241    1.308   .     A
C214   C217    1.469   .     S
C214   O240    1.306   .     A
C215   C225    1.401   .     A
C215   C217    1.408   .     A
C215   F243    1.357   .     S
C216   F244    1.357   .     S
C216   C218    1.408   .     A
C216   C226    1.401   .     A
C217   C219    1.401   .     A
C218   C220    1.401   .     A
C219   C221    1.394   .     A
C219   H231    1.084   .     S
C220   H232    1.084   .     S
C220   C222    1.394   .     A
C221   C227    1.402   .     A
C221   C223    1.411   .     A
C222   C224    1.411   .     A
C222   C228    1.402   .     A
C223   C225    1.414   .     A
C223   C818    1.406   .     S
C224   C226    1.414   .     A
C224   C817    1.406   1_554 S
C227   F245    1.359   .     S
C227   C795    1.392   .     S
C228   F246    1.358   .     S
C228   C796    1.392   1_554 S
Cu229  O235    1.960   .     S
Cu229  Cu230   2.714   .     S
Cu229  O241    1.971   .     S
Cu229  N233    2.040   .     S
Cu229  O239    1.977   .     S
Cu229  O237    1.961   .     S
Cu230  O236    1.960   .     S
Cu230  O238    1.961   .     S
Cu230  N234    2.040   .     S
Cu230  O242    1.971   .     S
Cu230  O240    1.977   .     S
O249   H250    0.990   .     S
O251   H252    0.990   .     S
O253   H254    0.990   .     S
O255   H256    0.990   .     S
O257   H258    0.979   .     S
O259   H260    0.979   .     S
O261   H262    0.979   .     S
O263   H264    0.979   .     S
C265   O304    1.301   .     A
C265   C274    1.450   .     S
C265   O301    1.300   .     A
C266   O302    1.300   .     A
C266   C273    1.450   .     S
C266   O303    1.301   .     A
C267   F313    1.358   .     S
C267   C292    1.409   .     A
C267   C887    1.392   1_554 S
C268   C291    1.409   .     A
C268   F314    1.358   .     S
C268   C888    1.392   .     S
C269   C274    1.405   .     A
C269   O315    1.381   .     S
C270   C273    1.404   .     A
C270   O317    1.381   .     S
C270   C338    1.408   .     S
C271   O319    1.383   .     S
C271   C273    1.404   .     A
C271   C335    1.408   .     S
C272   O321    1.383   .     S
C272   C274    1.404   .     A
C275   O323    1.374   .     S
C275   N300    1.379   .     A
C276   N299    1.379   .     A
C276   O325    1.374   .     S
C276   C475    1.413   .     S
C277   O327    1.375   .     S
C277   N300    1.379   .     A
C278   O329    1.375   .     S
C278   N299    1.379   .     A
C278   C473    1.413   .     S
C279   C284    1.469   .     S
C279   O308    1.308   .     A
C279   O305    1.306   .     A
C280   O307    1.308   .     A
C280   C283    1.469   .     S
C280   O306    1.306   .     A
C281   C291    1.401   .     A
C281   C283    1.408   .     A
C281   F309    1.357   .     S
C282   F310    1.357   .     S
C282   C284    1.408   .     A
C282   C292    1.401   .     A
C283   C285    1.401   .     A
C284   C286    1.401   .     A
C285   C287    1.394   .     A
C285   H297    1.084   .     S
C286   H298    1.084   .     S
C286   C288    1.394   .     A
C287   C293    1.402   .     A
C287   C289    1.411   .     A
C288   C290    1.411   .     A
C288   C294    1.402   .     A
C289   C291    1.414   .     A
C289   C884    1.406   .     S
C290   C292    1.414   .     A
C290   C883    1.406   1_554 S
C293   F311    1.359   .     S
C293   C861    1.392   .     S
C294   F312    1.358   .     S
C294   C862    1.392   1_554 S
Cu295  O301    1.960   .     S
Cu295  Cu296   2.714   .     S
Cu295  O307    1.971   .     S
Cu295  N299    2.040   .     S
Cu295  O305    1.977   .     S
Cu295  O303    1.961   .     S
Cu296  O302    1.960   .     S
Cu296  O304    1.961   .     S
Cu296  N300    2.040   .     S
Cu296  O308    1.971   .     S
Cu296  O306    1.977   .     S
O315   H316    0.990   .     S
O317   H318    0.990   .     S
O319   H320    0.990   .     S
O321   H322    0.990   .     S
O323   H324    0.979   .     S
O325   H326    0.979   .     S
O327   H328    0.979   .     S
O329   H330    0.979   .     S
C331   O370    1.301   .     A
C331   C340    1.450   .     S
C331   O367    1.300   .     A
C332   O368    1.300   .     A
C332   C339    1.450   .     S
C332   O369    1.301   .     A
C333   F379    1.358   .     S
C333   C358    1.409   .     A
C333   C953    1.392   1_554 S
C334   C357    1.409   .     A
C334   F380    1.358   .     S
C334   C954    1.392   .     S
C335   C340    1.405   .     A
C335   O381    1.381   .     S
C336   C339    1.404   .     A
C336   O383    1.381   .     S
C336   C206    1.408   1_655 S
C337   O385    1.383   .     S
C337   C339    1.404   .     A
C337   C203    1.408   1_655 S
C338   O387    1.383   .     S
C338   C340    1.404   .     A
C341   O389    1.374   .     S
C341   N366    1.379   .     A
C342   N365    1.379   .     A
C342   O391    1.374   .     S
C342   C541    1.413   .     S
C343   O393    1.375   .     S
C343   N366    1.379   .     A
C344   O395    1.375   .     S
C344   N365    1.379   .     A
C344   C539    1.413   .     S
C345   C350    1.469   .     S
C345   O374    1.308   .     A
C345   O371    1.306   .     A
C346   O373    1.308   .     A
C346   C349    1.469   .     S
C346   O372    1.306   .     A
C347   C357    1.401   .     A
C347   C349    1.408   .     A
C347   F375    1.357   .     S
C348   F376    1.357   .     S
C348   C350    1.408   .     A
C348   C358    1.401   .     A
C349   C351    1.401   .     A
C350   C352    1.401   .     A
C351   C353    1.394   .     A
C351   H363    1.084   .     S
C352   H364    1.084   .     S
C352   C354    1.394   .     A
C353   C359    1.402   .     A
C353   C355    1.411   .     A
C354   C356    1.411   .     A
C354   C360    1.402   .     A
C355   C357    1.414   .     A
C355   C950    1.406   .     S
C356   C358    1.414   .     A
C356   C949    1.406   1_554 S
C359   F377    1.359   .     S
C359   C927    1.392   .     S
C360   F378    1.358   .     S
C360   C928    1.392   1_554 S
Cu361  O367    1.960   .     S
Cu361  Cu362   2.714   .     S
Cu361  O373    1.971   .     S
Cu361  N365    2.040   .     S
Cu361  O371    1.977   .     S
Cu361  O369    1.961   .     S
Cu362  O368    1.960   .     S
Cu362  O370    1.961   .     S
Cu362  N366    2.040   .     S
Cu362  O374    1.971   .     S
Cu362  O372    1.977   .     S
O381   H382    0.990   .     S
O383   H384    0.990   .     S
O385   H386    0.990   .     S
O387   H388    0.990   .     S
O389   H390    0.979   .     S
O391   H392    0.979   .     S
O393   H394    0.979   .     S
O395   H396    0.979   .     S
C397   O436    1.301   .     A
C397   C406    1.450   .     S
C397   O433    1.300   .     A
C398   O434    1.300   .     A
C398   C405    1.450   .     S
C398   O435    1.301   .     A
C399   F445    1.358   .     S
C399   C424    1.409   .     A
C399   C1019   1.392   1_554 S
C400   C423    1.409   .     A
C400   F446    1.358   .     S
C400   C1020   1.392   .     S
C401   C406    1.405   .     A
C401   O447    1.381   .     S
C401   C535    1.408   1_455 S
C402   C405    1.404   .     A
C402   O449    1.381   .     S
C402   C470    1.408   .     S
C403   O451    1.383   .     S
C403   C405    1.404   .     A
C403   C467    1.408   .     S
C404   O453    1.383   .     S
C404   C406    1.404   .     A
C404   C534    1.408   1_455 S
C407   O455    1.374   .     S
C407   N432    1.379   .     A
C408   N431    1.379   .     A
C408   O457    1.374   .     S
C408   C13     1.413   1_565 S
C409   O459    1.375   .     S
C409   N432    1.379   .     A
C410   O461    1.375   .     S
C410   N431    1.379   .     A
C410   C11     1.413   1_565 S
C411   C416    1.469   .     S
C411   O440    1.308   .     A
C411   O437    1.306   .     A
C412   O439    1.308   .     A
C412   C415    1.469   .     S
C412   O438    1.306   .     A
C413   C423    1.401   .     A
C413   C415    1.408   .     A
C413   F441    1.357   .     S
C414   F442    1.357   .     S
C414   C416    1.408   .     A
C414   C424    1.401   .     A
C415   C417    1.401   .     A
C416   C418    1.401   .     A
C417   C419    1.394   .     A
C417   H429    1.084   .     S
C418   H430    1.084   .     S
C418   C420    1.394   .     A
C419   C425    1.402   .     A
C419   C421    1.411   .     A
C420   C422    1.411   .     A
C420   C426    1.402   .     A
C421   C423    1.414   .     A
C421   C1016   1.406   .     S
C422   C424    1.414   .     A
C422   C1015   1.406   1_554 S
C425   F443    1.359   .     S
C425   C993    1.392   .     S
C426   F444    1.358   .     S
C426   C994    1.392   1_554 S
Cu427  O433    1.960   .     S
Cu427  Cu428   2.714   .     S
Cu427  O439    1.971   .     S
Cu427  N431    2.040   .     S
Cu427  O437    1.977   .     S
Cu427  O435    1.961   .     S
Cu428  O434    1.960   .     S
Cu428  O436    1.961   .     S
Cu428  N432    2.040   .     S
Cu428  O440    1.971   .     S
Cu428  O438    1.977   .     S
O447   H448    0.990   .     S
O449   H450    0.990   .     S
O451   H452    0.990   .     S
O453   H454    0.990   .     S
O455   H456    0.979   .     S
O457   H458    0.979   .     S
O459   H460    0.979   .     S
O461   H462    0.979   .     S
C463   O502    1.301   .     A
C463   C472    1.450   .     S
C463   O499    1.300   .     A
C464   O500    1.300   .     A
C464   C471    1.450   .     S
C464   O501    1.301   .     A
C465   F511    1.358   .     S
C465   C490    1.409   .     A
C465   C1085   1.392   1_554 S
C466   C489    1.409   .     A
C466   F512    1.358   .     S
C466   C1086   1.392   .     S
C467   C472    1.405   .     A
C467   O513    1.381   .     S
C468   C471    1.404   .     A
C468   O515    1.381   .     S
C468   C536    1.408   .     S
C469   O517    1.383   .     S
C469   C471    1.404   .     A
C469   C533    1.408   .     S
C470   O519    1.383   .     S
C470   C472    1.404   .     A
C473   O521    1.374   .     S
C473   N498    1.379   .     A
C474   N497    1.379   .     A
C474   O523    1.374   .     S
C474   C79     1.413   1_565 S
C475   O525    1.375   .     S
C475   N498    1.379   .     A
C476   O527    1.375   .     S
C476   N497    1.379   .     A
C476   C77     1.413   1_565 S
C477   C482    1.469   .     S
C477   O506    1.308   .     A
C477   O503    1.306   .     A
C478   O505    1.308   .     A
C478   C481    1.469   .     S
C478   O504    1.306   .     A
C479   C489    1.401   .     A
C479   C481    1.408   .     A
C479   F507    1.357   .     S
C480   F508    1.357   .     S
C480   C482    1.408   .     A
C480   C490    1.401   .     A
C481   C483    1.401   .     A
C482   C484    1.401   .     A
C483   C485    1.394   .     A
C483   H495    1.084   .     S
C484   H496    1.084   .     S
C484   C486    1.394   .     A
C485   C491    1.402   .     A
C485   C487    1.411   .     A
C486   C488    1.411   .     A
C486   C492    1.402   .     A
C487   C489    1.414   .     A
C487   C1082   1.406   .     S
C488   C490    1.414   .     A
C488   C1081   1.406   1_554 S
C491   F509    1.359   .     S
C491   C1059   1.392   .     S
C492   F510    1.358   .     S
C492   C1060   1.392   1_554 S
Cu493  O499    1.960   .     S
Cu493  Cu494   2.714   .     S
Cu493  O505    1.971   .     S
Cu493  N497    2.040   .     S
Cu493  O503    1.977   .     S
Cu493  O501    1.961   .     S
Cu494  O500    1.960   .     S
Cu494  O502    1.961   .     S
Cu494  N498    2.040   .     S
Cu494  O506    1.971   .     S
Cu494  O504    1.977   .     S
O513   H514    0.990   .     S
O515   H516    0.990   .     S
O517   H518    0.990   .     S
O519   H520    0.990   .     S
O521   H522    0.979   .     S
O523   H524    0.979   .     S
O525   H526    0.979   .     S
O527   H528    0.979   .     S
C529   O568    1.301   .     A
C529   C538    1.450   .     S
C529   O565    1.300   .     A
C530   O566    1.300   .     A
C530   C537    1.450   .     S
C530   O567    1.301   .     A
C531   F577    1.358   .     S
C531   C556    1.409   .     A
C531   C1151   1.392   1_554 S
C532   C555    1.409   .     A
C532   F578    1.358   .     S
C532   C1152   1.392   .     S
C533   C538    1.405   .     A
C533   O579    1.381   .     S
C534   C537    1.404   .     A
C534   O581    1.381   .     S
C534   C404    1.408   1_655 S
C535   O583    1.383   .     S
C535   C537    1.404   .     A
C535   C401    1.408   1_655 S
C536   O585    1.383   .     S
C536   C538    1.404   .     A
C539   O587    1.374   .     S
C539   N564    1.379   .     A
C540   N563    1.379   .     A
C540   O589    1.374   .     S
C540   C145    1.413   1_565 S
C541   O591    1.375   .     S
C541   N564    1.379   .     A
C542   O593    1.375   .     S
C542   N563    1.379   .     A
C542   C143    1.413   1_565 S
C543   C548    1.469   .     S
C543   O572    1.308   .     A
C543   O569    1.306   .     A
C544   O571    1.308   .     A
C544   C547    1.469   .     S
C544   O570    1.306   .     A
C545   C555    1.401   .     A
C545   C547    1.408   .     A
C545   F573    1.357   .     S
C546   F574    1.357   .     S
C546   C548    1.408   .     A
C546   C556    1.401   .     A
C547   C549    1.401   .     A
C548   C550    1.401   .     A
C549   C551    1.394   .     A
C549   H561    1.084   .     S
C550   H562    1.084   .     S
C550   C552    1.394   .     A
C551   C557    1.402   .     A
C551   C553    1.411   .     A
C552   C554    1.411   .     A
C552   C558    1.402   .     A
C553   C555    1.414   .     A
C553   C1148   1.406   .     S
C554   C556    1.414   .     A
C554   C1147   1.406   1_554 S
C557   F575    1.359   .     S
C557   C1125   1.392   .     S
C558   F576    1.358   .     S
C558   C1126   1.392   1_554 S
Cu559  O565    1.960   .     S
Cu559  Cu560   2.714   .     S
Cu559  O571    1.971   .     S
Cu559  N563    2.040   .     S
Cu559  O569    1.977   .     S
Cu559  O567    1.961   .     S
Cu560  O566    1.960   .     S
Cu560  O568    1.961   .     S
Cu560  N564    2.040   .     S
Cu560  O572    1.971   .     S
Cu560  O570    1.977   .     S
O579   H580    0.990   .     S
O581   H582    0.990   .     S
O583   H584    0.990   .     S
O585   H586    0.990   .     S
O587   H588    0.979   .     S
O589   H590    0.979   .     S
O591   H592    0.979   .     S
O593   H594    0.979   .     S
C595   O634    1.301   .     A
C595   C604    1.450   .     S
C595   O631    1.300   .     A
C596   O632    1.300   .     A
C596   C603    1.450   .     S
C596   O633    1.301   .     A
C597   F643    1.358   .     S
C597   C622    1.409   .     A
C598   C621    1.409   .     A
C598   F644    1.358   .     S
C598   C30     1.392   1_556 S
C599   C604    1.405   .     A
C599   O645    1.381   .     S
C599   C733    1.408   1_455 S
C600   C603    1.404   .     A
C600   O647    1.381   .     S
C600   C668    1.408   .     S
C601   O649    1.383   .     S
C601   C603    1.404   .     A
C601   C665    1.408   .     S
C602   O651    1.383   .     S
C602   C604    1.404   .     A
C602   C732    1.408   1_455 S
C605   O653    1.374   .     S
C605   N630    1.379   .     A
C605   C1004   1.413   1_545 S
C606   N629    1.379   .     A
C606   O655    1.374   .     S
C606   C805    1.413   .     S
C607   O657    1.375   .     S
C607   N630    1.379   .     A
C607   C1002   1.413   1_545 S
C608   O659    1.375   .     S
C608   N629    1.379   .     A
C608   C803    1.413   .     S
C609   C614    1.469   .     S
C609   O638    1.308   .     A
C609   O635    1.306   .     A
C610   O637    1.308   .     A
C610   C613    1.469   .     S
C610   O636    1.306   .     A
C611   C621    1.401   .     A
C611   C613    1.408   .     A
C611   F639    1.357   .     S
C612   F640    1.357   .     S
C612   C614    1.408   .     A
C612   C622    1.401   .     A
C613   C615    1.401   .     A
C614   C616    1.401   .     A
C615   C617    1.394   .     A
C615   H627    1.084   .     S
C616   H628    1.084   .     S
C616   C618    1.394   .     A
C617   C623    1.402   .     A
C617   C619    1.411   .     A
C618   C620    1.411   .     A
C618   C624    1.402   .     A
C619   C621    1.414   .     A
C619   C26     1.406   1_556 S
C620   C622    1.414   .     A
C623   F641    1.359   .     S
C623   C3      1.392   1_556 S
C624   F642    1.358   .     S
Cu625  O631    1.960   .     S
Cu625  Cu626   2.714   .     S
Cu625  O637    1.971   .     S
Cu625  N629    2.040   .     S
Cu625  O635    1.977   .     S
Cu625  O633    1.961   .     S
Cu626  O632    1.960   .     S
Cu626  O634    1.961   .     S
Cu626  N630    2.040   .     S
Cu626  O638    1.971   .     S
Cu626  O636    1.977   .     S
O645   H646    0.990   .     S
O647   H648    0.990   .     S
O649   H650    0.990   .     S
O651   H652    0.990   .     S
O653   H654    0.979   .     S
O655   H656    0.979   .     S
O657   H658    0.979   .     S
O659   H660    0.979   .     S
C661   O700    1.301   .     A
C661   C670    1.450   .     S
C661   O697    1.300   .     A
C662   O698    1.300   .     A
C662   C669    1.450   .     S
C662   O699    1.301   .     A
C663   F709    1.358   .     S
C663   C688    1.409   .     A
C664   C687    1.409   .     A
C664   F710    1.358   .     S
C664   C96     1.392   1_556 S
C665   C670    1.405   .     A
C665   O711    1.381   .     S
C666   C669    1.404   .     A
C666   O713    1.381   .     S
C666   C734    1.408   .     S
C667   O715    1.383   .     S
C667   C669    1.404   .     A
C667   C731    1.408   .     S
C668   O717    1.383   .     S
C668   C670    1.404   .     A
C671   O719    1.374   .     S
C671   N696    1.379   .     A
C671   C1070   1.413   1_545 S
C672   N695    1.379   .     A
C672   O721    1.374   .     S
C672   C871    1.413   .     S
C673   O723    1.375   .     S
C673   N696    1.379   .     A
C673   C1068   1.413   1_545 S
C674   O725    1.375   .     S
C674   N695    1.379   .     A
C674   C869    1.413   .     S
C675   C680    1.469   .     S
C675   O704    1.308   .     A
C675   O701    1.306   .     A
C676   O703    1.308   .     A
C676   C679    1.469   .     S
C676   O702    1.306   .     A
C677   C687    1.401   .     A
C677   C679    1.408   .     A
C677   F705    1.357   .     S
C678   F706    1.357   .     S
C678   C680    1.408   .     A
C678   C688    1.401   .     A
C679   C681    1.401   .     A
C680   C682    1.401   .     A
C681   C683    1.394   .     A
C681   H693    1.084   .     S
C682   H694    1.084   .     S
C682   C684    1.394   .     A
C683   C689    1.402   .     A
C683   C685    1.411   .     A
C684   C686    1.411   .     A
C684   C690    1.402   .     A
C685   C687    1.414   .     A
C685   C92     1.406   1_556 S
C686   C688    1.414   .     A
C689   F707    1.359   .     S
C689   C69     1.392   1_556 S
C690   F708    1.358   .     S
Cu691  O697    1.960   .     S
Cu691  Cu692   2.714   .     S
Cu691  O703    1.971   .     S
Cu691  N695    2.040   .     S
Cu691  O701    1.977   .     S
Cu691  O699    1.961   .     S
Cu692  O698    1.960   .     S
Cu692  O700    1.961   .     S
Cu692  N696    2.040   .     S
Cu692  O704    1.971   .     S
Cu692  O702    1.977   .     S
O711   H712    0.990   .     S
O713   H714    0.990   .     S
O715   H716    0.990   .     S
O717   H718    0.990   .     S
O719   H720    0.979   .     S
O721   H722    0.979   .     S
O723   H724    0.979   .     S
O725   H726    0.979   .     S
C727   O766    1.301   .     A
C727   C736    1.450   .     S
C727   O763    1.300   .     A
C728   O764    1.300   .     A
C728   C735    1.450   .     S
C728   O765    1.301   .     A
C729   F775    1.358   .     S
C729   C754    1.409   .     A
C730   C753    1.409   .     A
C730   F776    1.358   .     S
C730   C162    1.392   1_556 S
C731   C736    1.405   .     A
C731   O777    1.381   .     S
C732   C735    1.404   .     A
C732   O779    1.381   .     S
C732   C602    1.408   1_655 S
C733   O781    1.383   .     S
C733   C735    1.404   .     A
C733   C599    1.408   1_655 S
C734   O783    1.383   .     S
C734   C736    1.404   .     A
C737   O785    1.374   .     S
C737   N762    1.379   .     A
C737   C1136   1.413   1_545 S
C738   N761    1.379   .     A
C738   O787    1.374   .     S
C738   C937    1.413   .     S
C739   O789    1.375   .     S
C739   N762    1.379   .     A
C739   C1134   1.413   1_545 S
C740   O791    1.375   .     S
C740   N761    1.379   .     A
C740   C935    1.413   .     S
C741   C746    1.469   .     S
C741   O770    1.308   .     A
C741   O767    1.306   .     A
C742   O769    1.308   .     A
C742   C745    1.469   .     S
C742   O768    1.306   .     A
C743   C753    1.401   .     A
C743   C745    1.408   .     A
C743   F771    1.357   .     S
C744   F772    1.357   .     S
C744   C746    1.408   .     A
C744   C754    1.401   .     A
C745   C747    1.401   .     A
C746   C748    1.401   .     A
C747   C749    1.394   .     A
C747   H759    1.084   .     S
C748   H760    1.084   .     S
C748   C750    1.394   .     A
C749   C755    1.402   .     A
C749   C751    1.411   .     A
C750   C752    1.411   .     A
C750   C756    1.402   .     A
C751   C753    1.414   .     A
C751   C158    1.406   1_556 S
C752   C754    1.414   .     A
C755   F773    1.359   .     S
C755   C135    1.392   1_556 S
C756   F774    1.358   .     S
Cu757  O763    1.960   .     S
Cu757  Cu758   2.714   .     S
Cu757  O769    1.971   .     S
Cu757  N761    2.040   .     S
Cu757  O767    1.977   .     S
Cu757  O765    1.961   .     S
Cu758  O764    1.960   .     S
Cu758  O766    1.961   .     S
Cu758  N762    2.040   .     S
Cu758  O770    1.971   .     S
Cu758  O768    1.977   .     S
O777   H778    0.990   .     S
O779   H780    0.990   .     S
O781   H782    0.990   .     S
O783   H784    0.990   .     S
O785   H786    0.979   .     S
O787   H788    0.979   .     S
O789   H790    0.979   .     S
O791   H792    0.979   .     S
C793   O832    1.301   .     A
C793   C802    1.450   .     S
C793   O829    1.300   .     A
C794   O830    1.300   .     A
C794   C801    1.450   .     S
C794   O831    1.301   .     A
C795   F841    1.358   .     S
C795   C820    1.409   .     A
C796   C819    1.409   .     A
C796   F842    1.358   .     S
C796   C228    1.392   1_556 S
C797   C802    1.405   .     A
C797   O843    1.381   .     S
C797   C931    1.408   1_455 S
C798   C801    1.404   .     A
C798   O845    1.381   .     S
C798   C866    1.408   .     S
C799   O847    1.383   .     S
C799   C801    1.404   .     A
C799   C863    1.408   .     S
C800   O849    1.383   .     S
C800   C802    1.404   .     A
C800   C930    1.408   1_455 S
C803   O851    1.374   .     S
C803   N828    1.379   .     A
C804   N827    1.379   .     A
C804   O853    1.374   .     S
C804   C1003   1.413   .     S
C805   O855    1.375   .     S
C805   N828    1.379   .     A
C806   O857    1.375   .     S
C806   N827    1.379   .     A
C806   C1001   1.413   .     S
C807   C812    1.469   .     S
C807   O836    1.308   .     A
C807   O833    1.306   .     A
C808   O835    1.308   .     A
C808   C811    1.469   .     S
C808   O834    1.306   .     A
C809   C819    1.401   .     A
C809   C811    1.408   .     A
C809   F837    1.357   .     S
C810   F838    1.357   .     S
C810   C812    1.408   .     A
C810   C820    1.401   .     A
C811   C813    1.401   .     A
C812   C814    1.401   .     A
C813   C815    1.394   .     A
C813   H825    1.084   .     S
C814   H826    1.084   .     S
C814   C816    1.394   .     A
C815   C821    1.402   .     A
C815   C817    1.411   .     A
C816   C818    1.411   .     A
C816   C822    1.402   .     A
C817   C819    1.414   .     A
C817   C224    1.406   1_556 S
C818   C820    1.414   .     A
C821   F839    1.359   .     S
C821   C201    1.392   1_556 S
C822   F840    1.358   .     S
Cu823  O829    1.960   .     S
Cu823  Cu824   2.714   .     S
Cu823  O835    1.971   .     S
Cu823  N827    2.040   .     S
Cu823  O833    1.977   .     S
Cu823  O831    1.961   .     S
Cu824  O830    1.960   .     S
Cu824  O832    1.961   .     S
Cu824  N828    2.040   .     S
Cu824  O836    1.971   .     S
Cu824  O834    1.977   .     S
O843   H844    0.990   .     S
O845   H846    0.990   .     S
O847   H848    0.990   .     S
O849   H850    0.990   .     S
O851   H852    0.979   .     S
O853   H854    0.979   .     S
O855   H856    0.979   .     S
O857   H858    0.979   .     S
C859   O898    1.301   .     A
C859   C868    1.450   .     S
C859   O895    1.300   .     A
C860   O896    1.300   .     A
C860   C867    1.450   .     S
C860   O897    1.301   .     A
C861   F907    1.358   .     S
C861   C886    1.409   .     A
C862   C885    1.409   .     A
C862   F908    1.358   .     S
C862   C294    1.392   1_556 S
C863   C868    1.405   .     A
C863   O909    1.381   .     S
C864   C867    1.404   .     A
C864   O911    1.381   .     S
C864   C932    1.408   .     S
C865   O913    1.383   .     S
C865   C867    1.404   .     A
C865   C929    1.408   .     S
C866   O915    1.383   .     S
C866   C868    1.404   .     A
C869   O917    1.374   .     S
C869   N894    1.379   .     A
C870   N893    1.379   .     A
C870   O919    1.374   .     S
C870   C1069   1.413   .     S
C871   O921    1.375   .     S
C871   N894    1.379   .     A
C872   O923    1.375   .     S
C872   N893    1.379   .     A
C872   C1067   1.413   .     S
C873   C878    1.469   .     S
C873   O902    1.308   .     A
C873   O899    1.306   .     A
C874   O901    1.308   .     A
C874   C877    1.469   .     S
C874   O900    1.306   .     A
C875   C885    1.401   .     A
C875   C877    1.408   .     A
C875   F903    1.357   .     S
C876   F904    1.357   .     S
C876   C878    1.408   .     A
C876   C886    1.401   .     A
C877   C879    1.401   .     A
C878   C880    1.401   .     A
C879   C881    1.394   .     A
C879   H891    1.084   .     S
C880   H892    1.084   .     S
C880   C882    1.394   .     A
C881   C887    1.402   .     A
C881   C883    1.411   .     A
C882   C884    1.411   .     A
C882   C888    1.402   .     A
C883   C885    1.414   .     A
C883   C290    1.406   1_556 S
C884   C886    1.414   .     A
C887   F905    1.359   .     S
C887   C267    1.392   1_556 S
C888   F906    1.358   .     S
Cu889  O895    1.960   .     S
Cu889  Cu890   2.714   .     S
Cu889  O901    1.971   .     S
Cu889  N893    2.040   .     S
Cu889  O899    1.977   .     S
Cu889  O897    1.961   .     S
Cu890  O896    1.960   .     S
Cu890  O898    1.961   .     S
Cu890  N894    2.040   .     S
Cu890  O902    1.971   .     S
Cu890  O900    1.977   .     S
O909   H910    0.990   .     S
O911   H912    0.990   .     S
O913   H914    0.990   .     S
O915   H916    0.990   .     S
O917   H918    0.979   .     S
O919   H920    0.979   .     S
O921   H922    0.979   .     S
O923   H924    0.979   .     S
C925   O964    1.301   .     A
C925   C934    1.450   .     S
C925   O961    1.300   .     A
C926   O962    1.300   .     A
C926   C933    1.450   .     S
C926   O963    1.301   .     A
C927   F973    1.358   .     S
C927   C952    1.409   .     A
C928   C951    1.409   .     A
C928   F974    1.358   .     S
C928   C360    1.392   1_556 S
C929   C934    1.405   .     A
C929   O975    1.381   .     S
C930   C933    1.404   .     A
C930   O977    1.381   .     S
C930   C800    1.408   1_655 S
C931   O979    1.383   .     S
C931   C933    1.404   .     A
C931   C797    1.408   1_655 S
C932   O981    1.383   .     S
C932   C934    1.404   .     A
C935   O983    1.374   .     S
C935   N960    1.379   .     A
C936   N959    1.379   .     A
C936   O985    1.374   .     S
C936   C1135   1.413   .     S
C937   O987    1.375   .     S
C937   N960    1.379   .     A
C938   O989    1.375   .     S
C938   N959    1.379   .     A
C938   C1133   1.413   .     S
C939   C944    1.469   .     S
C939   O968    1.308   .     A
C939   O965    1.306   .     A
C940   O967    1.308   .     A
C940   C943    1.469   .     S
C940   O966    1.306   .     A
C941   C951    1.401   .     A
C941   C943    1.408   .     A
C941   F969    1.357   .     S
C942   F970    1.357   .     S
C942   C944    1.408   .     A
C942   C952    1.401   .     A
C943   C945    1.401   .     A
C944   C946    1.401   .     A
C945   C947    1.394   .     A
C945   H957    1.084   .     S
C946   H958    1.084   .     S
C946   C948    1.394   .     A
C947   C953    1.402   .     A
C947   C949    1.411   .     A
C948   C950    1.411   .     A
C948   C954    1.402   .     A
C949   C951    1.414   .     A
C949   C356    1.406   1_556 S
C950   C952    1.414   .     A
C953   F971    1.359   .     S
C953   C333    1.392   1_556 S
C954   F972    1.358   .     S
Cu955  O961    1.960   .     S
Cu955  Cu956   2.714   .     S
Cu955  O967    1.971   .     S
Cu955  N959    2.040   .     S
Cu955  O965    1.977   .     S
Cu955  O963    1.961   .     S
Cu956  O962    1.960   .     S
Cu956  O964    1.961   .     S
Cu956  N960    2.040   .     S
Cu956  O968    1.971   .     S
Cu956  O966    1.977   .     S
O975   H976    0.990   .     S
O977   H978    0.990   .     S
O979   H980    0.990   .     S
O981   H982    0.990   .     S
O983   H984    0.979   .     S
O985   H986    0.979   .     S
O987   H988    0.979   .     S
O989   H990    0.979   .     S
C991   O1030   1.301   .     A
C991   C1000   1.450   .     S
C991   O1027   1.300   .     A
C992   O1028   1.300   .     A
C992   C999    1.450   .     S
C992   O1029   1.301   .     A
C993   F1039   1.358   .     S
C993   C1018   1.409   .     A
C994   C1017   1.409   .     A
C994   F1040   1.358   .     S
C994   C426    1.392   1_556 S
C995   C1000   1.405   .     A
C995   O1041   1.381   .     S
C995   C1129   1.408   1_455 S
C996   C999    1.404   .     A
C996   O1043   1.381   .     S
C996   C1064   1.408   .     S
C997   O1045   1.383   .     S
C997   C999    1.404   .     A
C997   C1061   1.408   .     S
C998   O1047   1.383   .     S
C998   C1000   1.404   .     A
C998   C1128   1.408   1_455 S
C1001  O1049   1.374   .     S
C1001  N1026   1.379   .     A
C1002  N1025   1.379   .     A
C1002  O1051   1.374   .     S
C1002  C607    1.413   1_565 S
C1003  O1053   1.375   .     S
C1003  N1026   1.379   .     A
C1004  O1055   1.375   .     S
C1004  N1025   1.379   .     A
C1004  C605    1.413   1_565 S
C1005  C1010   1.469   .     S
C1005  O1034   1.308   .     A
C1005  O1031   1.306   .     A
C1006  O1033   1.308   .     A
C1006  C1009   1.469   .     S
C1006  O1032   1.306   .     A
C1007  C1017   1.401   .     A
C1007  C1009   1.408   .     A
C1007  F1035   1.357   .     S
C1008  F1036   1.357   .     S
C1008  C1010   1.408   .     A
C1008  C1018   1.401   .     A
C1009  C1011   1.401   .     A
C1010  C1012   1.401   .     A
C1011  C1013   1.394   .     A
C1011  H1023   1.084   .     S
C1012  H1024   1.084   .     S
C1012  C1014   1.394   .     A
C1013  C1019   1.402   .     A
C1013  C1015   1.411   .     A
C1014  C1016   1.411   .     A
C1014  C1020   1.402   .     A
C1015  C1017   1.414   .     A
C1015  C422    1.406   1_556 S
C1016  C1018   1.414   .     A
C1019  F1037   1.359   .     S
C1019  C399    1.392   1_556 S
C1020  F1038   1.358   .     S
Cu1021 O1027   1.960   .     S
Cu1021 Cu1022  2.714   .     S
Cu1021 O1033   1.971   .     S
Cu1021 N1025   2.040   .     S
Cu1021 O1031   1.977   .     S
Cu1021 O1029   1.961   .     S
Cu1022 O1028   1.960   .     S
Cu1022 O1030   1.961   .     S
Cu1022 N1026   2.040   .     S
Cu1022 O1034   1.971   .     S
Cu1022 O1032   1.977   .     S
O1041  H1042   0.990   .     S
O1043  H1044   0.990   .     S
O1045  H1046   0.990   .     S
O1047  H1048   0.990   .     S
O1049  H1050   0.979   .     S
O1051  H1052   0.979   .     S
O1053  H1054   0.979   .     S
O1055  H1056   0.979   .     S
C1057  O1096   1.301   .     A
C1057  C1066   1.450   .     S
C1057  O1093   1.300   .     A
C1058  O1094   1.300   .     A
C1058  C1065   1.450   .     S
C1058  O1095   1.301   .     A
C1059  F1105   1.358   .     S
C1059  C1084   1.409   .     A
C1060  C1083   1.409   .     A
C1060  F1106   1.358   .     S
C1060  C492    1.392   1_556 S
C1061  C1066   1.405   .     A
C1061  O1107   1.381   .     S
C1062  C1065   1.404   .     A
C1062  O1109   1.381   .     S
C1062  C1130   1.408   .     S
C1063  O1111   1.383   .     S
C1063  C1065   1.404   .     A
C1063  C1127   1.408   .     S
C1064  O1113   1.383   .     S
C1064  C1066   1.404   .     A
C1067  O1115   1.374   .     S
C1067  N1092   1.379   .     A
C1068  N1091   1.379   .     A
C1068  O1117   1.374   .     S
C1068  C673    1.413   1_565 S
C1069  O1119   1.375   .     S
C1069  N1092   1.379   .     A
C1070  O1121   1.375   .     S
C1070  N1091   1.379   .     A
C1070  C671    1.413   1_565 S
C1071  C1076   1.469   .     S
C1071  O1100   1.308   .     A
C1071  O1097   1.306   .     A
C1072  O1099   1.308   .     A
C1072  C1075   1.469   .     S
C1072  O1098   1.306   .     A
C1073  C1083   1.401   .     A
C1073  C1075   1.408   .     A
C1073  F1101   1.357   .     S
C1074  F1102   1.357   .     S
C1074  C1076   1.408   .     A
C1074  C1084   1.401   .     A
C1075  C1077   1.401   .     A
C1076  C1078   1.401   .     A
C1077  C1079   1.394   .     A
C1077  H1089   1.084   .     S
C1078  H1090   1.084   .     S
C1078  C1080   1.394   .     A
C1079  C1085   1.402   .     A
C1079  C1081   1.411   .     A
C1080  C1082   1.411   .     A
C1080  C1086   1.402   .     A
C1081  C1083   1.414   .     A
C1081  C488    1.406   1_556 S
C1082  C1084   1.414   .     A
C1085  F1103   1.359   .     S
C1085  C465    1.392   1_556 S
C1086  F1104   1.358   .     S
Cu1087 O1093   1.960   .     S
Cu1087 Cu1088  2.714   .     S
Cu1087 O1099   1.971   .     S
Cu1087 N1091   2.040   .     S
Cu1087 O1097   1.977   .     S
Cu1087 O1095   1.961   .     S
Cu1088 O1094   1.960   .     S
Cu1088 O1096   1.961   .     S
Cu1088 N1092   2.040   .     S
Cu1088 O1100   1.971   .     S
Cu1088 O1098   1.977   .     S
O1107  H1108   0.990   .     S
O1109  H1110   0.990   .     S
O1111  H1112   0.990   .     S
O1113  H1114   0.990   .     S
O1115  H1116   0.979   .     S
O1117  H1118   0.979   .     S
O1119  H1120   0.979   .     S
O1121  H1122   0.979   .     S
C1123  O1162   1.301   .     A
C1123  C1132   1.450   .     S
C1123  O1159   1.300   .     A
C1124  O1160   1.300   .     A
C1124  C1131   1.450   .     S
C1124  O1161   1.301   .     A
C1125  F1171   1.358   .     S
C1125  C1150   1.409   .     A
C1126  C1149   1.409   .     A
C1126  F1172   1.358   .     S
C1126  C558    1.392   1_556 S
C1127  C1132   1.405   .     A
C1127  O1173   1.381   .     S
C1128  C1131   1.404   .     A
C1128  O1175   1.381   .     S
C1128  C998    1.408   1_655 S
C1129  O1177   1.383   .     S
C1129  C1131   1.404   .     A
C1129  C995    1.408   1_655 S
C1130  O1179   1.383   .     S
C1130  C1132   1.404   .     A
C1133  O1181   1.374   .     S
C1133  N1158   1.379   .     A
C1134  N1157   1.379   .     A
C1134  O1183   1.374   .     S
C1134  C739    1.413   1_565 S
C1135  O1185   1.375   .     S
C1135  N1158   1.379   .     A
C1136  O1187   1.375   .     S
C1136  N1157   1.379   .     A
C1136  C737    1.413   1_565 S
C1137  C1142   1.469   .     S
C1137  O1166   1.308   .     A
C1137  O1163   1.306   .     A
C1138  O1165   1.308   .     A
C1138  C1141   1.469   .     S
C1138  O1164   1.306   .     A
C1139  C1149   1.401   .     A
C1139  C1141   1.408   .     A
C1139  F1167   1.357   .     S
C1140  F1168   1.357   .     S
C1140  C1142   1.408   .     A
C1140  C1150   1.401   .     A
C1141  C1143   1.401   .     A
C1142  C1144   1.401   .     A
C1143  C1145   1.394   .     A
C1143  H1155   1.084   .     S
C1144  H1156   1.084   .     S
C1144  C1146   1.394   .     A
C1145  C1151   1.402   .     A
C1145  C1147   1.411   .     A
C1146  C1148   1.411   .     A
C1146  C1152   1.402   .     A
C1147  C1149   1.414   .     A
C1147  C554    1.406   1_556 S
C1148  C1150   1.414   .     A
C1151  F1169   1.359   .     S
C1151  C531    1.392   1_556 S
C1152  F1170   1.358   .     S
Cu1153 O1159   1.960   .     S
Cu1153 Cu1154  2.714   .     S
Cu1153 O1165   1.971   .     S
Cu1153 N1157   2.040   .     S
Cu1153 O1163   1.977   .     S
Cu1153 O1161   1.961   .     S
Cu1154 O1160   1.960   .     S
Cu1154 O1162   1.961   .     S
Cu1154 N1158   2.040   .     S
Cu1154 O1166   1.971   .     S
Cu1154 O1164   1.977   .     S
O1173  H1174   0.990   .     S
O1175  H1176   0.990   .     S
O1177  H1178   0.990   .     S
O1179  H1180   0.990   .     S
O1181  H1182   0.979   .     S
O1183  H1184   0.979   .     S
O1185  H1186   0.979   .     S
O1187  H1188   0.979   .     S
