data_str_m3_o1_o18_pcu_sym.63
_audit_creation_date              2020-01-03
_audit_creation_method            'Materials Studio'
_symmetry_space_group_name_H-M    'P1'
_symmetry_Int_Tables_number       1
_symmetry_cell_setting            triclinic
loop_
_symmetry_equiv_pos_as_xyz
  x,y,z
_cell_length_a                    29.6423
_cell_length_b                    31.9373
_cell_length_c                    31.0451
_cell_angle_alpha                 90.3994
_cell_angle_beta                  67.4964
_cell_angle_gamma                 89.6832
loop_
_atom_site_label
_atom_site_type_symbol
_atom_site_fract_x
_atom_site_fract_y
_atom_site_fract_z
_atom_site_U_iso_or_equiv
_atom_site_adp_type
_atom_site_occupancy
C1     C     0.16697   0.24657   0.24911   0.00000  Uiso   1.00
C2     C     0.12665   0.31156   0.28085   0.00000  Uiso   1.00
C3     C     0.16626   0.04265   0.25137   0.00000  Uiso   1.00
C4     C     0.16706   0.29070   0.24866   0.00000  Uiso   1.00
C5     C     0.32195   0.14149   0.21982   0.00000  Uiso   1.00
C6     C     0.01137   0.19174   0.28030   0.00000  Uiso   1.00
C7     C     0.03638   0.14160   0.21988   0.00000  Uiso   1.00
C8     C     0.29697   0.19173   0.28013   0.00000  Uiso   1.00
C9     C     0.13608   0.16602   0.33801   0.00000  Uiso   1.00
C10    C     0.19722   0.16631   0.16195   0.00000  Uiso   1.00
C11    C     0.11678   0.16289   0.38870   0.00000  Uiso   1.00
C12    C     0.16636   0.08677   0.25090   0.00000  Uiso   1.00
C13    C     0.21557   0.16016   0.11151   0.00000  Uiso   1.00
C14    C     0.05277   0.17287   0.46470   0.00000  Uiso   1.00
C15    C     0.27243   0.12838   0.04050   0.00000  Uiso   1.00
C16    C     0.06812   0.17263   0.41631   0.00000  Uiso   1.00
C17    C     0.26110   0.14166   0.08640   0.00000  Uiso   1.00
C18    C     0.14897   0.15096   0.40952   0.00000  Uiso   1.00
C19    C     0.18254   0.16658   0.09012   0.00000  Uiso   1.00
C20    C     0.13443   0.15057   0.45790   0.00000  Uiso   1.00
C21    C     0.19114   0.15006   0.04598   0.00000  Uiso   1.00
C22    C     0.08584   0.16297   0.48565   0.00000  Uiso   1.00
C23    C     0.10535   0.16150   0.05410   0.00000  Uiso   1.00
C24    C     0.23770   0.13236   0.02013   0.00000  Uiso   1.00
C25    C     0.16814   0.14157   0.47904   0.00000  Uiso   1.00
C26    C     0.15478   0.15140   0.02683   0.00000  Uiso   1.00
C27    C     0.21484   0.12356   0.45402   0.00000  Uiso   1.00
C28    C     0.07137   0.16657   0.03376   0.00000  Uiso   1.00
C29    C     0.24871   0.11856   0.47459   0.00000  Uiso   1.00
C30    C     0.20731   0.31213   0.21748   0.00000  Uiso   1.00
C31    C     0.12602   0.02122   0.28257   0.00000  Uiso   1.00
C32    C     0.20667   0.02179   0.21917   0.00000  Uiso   1.00
Cl33   Cl    0.25769   0.28655   0.17469   0.00000  Uiso   1.00
Cl34   Cl    0.07572   0.04683   0.32543   0.00000  Uiso   1.00
Cl35   Cl    0.31014   0.10825   0.18036   0.00000  Uiso   1.00
Cl36   Cl    0.02310   0.22445   0.32028   0.00000  Uiso   1.00
H37    H     0.03408   0.17502   0.05560   0.00000  Uiso   1.00
H38    H     0.22568   0.11166   0.41887   0.00000  Uiso   1.00
H39    H     0.23705   0.03897   0.19478   0.00000  Uiso   1.00
H40    H     0.09624   0.29438   0.30522   0.00000  Uiso   1.00
H41    H     0.06442   0.12156   0.19583   0.00000  Uiso   1.00
H42    H     0.26892   0.21176   0.30420   0.00000  Uiso   1.00
H43    H     0.28393   0.10442   0.45450   0.00000  Uiso   1.00
H44    H     0.14954   0.18403   0.10915   0.00000  Uiso   1.00
H45    H     0.18631   0.14438   0.38715   0.00000  Uiso   1.00
H46    H     0.28705   0.13622   0.10256   0.00000  Uiso   1.00
H47    H     0.04262   0.18154   0.40061   0.00000  Uiso   1.00
H48    H     0.01562   0.18238   0.48564   0.00000  Uiso   1.00
H49    H     0.30770   0.11391   0.02143   0.00000  Uiso   1.00
H50    H     0.09159   0.16472   0.09157   0.00000  Uiso   1.00
N51    N     0.04759   0.16668   0.25001   0.00000  Uiso   1.00
N52    N     0.28574   0.16666   0.24999   0.00000  Uiso   1.00
O53    O     0.12846   0.22775   0.25000   0.00000  Uiso   1.00
O54    O     0.20488   0.10558   0.25000   0.00000  Uiso   1.00
O55    O     0.20490   0.22774   0.25000   0.00000  Uiso   1.00
O56    O     0.12843   0.10559   0.25000   0.00000  Uiso   1.00
O57    O     0.10661   0.16667   0.31612   0.00000  Uiso   1.00
O58    O     0.22672   0.16666   0.18388   0.00000  Uiso   1.00
O59    O     0.18305   0.16666   0.31612   0.00000  Uiso   1.00
O60    O     0.15028   0.16667   0.18388   0.00000  Uiso   1.00
Zn61   Zn    0.11562   0.16667   0.25000   0.00000  Uiso   1.00
Zn62   Zn    0.21771   0.16666   0.25000   0.00000  Uiso   1.00
C63    C     0.50030   0.24657   0.24911   0.00000  Uiso   1.00
C64    C     0.45998   0.31156   0.28085   0.00000  Uiso   1.00
C65    C     0.49959   0.04265   0.25137   0.00000  Uiso   1.00
C66    C     0.50040   0.29070   0.24866   0.00000  Uiso   1.00
C67    C     0.65529   0.14149   0.21982   0.00000  Uiso   1.00
C68    C     0.34470   0.19174   0.28030   0.00000  Uiso   1.00
C69    C     0.36971   0.14160   0.21988   0.00000  Uiso   1.00
C70    C     0.63030   0.19173   0.28013   0.00000  Uiso   1.00
C71    C     0.46941   0.16602   0.33801   0.00000  Uiso   1.00
C72    C     0.53055   0.16631   0.16195   0.00000  Uiso   1.00
C73    C     0.45012   0.16289   0.38870   0.00000  Uiso   1.00
C74    C     0.49969   0.08677   0.25090   0.00000  Uiso   1.00
C75    C     0.54891   0.16016   0.11151   0.00000  Uiso   1.00
C76    C     0.38610   0.17287   0.46470   0.00000  Uiso   1.00
C77    C     0.60577   0.12838   0.04050   0.00000  Uiso   1.00
C78    C     0.40146   0.17263   0.41631   0.00000  Uiso   1.00
C79    C     0.59443   0.14166   0.08640   0.00000  Uiso   1.00
C80    C     0.48230   0.15096   0.40952   0.00000  Uiso   1.00
C81    C     0.51588   0.16658   0.09012   0.00000  Uiso   1.00
C82    C     0.46776   0.15057   0.45790   0.00000  Uiso   1.00
C83    C     0.52447   0.15006   0.04598   0.00000  Uiso   1.00
C84    C     0.41918   0.16297   0.48565   0.00000  Uiso   1.00
C85    C     0.43868   0.16150   0.05410   0.00000  Uiso   1.00
C86    C     0.57104   0.13236   0.02013   0.00000  Uiso   1.00
C87    C     0.50148   0.14157   0.47904   0.00000  Uiso   1.00
C88    C     0.48811   0.15140   0.02683   0.00000  Uiso   1.00
C89    C     0.54817   0.12356   0.45402   0.00000  Uiso   1.00
C90    C     0.40470   0.16657   0.03376   0.00000  Uiso   1.00
C91    C     0.58204   0.11856   0.47459   0.00000  Uiso   1.00
C92    C     0.54065   0.31213   0.21748   0.00000  Uiso   1.00
C93    C     0.45936   0.02122   0.28257   0.00000  Uiso   1.00
C94    C     0.54000   0.02179   0.21917   0.00000  Uiso   1.00
Cl95   Cl    0.59102   0.28655   0.17469   0.00000  Uiso   1.00
Cl96   Cl    0.40905   0.04683   0.32543   0.00000  Uiso   1.00
Cl97   Cl    0.64347   0.10825   0.18036   0.00000  Uiso   1.00
Cl98   Cl    0.35644   0.22445   0.32028   0.00000  Uiso   1.00
H99    H     0.36741   0.17502   0.05560   0.00000  Uiso   1.00
H100   H     0.55901   0.11166   0.41887   0.00000  Uiso   1.00
H101   H     0.57039   0.03897   0.19478   0.00000  Uiso   1.00
H102   H     0.42958   0.29438   0.30522   0.00000  Uiso   1.00
H103   H     0.39776   0.12156   0.19583   0.00000  Uiso   1.00
H104   H     0.60225   0.21176   0.30420   0.00000  Uiso   1.00
H105   H     0.61727   0.10442   0.45450   0.00000  Uiso   1.00
H106   H     0.48287   0.18403   0.10915   0.00000  Uiso   1.00
H107   H     0.51965   0.14438   0.38715   0.00000  Uiso   1.00
H108   H     0.62039   0.13622   0.10256   0.00000  Uiso   1.00
H109   H     0.37595   0.18154   0.40061   0.00000  Uiso   1.00
H110   H     0.34895   0.18238   0.48564   0.00000  Uiso   1.00
H111   H     0.64103   0.11391   0.02143   0.00000  Uiso   1.00
H112   H     0.42493   0.16472   0.09157   0.00000  Uiso   1.00
N113   N     0.38093   0.16668   0.25001   0.00000  Uiso   1.00
N114   N     0.61907   0.16666   0.24999   0.00000  Uiso   1.00
O115   O     0.46179   0.22775   0.25000   0.00000  Uiso   1.00
O116   O     0.53821   0.10558   0.25000   0.00000  Uiso   1.00
O117   O     0.53823   0.22774   0.25000   0.00000  Uiso   1.00
O118   O     0.46177   0.10559   0.25000   0.00000  Uiso   1.00
O119   O     0.43994   0.16667   0.31612   0.00000  Uiso   1.00
O120   O     0.56006   0.16666   0.18388   0.00000  Uiso   1.00
O121   O     0.51639   0.16666   0.31612   0.00000  Uiso   1.00
O122   O     0.48361   0.16667   0.18388   0.00000  Uiso   1.00
Zn123  Zn    0.44896   0.16667   0.25000   0.00000  Uiso   1.00
Zn124  Zn    0.55104   0.16666   0.25000   0.00000  Uiso   1.00
C125   C     0.83364   0.24657   0.24911   0.00000  Uiso   1.00
C126   C     0.79331   0.31156   0.28085   0.00000  Uiso   1.00
C127   C     0.83293   0.04265   0.25137   0.00000  Uiso   1.00
C128   C     0.83373   0.29070   0.24866   0.00000  Uiso   1.00
C129   C     0.98862   0.14149   0.21982   0.00000  Uiso   1.00
C130   C     0.67803   0.19174   0.28030   0.00000  Uiso   1.00
C131   C     0.70304   0.14160   0.21988   0.00000  Uiso   1.00
C132   C     0.96364   0.19173   0.28013   0.00000  Uiso   1.00
C133   C     0.80275   0.16602   0.33801   0.00000  Uiso   1.00
C134   C     0.86388   0.16631   0.16195   0.00000  Uiso   1.00
C135   C     0.78345   0.16289   0.38870   0.00000  Uiso   1.00
C136   C     0.83303   0.08677   0.25090   0.00000  Uiso   1.00
C137   C     0.88224   0.16016   0.11151   0.00000  Uiso   1.00
C138   C     0.71943   0.17287   0.46470   0.00000  Uiso   1.00
C139   C     0.93910   0.12838   0.04050   0.00000  Uiso   1.00
C140   C     0.73479   0.17263   0.41631   0.00000  Uiso   1.00
C141   C     0.92777   0.14166   0.08640   0.00000  Uiso   1.00
C142   C     0.81564   0.15096   0.40952   0.00000  Uiso   1.00
C143   C     0.84921   0.16658   0.09012   0.00000  Uiso   1.00
C144   C     0.80110   0.15057   0.45790   0.00000  Uiso   1.00
C145   C     0.85780   0.15006   0.04598   0.00000  Uiso   1.00
C146   C     0.75251   0.16297   0.48565   0.00000  Uiso   1.00
C147   C     0.77201   0.16150   0.05410   0.00000  Uiso   1.00
C148   C     0.90437   0.13236   0.02013   0.00000  Uiso   1.00
C149   C     0.83481   0.14157   0.47904   0.00000  Uiso   1.00
C150   C     0.82144   0.15140   0.02683   0.00000  Uiso   1.00
C151   C     0.88150   0.12356   0.45402   0.00000  Uiso   1.00
C152   C     0.73803   0.16657   0.03376   0.00000  Uiso   1.00
C153   C     0.91537   0.11856   0.47459   0.00000  Uiso   1.00
C154   C     0.87398   0.31213   0.21748   0.00000  Uiso   1.00
C155   C     0.79269   0.02122   0.28257   0.00000  Uiso   1.00
C156   C     0.87333   0.02179   0.21917   0.00000  Uiso   1.00
Cl157  Cl    0.92435   0.28655   0.17469   0.00000  Uiso   1.00
Cl158  Cl    0.74238   0.04683   0.32543   0.00000  Uiso   1.00
Cl159  Cl    0.97680   0.10825   0.18036   0.00000  Uiso   1.00
Cl160  Cl    0.68977   0.22445   0.32028   0.00000  Uiso   1.00
H161   H     0.70075   0.17502   0.05560   0.00000  Uiso   1.00
H162   H     0.89235   0.11166   0.41887   0.00000  Uiso   1.00
H163   H     0.90372   0.03897   0.19478   0.00000  Uiso   1.00
H164   H     0.76291   0.29438   0.30522   0.00000  Uiso   1.00
H165   H     0.73109   0.12156   0.19583   0.00000  Uiso   1.00
H166   H     0.93559   0.21176   0.30420   0.00000  Uiso   1.00
H167   H     0.95060   0.10442   0.45450   0.00000  Uiso   1.00
H168   H     0.81620   0.18403   0.10915   0.00000  Uiso   1.00
H169   H     0.85298   0.14438   0.38715   0.00000  Uiso   1.00
H170   H     0.95372   0.13622   0.10256   0.00000  Uiso   1.00
H171   H     0.70928   0.18154   0.40061   0.00000  Uiso   1.00
H172   H     0.68229   0.18238   0.48564   0.00000  Uiso   1.00
H173   H     0.97437   0.11391   0.02143   0.00000  Uiso   1.00
H174   H     0.75826   0.16472   0.09157   0.00000  Uiso   1.00
N175   N     0.71426   0.16668   0.25001   0.00000  Uiso   1.00
N176   N     0.95241   0.16666   0.24999   0.00000  Uiso   1.00
O177   O     0.79512   0.22775   0.25000   0.00000  Uiso   1.00
O178   O     0.87154   0.10558   0.25000   0.00000  Uiso   1.00
O179   O     0.87157   0.22774   0.25000   0.00000  Uiso   1.00
O180   O     0.79510   0.10559   0.25000   0.00000  Uiso   1.00
O181   O     0.77328   0.16667   0.31612   0.00000  Uiso   1.00
O182   O     0.89339   0.16666   0.18388   0.00000  Uiso   1.00
O183   O     0.84972   0.16666   0.31612   0.00000  Uiso   1.00
O184   O     0.81695   0.16667   0.18388   0.00000  Uiso   1.00
Zn185  Zn    0.78229   0.16667   0.25000   0.00000  Uiso   1.00
Zn186  Zn    0.88438   0.16666   0.25000   0.00000  Uiso   1.00
C187   C     0.16697   0.57990   0.24911   0.00000  Uiso   1.00
C188   C     0.12665   0.64489   0.28085   0.00000  Uiso   1.00
C189   C     0.16626   0.37598   0.25137   0.00000  Uiso   1.00
C190   C     0.16706   0.62403   0.24866   0.00000  Uiso   1.00
C191   C     0.32195   0.47483   0.21982   0.00000  Uiso   1.00
C192   C     0.01137   0.52507   0.28030   0.00000  Uiso   1.00
C193   C     0.03638   0.47494   0.21988   0.00000  Uiso   1.00
C194   C     0.29697   0.52506   0.28013   0.00000  Uiso   1.00
C195   C     0.13608   0.49936   0.33801   0.00000  Uiso   1.00
C196   C     0.19722   0.49964   0.16195   0.00000  Uiso   1.00
C197   C     0.11678   0.49623   0.38870   0.00000  Uiso   1.00
C198   C     0.16636   0.42010   0.25090   0.00000  Uiso   1.00
C199   C     0.21557   0.49350   0.11151   0.00000  Uiso   1.00
C200   C     0.05277   0.50621   0.46470   0.00000  Uiso   1.00
C201   C     0.27243   0.46171   0.04050   0.00000  Uiso   1.00
C202   C     0.06812   0.50596   0.41631   0.00000  Uiso   1.00
C203   C     0.26110   0.47499   0.08640   0.00000  Uiso   1.00
C204   C     0.14897   0.48429   0.40952   0.00000  Uiso   1.00
C205   C     0.18254   0.49991   0.09012   0.00000  Uiso   1.00
C206   C     0.13443   0.48390   0.45790   0.00000  Uiso   1.00
C207   C     0.19114   0.48339   0.04598   0.00000  Uiso   1.00
C208   C     0.08584   0.49630   0.48565   0.00000  Uiso   1.00
C209   C     0.10535   0.49484   0.05410   0.00000  Uiso   1.00
C210   C     0.23770   0.46569   0.02013   0.00000  Uiso   1.00
C211   C     0.16814   0.47490   0.47904   0.00000  Uiso   1.00
C212   C     0.15478   0.48473   0.02683   0.00000  Uiso   1.00
C213   C     0.21484   0.45690   0.45402   0.00000  Uiso   1.00
C214   C     0.07137   0.49991   0.03376   0.00000  Uiso   1.00
C215   C     0.24871   0.45189   0.47459   0.00000  Uiso   1.00
C216   C     0.20731   0.64546   0.21748   0.00000  Uiso   1.00
C217   C     0.12602   0.35456   0.28257   0.00000  Uiso   1.00
C218   C     0.20667   0.35513   0.21917   0.00000  Uiso   1.00
Cl219  Cl    0.25769   0.61988   0.17469   0.00000  Uiso   1.00
Cl220  Cl    0.07572   0.38016   0.32543   0.00000  Uiso   1.00
Cl221  Cl    0.31014   0.44158   0.18036   0.00000  Uiso   1.00
Cl222  Cl    0.02310   0.55778   0.32028   0.00000  Uiso   1.00
H223   H     0.03408   0.50835   0.05560   0.00000  Uiso   1.00
H224   H     0.22568   0.44500   0.41887   0.00000  Uiso   1.00
H225   H     0.23705   0.37230   0.19478   0.00000  Uiso   1.00
H226   H     0.09624   0.62771   0.30522   0.00000  Uiso   1.00
H227   H     0.06442   0.45489   0.19583   0.00000  Uiso   1.00
H228   H     0.26892   0.54509   0.30420   0.00000  Uiso   1.00
H229   H     0.28393   0.43776   0.45450   0.00000  Uiso   1.00
H230   H     0.14954   0.51736   0.10915   0.00000  Uiso   1.00
H231   H     0.18631   0.47771   0.38715   0.00000  Uiso   1.00
H232   H     0.28705   0.46956   0.10256   0.00000  Uiso   1.00
H233   H     0.04262   0.51487   0.40061   0.00000  Uiso   1.00
H234   H     0.01562   0.51571   0.48564   0.00000  Uiso   1.00
H235   H     0.30770   0.44724   0.02143   0.00000  Uiso   1.00
H236   H     0.09159   0.49805   0.09157   0.00000  Uiso   1.00
N237   N     0.04759   0.50001   0.25001   0.00000  Uiso   1.00
N238   N     0.28574   0.49999   0.24999   0.00000  Uiso   1.00
O239   O     0.12846   0.56108   0.25000   0.00000  Uiso   1.00
O240   O     0.20488   0.43892   0.25000   0.00000  Uiso   1.00
O241   O     0.20490   0.56107   0.25000   0.00000  Uiso   1.00
O242   O     0.12843   0.43893   0.25000   0.00000  Uiso   1.00
O243   O     0.10661   0.50001   0.31612   0.00000  Uiso   1.00
O244   O     0.22672   0.49999   0.18388   0.00000  Uiso   1.00
O245   O     0.18305   0.50000   0.31612   0.00000  Uiso   1.00
O246   O     0.15028   0.50000   0.18388   0.00000  Uiso   1.00
Zn247  Zn    0.11562   0.50001   0.25000   0.00000  Uiso   1.00
Zn248  Zn    0.21771   0.49999   0.25000   0.00000  Uiso   1.00
C249   C     0.50030   0.57990   0.24911   0.00000  Uiso   1.00
C250   C     0.45998   0.64489   0.28085   0.00000  Uiso   1.00
C251   C     0.49959   0.37598   0.25137   0.00000  Uiso   1.00
C252   C     0.50040   0.62403   0.24866   0.00000  Uiso   1.00
C253   C     0.65529   0.47483   0.21982   0.00000  Uiso   1.00
C254   C     0.34470   0.52507   0.28030   0.00000  Uiso   1.00
C255   C     0.36971   0.47494   0.21988   0.00000  Uiso   1.00
C256   C     0.63030   0.52506   0.28013   0.00000  Uiso   1.00
C257   C     0.46941   0.49936   0.33801   0.00000  Uiso   1.00
C258   C     0.53055   0.49964   0.16195   0.00000  Uiso   1.00
C259   C     0.45012   0.49623   0.38870   0.00000  Uiso   1.00
C260   C     0.49969   0.42010   0.25090   0.00000  Uiso   1.00
C261   C     0.54891   0.49350   0.11151   0.00000  Uiso   1.00
C262   C     0.38610   0.50621   0.46470   0.00000  Uiso   1.00
C263   C     0.60577   0.46171   0.04050   0.00000  Uiso   1.00
C264   C     0.40146   0.50596   0.41631   0.00000  Uiso   1.00
C265   C     0.59443   0.47499   0.08640   0.00000  Uiso   1.00
C266   C     0.48230   0.48429   0.40952   0.00000  Uiso   1.00
C267   C     0.51588   0.49991   0.09012   0.00000  Uiso   1.00
C268   C     0.46776   0.48390   0.45790   0.00000  Uiso   1.00
C269   C     0.52447   0.48339   0.04598   0.00000  Uiso   1.00
C270   C     0.41918   0.49630   0.48565   0.00000  Uiso   1.00
C271   C     0.43868   0.49484   0.05410   0.00000  Uiso   1.00
C272   C     0.57104   0.46569   0.02013   0.00000  Uiso   1.00
C273   C     0.50148   0.47490   0.47904   0.00000  Uiso   1.00
C274   C     0.48811   0.48473   0.02683   0.00000  Uiso   1.00
C275   C     0.54817   0.45690   0.45402   0.00000  Uiso   1.00
C276   C     0.40470   0.49991   0.03376   0.00000  Uiso   1.00
C277   C     0.58204   0.45189   0.47459   0.00000  Uiso   1.00
C278   C     0.54065   0.64546   0.21748   0.00000  Uiso   1.00
C279   C     0.45936   0.35456   0.28257   0.00000  Uiso   1.00
C280   C     0.54000   0.35513   0.21917   0.00000  Uiso   1.00
Cl281  Cl    0.59102   0.61988   0.17469   0.00000  Uiso   1.00
Cl282  Cl    0.40905   0.38016   0.32543   0.00000  Uiso   1.00
Cl283  Cl    0.64347   0.44158   0.18036   0.00000  Uiso   1.00
Cl284  Cl    0.35644   0.55778   0.32028   0.00000  Uiso   1.00
H285   H     0.36741   0.50835   0.05560   0.00000  Uiso   1.00
H286   H     0.55901   0.44500   0.41887   0.00000  Uiso   1.00
H287   H     0.57039   0.37230   0.19478   0.00000  Uiso   1.00
H288   H     0.42958   0.62771   0.30522   0.00000  Uiso   1.00
H289   H     0.39776   0.45489   0.19583   0.00000  Uiso   1.00
H290   H     0.60225   0.54509   0.30420   0.00000  Uiso   1.00
H291   H     0.61727   0.43776   0.45450   0.00000  Uiso   1.00
H292   H     0.48287   0.51736   0.10915   0.00000  Uiso   1.00
H293   H     0.51965   0.47771   0.38715   0.00000  Uiso   1.00
H294   H     0.62039   0.46956   0.10256   0.00000  Uiso   1.00
H295   H     0.37595   0.51487   0.40061   0.00000  Uiso   1.00
H296   H     0.34895   0.51571   0.48564   0.00000  Uiso   1.00
H297   H     0.64103   0.44724   0.02143   0.00000  Uiso   1.00
H298   H     0.42493   0.49805   0.09157   0.00000  Uiso   1.00
N299   N     0.38093   0.50001   0.25001   0.00000  Uiso   1.00
N300   N     0.61907   0.49999   0.24999   0.00000  Uiso   1.00
O301   O     0.46179   0.56108   0.25000   0.00000  Uiso   1.00
O302   O     0.53821   0.43892   0.25000   0.00000  Uiso   1.00
O303   O     0.53823   0.56107   0.25000   0.00000  Uiso   1.00
O304   O     0.46177   0.43893   0.25000   0.00000  Uiso   1.00
O305   O     0.43994   0.50001   0.31612   0.00000  Uiso   1.00
O306   O     0.56006   0.49999   0.18388   0.00000  Uiso   1.00
O307   O     0.51639   0.50000   0.31612   0.00000  Uiso   1.00
O308   O     0.48361   0.50000   0.18388   0.00000  Uiso   1.00
Zn309  Zn    0.44896   0.50001   0.25000   0.00000  Uiso   1.00
Zn310  Zn    0.55104   0.49999   0.25000   0.00000  Uiso   1.00
C311   C     0.83364   0.57990   0.24911   0.00000  Uiso   1.00
C312   C     0.79331   0.64489   0.28085   0.00000  Uiso   1.00
C313   C     0.83293   0.37598   0.25137   0.00000  Uiso   1.00
C314   C     0.83373   0.62403   0.24866   0.00000  Uiso   1.00
C315   C     0.98862   0.47483   0.21982   0.00000  Uiso   1.00
C316   C     0.67803   0.52507   0.28030   0.00000  Uiso   1.00
C317   C     0.70304   0.47494   0.21988   0.00000  Uiso   1.00
C318   C     0.96364   0.52506   0.28013   0.00000  Uiso   1.00
C319   C     0.80275   0.49936   0.33801   0.00000  Uiso   1.00
C320   C     0.86388   0.49964   0.16195   0.00000  Uiso   1.00
C321   C     0.78345   0.49623   0.38870   0.00000  Uiso   1.00
C322   C     0.83303   0.42010   0.25090   0.00000  Uiso   1.00
C323   C     0.88224   0.49350   0.11151   0.00000  Uiso   1.00
C324   C     0.71943   0.50621   0.46470   0.00000  Uiso   1.00
C325   C     0.93910   0.46171   0.04050   0.00000  Uiso   1.00
C326   C     0.73479   0.50596   0.41631   0.00000  Uiso   1.00
C327   C     0.92777   0.47499   0.08640   0.00000  Uiso   1.00
C328   C     0.81564   0.48429   0.40952   0.00000  Uiso   1.00
C329   C     0.84921   0.49991   0.09012   0.00000  Uiso   1.00
C330   C     0.80110   0.48390   0.45790   0.00000  Uiso   1.00
C331   C     0.85780   0.48339   0.04598   0.00000  Uiso   1.00
C332   C     0.75251   0.49630   0.48565   0.00000  Uiso   1.00
C333   C     0.77201   0.49484   0.05410   0.00000  Uiso   1.00
C334   C     0.90437   0.46569   0.02013   0.00000  Uiso   1.00
C335   C     0.83481   0.47490   0.47904   0.00000  Uiso   1.00
C336   C     0.82144   0.48473   0.02683   0.00000  Uiso   1.00
C337   C     0.88150   0.45690   0.45402   0.00000  Uiso   1.00
C338   C     0.73803   0.49991   0.03376   0.00000  Uiso   1.00
C339   C     0.91537   0.45189   0.47459   0.00000  Uiso   1.00
C340   C     0.87398   0.64546   0.21748   0.00000  Uiso   1.00
C341   C     0.79269   0.35456   0.28257   0.00000  Uiso   1.00
C342   C     0.87333   0.35513   0.21917   0.00000  Uiso   1.00
Cl343  Cl    0.92435   0.61988   0.17469   0.00000  Uiso   1.00
Cl344  Cl    0.74238   0.38016   0.32543   0.00000  Uiso   1.00
Cl345  Cl    0.97680   0.44158   0.18036   0.00000  Uiso   1.00
Cl346  Cl    0.68977   0.55778   0.32028   0.00000  Uiso   1.00
H347   H     0.70075   0.50835   0.05560   0.00000  Uiso   1.00
H348   H     0.89235   0.44500   0.41887   0.00000  Uiso   1.00
H349   H     0.90372   0.37230   0.19478   0.00000  Uiso   1.00
H350   H     0.76291   0.62771   0.30522   0.00000  Uiso   1.00
H351   H     0.73109   0.45489   0.19583   0.00000  Uiso   1.00
H352   H     0.93559   0.54509   0.30420   0.00000  Uiso   1.00
H353   H     0.95060   0.43776   0.45450   0.00000  Uiso   1.00
H354   H     0.81620   0.51736   0.10915   0.00000  Uiso   1.00
H355   H     0.85298   0.47771   0.38715   0.00000  Uiso   1.00
H356   H     0.95372   0.46956   0.10256   0.00000  Uiso   1.00
H357   H     0.70928   0.51487   0.40061   0.00000  Uiso   1.00
H358   H     0.68229   0.51571   0.48564   0.00000  Uiso   1.00
H359   H     0.97437   0.44724   0.02143   0.00000  Uiso   1.00
H360   H     0.75826   0.49805   0.09157   0.00000  Uiso   1.00
N361   N     0.71426   0.50001   0.25001   0.00000  Uiso   1.00
N362   N     0.95241   0.49999   0.24999   0.00000  Uiso   1.00
O363   O     0.79512   0.56108   0.25000   0.00000  Uiso   1.00
O364   O     0.87154   0.43892   0.25000   0.00000  Uiso   1.00
O365   O     0.87157   0.56107   0.25000   0.00000  Uiso   1.00
O366   O     0.79510   0.43893   0.25000   0.00000  Uiso   1.00
O367   O     0.77328   0.50001   0.31612   0.00000  Uiso   1.00
O368   O     0.89339   0.49999   0.18388   0.00000  Uiso   1.00
O369   O     0.84972   0.50000   0.31612   0.00000  Uiso   1.00
O370   O     0.81695   0.50000   0.18388   0.00000  Uiso   1.00
Zn371  Zn    0.78229   0.50001   0.25000   0.00000  Uiso   1.00
Zn372  Zn    0.88438   0.49999   0.25000   0.00000  Uiso   1.00
C373   C     0.16697   0.91323   0.24911   0.00000  Uiso   1.00
C374   C     0.12665   0.97822   0.28085   0.00000  Uiso   1.00
C375   C     0.16626   0.70932   0.25137   0.00000  Uiso   1.00
C376   C     0.16706   0.95736   0.24866   0.00000  Uiso   1.00
C377   C     0.32195   0.80816   0.21982   0.00000  Uiso   1.00
C378   C     0.01137   0.85840   0.28030   0.00000  Uiso   1.00
C379   C     0.03638   0.80827   0.21988   0.00000  Uiso   1.00
C380   C     0.29697   0.85840   0.28013   0.00000  Uiso   1.00
C381   C     0.13608   0.83269   0.33801   0.00000  Uiso   1.00
C382   C     0.19722   0.83297   0.16195   0.00000  Uiso   1.00
C383   C     0.11678   0.82956   0.38870   0.00000  Uiso   1.00
C384   C     0.16636   0.75344   0.25090   0.00000  Uiso   1.00
C385   C     0.21557   0.82683   0.11151   0.00000  Uiso   1.00
C386   C     0.05277   0.83954   0.46470   0.00000  Uiso   1.00
C387   C     0.27243   0.79504   0.04050   0.00000  Uiso   1.00
C388   C     0.06812   0.83929   0.41631   0.00000  Uiso   1.00
C389   C     0.26110   0.80832   0.08640   0.00000  Uiso   1.00
C390   C     0.14897   0.81762   0.40952   0.00000  Uiso   1.00
C391   C     0.18254   0.83325   0.09012   0.00000  Uiso   1.00
C392   C     0.13443   0.81723   0.45790   0.00000  Uiso   1.00
C393   C     0.19114   0.81673   0.04598   0.00000  Uiso   1.00
C394   C     0.08584   0.82963   0.48565   0.00000  Uiso   1.00
C395   C     0.10535   0.82817   0.05410   0.00000  Uiso   1.00
C396   C     0.23770   0.79903   0.02013   0.00000  Uiso   1.00
C397   C     0.16814   0.80823   0.47904   0.00000  Uiso   1.00
C398   C     0.15478   0.81807   0.02683   0.00000  Uiso   1.00
C399   C     0.21484   0.79023   0.45402   0.00000  Uiso   1.00
C400   C     0.07137   0.83324   0.03376   0.00000  Uiso   1.00
C401   C     0.24871   0.78523   0.47459   0.00000  Uiso   1.00
C402   C     0.20731   0.97880   0.21748   0.00000  Uiso   1.00
C403   C     0.12602   0.68789   0.28257   0.00000  Uiso   1.00
C404   C     0.20667   0.68846   0.21917   0.00000  Uiso   1.00
Cl405  Cl    0.25769   0.95321   0.17469   0.00000  Uiso   1.00
Cl406  Cl    0.07572   0.71350   0.32543   0.00000  Uiso   1.00
Cl407  Cl    0.31014   0.77492   0.18036   0.00000  Uiso   1.00
Cl408  Cl    0.02310   0.89111   0.32028   0.00000  Uiso   1.00
H409   H     0.03408   0.84168   0.05560   0.00000  Uiso   1.00
H410   H     0.22568   0.77833   0.41887   0.00000  Uiso   1.00
H411   H     0.23705   0.70564   0.19478   0.00000  Uiso   1.00
H412   H     0.09624   0.96104   0.30522   0.00000  Uiso   1.00
H413   H     0.06442   0.78822   0.19583   0.00000  Uiso   1.00
H414   H     0.26892   0.87843   0.30420   0.00000  Uiso   1.00
H415   H     0.28393   0.77109   0.45450   0.00000  Uiso   1.00
H416   H     0.14954   0.85069   0.10915   0.00000  Uiso   1.00
H417   H     0.18631   0.81104   0.38715   0.00000  Uiso   1.00
H418   H     0.28705   0.80289   0.10256   0.00000  Uiso   1.00
H419   H     0.04262   0.84820   0.40061   0.00000  Uiso   1.00
H420   H     0.01562   0.84905   0.48564   0.00000  Uiso   1.00
H421   H     0.30770   0.78057   0.02143   0.00000  Uiso   1.00
H422   H     0.09159   0.83138   0.09157   0.00000  Uiso   1.00
N423   N     0.04759   0.83334   0.25001   0.00000  Uiso   1.00
N424   N     0.28574   0.83332   0.24999   0.00000  Uiso   1.00
O425   O     0.12846   0.89442   0.25000   0.00000  Uiso   1.00
O426   O     0.20488   0.77225   0.25000   0.00000  Uiso   1.00
O427   O     0.20490   0.89441   0.25000   0.00000  Uiso   1.00
O428   O     0.12843   0.77226   0.25000   0.00000  Uiso   1.00
O429   O     0.10661   0.83334   0.31612   0.00000  Uiso   1.00
O430   O     0.22672   0.83333   0.18388   0.00000  Uiso   1.00
O431   O     0.18305   0.83333   0.31612   0.00000  Uiso   1.00
O432   O     0.15028   0.83334   0.18388   0.00000  Uiso   1.00
Zn433  Zn    0.11562   0.83334   0.25000   0.00000  Uiso   1.00
Zn434  Zn    0.21771   0.83333   0.25000   0.00000  Uiso   1.00
C435   C     0.50030   0.91323   0.24911   0.00000  Uiso   1.00
C436   C     0.45998   0.97822   0.28085   0.00000  Uiso   1.00
C437   C     0.49959   0.70932   0.25137   0.00000  Uiso   1.00
C438   C     0.50040   0.95736   0.24866   0.00000  Uiso   1.00
C439   C     0.65529   0.80816   0.21982   0.00000  Uiso   1.00
C440   C     0.34470   0.85840   0.28030   0.00000  Uiso   1.00
C441   C     0.36971   0.80827   0.21988   0.00000  Uiso   1.00
C442   C     0.63030   0.85840   0.28013   0.00000  Uiso   1.00
C443   C     0.46941   0.83269   0.33801   0.00000  Uiso   1.00
C444   C     0.53055   0.83297   0.16195   0.00000  Uiso   1.00
C445   C     0.45012   0.82956   0.38870   0.00000  Uiso   1.00
C446   C     0.49969   0.75344   0.25090   0.00000  Uiso   1.00
C447   C     0.54891   0.82683   0.11151   0.00000  Uiso   1.00
C448   C     0.38610   0.83954   0.46470   0.00000  Uiso   1.00
C449   C     0.60577   0.79504   0.04050   0.00000  Uiso   1.00
C450   C     0.40146   0.83929   0.41631   0.00000  Uiso   1.00
C451   C     0.59443   0.80832   0.08640   0.00000  Uiso   1.00
C452   C     0.48230   0.81762   0.40952   0.00000  Uiso   1.00
C453   C     0.51588   0.83325   0.09012   0.00000  Uiso   1.00
C454   C     0.46776   0.81723   0.45790   0.00000  Uiso   1.00
C455   C     0.52447   0.81673   0.04598   0.00000  Uiso   1.00
C456   C     0.41918   0.82963   0.48565   0.00000  Uiso   1.00
C457   C     0.43868   0.82817   0.05410   0.00000  Uiso   1.00
C458   C     0.57104   0.79903   0.02013   0.00000  Uiso   1.00
C459   C     0.50148   0.80823   0.47904   0.00000  Uiso   1.00
C460   C     0.48811   0.81807   0.02683   0.00000  Uiso   1.00
C461   C     0.54817   0.79023   0.45402   0.00000  Uiso   1.00
C462   C     0.40470   0.83324   0.03376   0.00000  Uiso   1.00
C463   C     0.58204   0.78523   0.47459   0.00000  Uiso   1.00
C464   C     0.54065   0.97880   0.21748   0.00000  Uiso   1.00
C465   C     0.45936   0.68789   0.28257   0.00000  Uiso   1.00
C466   C     0.54000   0.68846   0.21917   0.00000  Uiso   1.00
Cl467  Cl    0.59102   0.95321   0.17469   0.00000  Uiso   1.00
Cl468  Cl    0.40905   0.71350   0.32543   0.00000  Uiso   1.00
Cl469  Cl    0.64347   0.77492   0.18036   0.00000  Uiso   1.00
Cl470  Cl    0.35644   0.89111   0.32028   0.00000  Uiso   1.00
H471   H     0.36741   0.84168   0.05560   0.00000  Uiso   1.00
H472   H     0.55901   0.77833   0.41887   0.00000  Uiso   1.00
H473   H     0.57039   0.70564   0.19478   0.00000  Uiso   1.00
H474   H     0.42958   0.96104   0.30522   0.00000  Uiso   1.00
H475   H     0.39776   0.78822   0.19583   0.00000  Uiso   1.00
H476   H     0.60225   0.87843   0.30420   0.00000  Uiso   1.00
H477   H     0.61727   0.77109   0.45450   0.00000  Uiso   1.00
H478   H     0.48287   0.85069   0.10915   0.00000  Uiso   1.00
H479   H     0.51965   0.81104   0.38715   0.00000  Uiso   1.00
H480   H     0.62039   0.80289   0.10256   0.00000  Uiso   1.00
H481   H     0.37595   0.84820   0.40061   0.00000  Uiso   1.00
H482   H     0.34895   0.84905   0.48564   0.00000  Uiso   1.00
H483   H     0.64103   0.78057   0.02143   0.00000  Uiso   1.00
H484   H     0.42493   0.83138   0.09157   0.00000  Uiso   1.00
N485   N     0.38093   0.83334   0.25001   0.00000  Uiso   1.00
N486   N     0.61907   0.83332   0.24999   0.00000  Uiso   1.00
O487   O     0.46179   0.89442   0.25000   0.00000  Uiso   1.00
O488   O     0.53821   0.77225   0.25000   0.00000  Uiso   1.00
O489   O     0.53823   0.89441   0.25000   0.00000  Uiso   1.00
O490   O     0.46177   0.77226   0.25000   0.00000  Uiso   1.00
O491   O     0.43994   0.83334   0.31612   0.00000  Uiso   1.00
O492   O     0.56006   0.83333   0.18388   0.00000  Uiso   1.00
O493   O     0.51639   0.83333   0.31612   0.00000  Uiso   1.00
O494   O     0.48361   0.83334   0.18388   0.00000  Uiso   1.00
Zn495  Zn    0.44896   0.83334   0.25000   0.00000  Uiso   1.00
Zn496  Zn    0.55104   0.83333   0.25000   0.00000  Uiso   1.00
C497   C     0.83364   0.91323   0.24911   0.00000  Uiso   1.00
C498   C     0.79331   0.97822   0.28085   0.00000  Uiso   1.00
C499   C     0.83293   0.70932   0.25137   0.00000  Uiso   1.00
C500   C     0.83373   0.95736   0.24866   0.00000  Uiso   1.00
C501   C     0.98862   0.80816   0.21982   0.00000  Uiso   1.00
C502   C     0.67803   0.85840   0.28030   0.00000  Uiso   1.00
C503   C     0.70304   0.80827   0.21988   0.00000  Uiso   1.00
C504   C     0.96364   0.85840   0.28013   0.00000  Uiso   1.00
C505   C     0.80275   0.83269   0.33801   0.00000  Uiso   1.00
C506   C     0.86388   0.83297   0.16195   0.00000  Uiso   1.00
C507   C     0.78345   0.82956   0.38870   0.00000  Uiso   1.00
C508   C     0.83303   0.75344   0.25090   0.00000  Uiso   1.00
C509   C     0.88224   0.82683   0.11151   0.00000  Uiso   1.00
C510   C     0.71943   0.83954   0.46470   0.00000  Uiso   1.00
C511   C     0.93910   0.79504   0.04050   0.00000  Uiso   1.00
C512   C     0.73479   0.83929   0.41631   0.00000  Uiso   1.00
C513   C     0.92777   0.80832   0.08640   0.00000  Uiso   1.00
C514   C     0.81564   0.81762   0.40952   0.00000  Uiso   1.00
C515   C     0.84921   0.83325   0.09012   0.00000  Uiso   1.00
C516   C     0.80110   0.81723   0.45790   0.00000  Uiso   1.00
C517   C     0.85780   0.81673   0.04598   0.00000  Uiso   1.00
C518   C     0.75251   0.82963   0.48565   0.00000  Uiso   1.00
C519   C     0.77201   0.82817   0.05410   0.00000  Uiso   1.00
C520   C     0.90437   0.79903   0.02013   0.00000  Uiso   1.00
C521   C     0.83481   0.80823   0.47904   0.00000  Uiso   1.00
C522   C     0.82144   0.81807   0.02683   0.00000  Uiso   1.00
C523   C     0.88150   0.79023   0.45402   0.00000  Uiso   1.00
C524   C     0.73803   0.83324   0.03376   0.00000  Uiso   1.00
C525   C     0.91537   0.78523   0.47459   0.00000  Uiso   1.00
C526   C     0.87398   0.97880   0.21748   0.00000  Uiso   1.00
C527   C     0.79269   0.68789   0.28257   0.00000  Uiso   1.00
C528   C     0.87333   0.68846   0.21917   0.00000  Uiso   1.00
Cl529  Cl    0.92435   0.95321   0.17469   0.00000  Uiso   1.00
Cl530  Cl    0.74238   0.71350   0.32543   0.00000  Uiso   1.00
Cl531  Cl    0.97680   0.77492   0.18036   0.00000  Uiso   1.00
Cl532  Cl    0.68977   0.89111   0.32028   0.00000  Uiso   1.00
H533   H     0.70075   0.84168   0.05560   0.00000  Uiso   1.00
H534   H     0.89235   0.77833   0.41887   0.00000  Uiso   1.00
H535   H     0.90372   0.70564   0.19478   0.00000  Uiso   1.00
H536   H     0.76291   0.96104   0.30522   0.00000  Uiso   1.00
H537   H     0.73109   0.78822   0.19583   0.00000  Uiso   1.00
H538   H     0.93559   0.87843   0.30420   0.00000  Uiso   1.00
H539   H     0.95060   0.77109   0.45450   0.00000  Uiso   1.00
H540   H     0.81620   0.85069   0.10915   0.00000  Uiso   1.00
H541   H     0.85298   0.81104   0.38715   0.00000  Uiso   1.00
H542   H     0.95372   0.80289   0.10256   0.00000  Uiso   1.00
H543   H     0.70928   0.84820   0.40061   0.00000  Uiso   1.00
H544   H     0.68229   0.84905   0.48564   0.00000  Uiso   1.00
H545   H     0.97437   0.78057   0.02143   0.00000  Uiso   1.00
H546   H     0.75826   0.83138   0.09157   0.00000  Uiso   1.00
N547   N     0.71426   0.83334   0.25001   0.00000  Uiso   1.00
N548   N     0.95241   0.83332   0.24999   0.00000  Uiso   1.00
O549   O     0.79512   0.89442   0.25000   0.00000  Uiso   1.00
O550   O     0.87154   0.77225   0.25000   0.00000  Uiso   1.00
O551   O     0.87157   0.89441   0.25000   0.00000  Uiso   1.00
O552   O     0.79510   0.77226   0.25000   0.00000  Uiso   1.00
O553   O     0.77328   0.83334   0.31612   0.00000  Uiso   1.00
O554   O     0.89339   0.83333   0.18388   0.00000  Uiso   1.00
O555   O     0.84972   0.83333   0.31612   0.00000  Uiso   1.00
O556   O     0.81695   0.83334   0.18388   0.00000  Uiso   1.00
Zn557  Zn    0.78229   0.83334   0.25000   0.00000  Uiso   1.00
Zn558  Zn    0.88438   0.83333   0.25000   0.00000  Uiso   1.00
C559   C     0.16697   0.24657   0.74911   0.00000  Uiso   1.00
C560   C     0.12665   0.31156   0.78085   0.00000  Uiso   1.00
C561   C     0.16626   0.04265   0.75137   0.00000  Uiso   1.00
C562   C     0.16706   0.29070   0.74866   0.00000  Uiso   1.00
C563   C     0.32195   0.14149   0.71982   0.00000  Uiso   1.00
C564   C     0.01137   0.19174   0.78030   0.00000  Uiso   1.00
C565   C     0.03638   0.14160   0.71988   0.00000  Uiso   1.00
C566   C     0.29697   0.19173   0.78013   0.00000  Uiso   1.00
C567   C     0.13608   0.16602   0.83801   0.00000  Uiso   1.00
C568   C     0.19722   0.16631   0.66195   0.00000  Uiso   1.00
C569   C     0.11678   0.16289   0.88870   0.00000  Uiso   1.00
C570   C     0.16636   0.08677   0.75090   0.00000  Uiso   1.00
C571   C     0.21557   0.16016   0.61151   0.00000  Uiso   1.00
C572   C     0.05277   0.17287   0.96470   0.00000  Uiso   1.00
C573   C     0.27243   0.12838   0.54050   0.00000  Uiso   1.00
C574   C     0.06812   0.17263   0.91631   0.00000  Uiso   1.00
C575   C     0.26110   0.14166   0.58640   0.00000  Uiso   1.00
C576   C     0.14897   0.15096   0.90952   0.00000  Uiso   1.00
C577   C     0.18254   0.16658   0.59012   0.00000  Uiso   1.00
C578   C     0.13443   0.15057   0.95790   0.00000  Uiso   1.00
C579   C     0.19114   0.15006   0.54598   0.00000  Uiso   1.00
C580   C     0.08584   0.16297   0.98565   0.00000  Uiso   1.00
C581   C     0.10535   0.16150   0.55410   0.00000  Uiso   1.00
C582   C     0.23770   0.13236   0.52013   0.00000  Uiso   1.00
C583   C     0.16814   0.14157   0.97904   0.00000  Uiso   1.00
C584   C     0.15478   0.15140   0.52683   0.00000  Uiso   1.00
C585   C     0.21484   0.12356   0.95402   0.00000  Uiso   1.00
C586   C     0.07137   0.16657   0.53376   0.00000  Uiso   1.00
C587   C     0.24871   0.11856   0.97459   0.00000  Uiso   1.00
C588   C     0.20731   0.31213   0.71748   0.00000  Uiso   1.00
C589   C     0.12602   0.02122   0.78257   0.00000  Uiso   1.00
C590   C     0.20667   0.02179   0.71917   0.00000  Uiso   1.00
Cl591  Cl    0.25769   0.28655   0.67469   0.00000  Uiso   1.00
Cl592  Cl    0.07572   0.04683   0.82543   0.00000  Uiso   1.00
Cl593  Cl    0.31014   0.10825   0.68036   0.00000  Uiso   1.00
Cl594  Cl    0.02310   0.22445   0.82028   0.00000  Uiso   1.00
H595   H     0.03408   0.17502   0.55560   0.00000  Uiso   1.00
H596   H     0.22568   0.11166   0.91887   0.00000  Uiso   1.00
H597   H     0.23705   0.03897   0.69478   0.00000  Uiso   1.00
H598   H     0.09624   0.29438   0.80522   0.00000  Uiso   1.00
H599   H     0.06442   0.12156   0.69583   0.00000  Uiso   1.00
H600   H     0.26892   0.21176   0.80420   0.00000  Uiso   1.00
H601   H     0.28393   0.10442   0.95450   0.00000  Uiso   1.00
H602   H     0.14954   0.18403   0.60915   0.00000  Uiso   1.00
H603   H     0.18631   0.14438   0.88715   0.00000  Uiso   1.00
H604   H     0.28705   0.13622   0.60256   0.00000  Uiso   1.00
H605   H     0.04262   0.18154   0.90061   0.00000  Uiso   1.00
H606   H     0.01562   0.18238   0.98564   0.00000  Uiso   1.00
H607   H     0.30770   0.11391   0.52143   0.00000  Uiso   1.00
H608   H     0.09159   0.16472   0.59157   0.00000  Uiso   1.00
N609   N     0.04759   0.16668   0.75001   0.00000  Uiso   1.00
N610   N     0.28574   0.16666   0.74999   0.00000  Uiso   1.00
O611   O     0.12846   0.22775   0.75000   0.00000  Uiso   1.00
O612   O     0.20488   0.10558   0.75000   0.00000  Uiso   1.00
O613   O     0.20490   0.22774   0.75000   0.00000  Uiso   1.00
O614   O     0.12843   0.10559   0.75000   0.00000  Uiso   1.00
O615   O     0.10661   0.16667   0.81612   0.00000  Uiso   1.00
O616   O     0.22672   0.16666   0.68388   0.00000  Uiso   1.00
O617   O     0.18305   0.16666   0.81612   0.00000  Uiso   1.00
O618   O     0.15028   0.16667   0.68388   0.00000  Uiso   1.00
Zn619  Zn    0.11562   0.16667   0.75000   0.00000  Uiso   1.00
Zn620  Zn    0.21771   0.16666   0.75000   0.00000  Uiso   1.00
C621   C     0.50030   0.24657   0.74911   0.00000  Uiso   1.00
C622   C     0.45998   0.31156   0.78085   0.00000  Uiso   1.00
C623   C     0.49959   0.04265   0.75137   0.00000  Uiso   1.00
C624   C     0.50040   0.29070   0.74866   0.00000  Uiso   1.00
C625   C     0.65529   0.14149   0.71982   0.00000  Uiso   1.00
C626   C     0.34470   0.19174   0.78030   0.00000  Uiso   1.00
C627   C     0.36971   0.14160   0.71988   0.00000  Uiso   1.00
C628   C     0.63030   0.19173   0.78013   0.00000  Uiso   1.00
C629   C     0.46941   0.16602   0.83801   0.00000  Uiso   1.00
C630   C     0.53055   0.16631   0.66195   0.00000  Uiso   1.00
C631   C     0.45012   0.16289   0.88870   0.00000  Uiso   1.00
C632   C     0.49969   0.08677   0.75090   0.00000  Uiso   1.00
C633   C     0.54891   0.16016   0.61151   0.00000  Uiso   1.00
C634   C     0.38610   0.17287   0.96470   0.00000  Uiso   1.00
C635   C     0.60577   0.12838   0.54050   0.00000  Uiso   1.00
C636   C     0.40146   0.17263   0.91631   0.00000  Uiso   1.00
C637   C     0.59443   0.14166   0.58640   0.00000  Uiso   1.00
C638   C     0.48230   0.15096   0.90952   0.00000  Uiso   1.00
C639   C     0.51588   0.16658   0.59012   0.00000  Uiso   1.00
C640   C     0.46776   0.15057   0.95790   0.00000  Uiso   1.00
C641   C     0.52447   0.15006   0.54598   0.00000  Uiso   1.00
C642   C     0.41918   0.16297   0.98565   0.00000  Uiso   1.00
C643   C     0.43868   0.16150   0.55410   0.00000  Uiso   1.00
C644   C     0.57104   0.13236   0.52013   0.00000  Uiso   1.00
C645   C     0.50148   0.14157   0.97904   0.00000  Uiso   1.00
C646   C     0.48811   0.15140   0.52683   0.00000  Uiso   1.00
C647   C     0.54817   0.12356   0.95402   0.00000  Uiso   1.00
C648   C     0.40470   0.16657   0.53376   0.00000  Uiso   1.00
C649   C     0.58204   0.11856   0.97459   0.00000  Uiso   1.00
C650   C     0.54065   0.31213   0.71748   0.00000  Uiso   1.00
C651   C     0.45936   0.02122   0.78257   0.00000  Uiso   1.00
C652   C     0.54000   0.02179   0.71917   0.00000  Uiso   1.00
Cl653  Cl    0.59102   0.28655   0.67469   0.00000  Uiso   1.00
Cl654  Cl    0.40905   0.04683   0.82543   0.00000  Uiso   1.00
Cl655  Cl    0.64347   0.10825   0.68036   0.00000  Uiso   1.00
Cl656  Cl    0.35644   0.22445   0.82028   0.00000  Uiso   1.00
H657   H     0.36741   0.17502   0.55560   0.00000  Uiso   1.00
H658   H     0.55901   0.11166   0.91887   0.00000  Uiso   1.00
H659   H     0.57039   0.03897   0.69478   0.00000  Uiso   1.00
H660   H     0.42958   0.29438   0.80522   0.00000  Uiso   1.00
H661   H     0.39776   0.12156   0.69583   0.00000  Uiso   1.00
H662   H     0.60225   0.21176   0.80420   0.00000  Uiso   1.00
H663   H     0.61727   0.10442   0.95450   0.00000  Uiso   1.00
H664   H     0.48287   0.18403   0.60915   0.00000  Uiso   1.00
H665   H     0.51965   0.14438   0.88715   0.00000  Uiso   1.00
H666   H     0.62039   0.13622   0.60256   0.00000  Uiso   1.00
H667   H     0.37595   0.18154   0.90061   0.00000  Uiso   1.00
H668   H     0.34895   0.18238   0.98564   0.00000  Uiso   1.00
H669   H     0.64103   0.11391   0.52143   0.00000  Uiso   1.00
H670   H     0.42493   0.16472   0.59157   0.00000  Uiso   1.00
N671   N     0.38093   0.16668   0.75001   0.00000  Uiso   1.00
N672   N     0.61907   0.16666   0.74999   0.00000  Uiso   1.00
O673   O     0.46179   0.22775   0.75000   0.00000  Uiso   1.00
O674   O     0.53821   0.10558   0.75000   0.00000  Uiso   1.00
O675   O     0.53823   0.22774   0.75000   0.00000  Uiso   1.00
O676   O     0.46177   0.10559   0.75000   0.00000  Uiso   1.00
O677   O     0.43994   0.16667   0.81612   0.00000  Uiso   1.00
O678   O     0.56006   0.16666   0.68388   0.00000  Uiso   1.00
O679   O     0.51639   0.16666   0.81612   0.00000  Uiso   1.00
O680   O     0.48361   0.16667   0.68388   0.00000  Uiso   1.00
Zn681  Zn    0.44896   0.16667   0.75000   0.00000  Uiso   1.00
Zn682  Zn    0.55104   0.16666   0.75000   0.00000  Uiso   1.00
C683   C     0.83364   0.24657   0.74911   0.00000  Uiso   1.00
C684   C     0.79331   0.31156   0.78085   0.00000  Uiso   1.00
C685   C     0.83293   0.04265   0.75137   0.00000  Uiso   1.00
C686   C     0.83373   0.29070   0.74866   0.00000  Uiso   1.00
C687   C     0.98862   0.14149   0.71982   0.00000  Uiso   1.00
C688   C     0.67803   0.19174   0.78030   0.00000  Uiso   1.00
C689   C     0.70304   0.14160   0.71988   0.00000  Uiso   1.00
C690   C     0.96364   0.19173   0.78013   0.00000  Uiso   1.00
C691   C     0.80275   0.16602   0.83801   0.00000  Uiso   1.00
C692   C     0.86388   0.16631   0.66195   0.00000  Uiso   1.00
C693   C     0.78345   0.16289   0.88870   0.00000  Uiso   1.00
C694   C     0.83303   0.08677   0.75090   0.00000  Uiso   1.00
C695   C     0.88224   0.16016   0.61151   0.00000  Uiso   1.00
C696   C     0.71943   0.17287   0.96470   0.00000  Uiso   1.00
C697   C     0.93910   0.12838   0.54050   0.00000  Uiso   1.00
C698   C     0.73479   0.17263   0.91631   0.00000  Uiso   1.00
C699   C     0.92777   0.14166   0.58640   0.00000  Uiso   1.00
C700   C     0.81564   0.15096   0.90952   0.00000  Uiso   1.00
C701   C     0.84921   0.16658   0.59012   0.00000  Uiso   1.00
C702   C     0.80110   0.15057   0.95790   0.00000  Uiso   1.00
C703   C     0.85780   0.15006   0.54598   0.00000  Uiso   1.00
C704   C     0.75251   0.16297   0.98565   0.00000  Uiso   1.00
C705   C     0.77201   0.16150   0.55410   0.00000  Uiso   1.00
C706   C     0.90437   0.13236   0.52013   0.00000  Uiso   1.00
C707   C     0.83481   0.14157   0.97904   0.00000  Uiso   1.00
C708   C     0.82144   0.15140   0.52683   0.00000  Uiso   1.00
C709   C     0.88150   0.12356   0.95402   0.00000  Uiso   1.00
C710   C     0.73803   0.16657   0.53376   0.00000  Uiso   1.00
C711   C     0.91537   0.11856   0.97459   0.00000  Uiso   1.00
C712   C     0.87398   0.31213   0.71748   0.00000  Uiso   1.00
C713   C     0.79269   0.02122   0.78257   0.00000  Uiso   1.00
C714   C     0.87333   0.02179   0.71917   0.00000  Uiso   1.00
Cl715  Cl    0.92435   0.28655   0.67469   0.00000  Uiso   1.00
Cl716  Cl    0.74238   0.04683   0.82543   0.00000  Uiso   1.00
Cl717  Cl    0.97680   0.10825   0.68036   0.00000  Uiso   1.00
Cl718  Cl    0.68977   0.22445   0.82028   0.00000  Uiso   1.00
H719   H     0.70075   0.17502   0.55560   0.00000  Uiso   1.00
H720   H     0.89235   0.11166   0.91887   0.00000  Uiso   1.00
H721   H     0.90372   0.03897   0.69478   0.00000  Uiso   1.00
H722   H     0.76291   0.29438   0.80522   0.00000  Uiso   1.00
H723   H     0.73109   0.12156   0.69583   0.00000  Uiso   1.00
H724   H     0.93559   0.21176   0.80420   0.00000  Uiso   1.00
H725   H     0.95060   0.10442   0.95450   0.00000  Uiso   1.00
H726   H     0.81620   0.18403   0.60915   0.00000  Uiso   1.00
H727   H     0.85298   0.14438   0.88715   0.00000  Uiso   1.00
H728   H     0.95372   0.13622   0.60256   0.00000  Uiso   1.00
H729   H     0.70928   0.18154   0.90061   0.00000  Uiso   1.00
H730   H     0.68229   0.18238   0.98564   0.00000  Uiso   1.00
H731   H     0.97437   0.11391   0.52143   0.00000  Uiso   1.00
H732   H     0.75826   0.16472   0.59157   0.00000  Uiso   1.00
N733   N     0.71426   0.16668   0.75001   0.00000  Uiso   1.00
N734   N     0.95241   0.16666   0.74999   0.00000  Uiso   1.00
O735   O     0.79512   0.22775   0.75000   0.00000  Uiso   1.00
O736   O     0.87154   0.10558   0.75000   0.00000  Uiso   1.00
O737   O     0.87157   0.22774   0.75000   0.00000  Uiso   1.00
O738   O     0.79510   0.10559   0.75000   0.00000  Uiso   1.00
O739   O     0.77328   0.16667   0.81612   0.00000  Uiso   1.00
O740   O     0.89339   0.16666   0.68388   0.00000  Uiso   1.00
O741   O     0.84972   0.16666   0.81612   0.00000  Uiso   1.00
O742   O     0.81695   0.16667   0.68388   0.00000  Uiso   1.00
Zn743  Zn    0.78229   0.16667   0.75000   0.00000  Uiso   1.00
Zn744  Zn    0.88438   0.16666   0.75000   0.00000  Uiso   1.00
C745   C     0.16697   0.57990   0.74911   0.00000  Uiso   1.00
C746   C     0.12665   0.64489   0.78085   0.00000  Uiso   1.00
C747   C     0.16626   0.37598   0.75137   0.00000  Uiso   1.00
C748   C     0.16706   0.62403   0.74866   0.00000  Uiso   1.00
C749   C     0.32195   0.47483   0.71982   0.00000  Uiso   1.00
C750   C     0.01137   0.52507   0.78030   0.00000  Uiso   1.00
C751   C     0.03638   0.47494   0.71988   0.00000  Uiso   1.00
C752   C     0.29697   0.52506   0.78013   0.00000  Uiso   1.00
C753   C     0.13608   0.49936   0.83801   0.00000  Uiso   1.00
C754   C     0.19722   0.49964   0.66195   0.00000  Uiso   1.00
C755   C     0.11678   0.49623   0.88870   0.00000  Uiso   1.00
C756   C     0.16636   0.42010   0.75090   0.00000  Uiso   1.00
C757   C     0.21557   0.49350   0.61151   0.00000  Uiso   1.00
C758   C     0.05277   0.50621   0.96470   0.00000  Uiso   1.00
C759   C     0.27243   0.46171   0.54050   0.00000  Uiso   1.00
C760   C     0.06812   0.50596   0.91631   0.00000  Uiso   1.00
C761   C     0.26110   0.47499   0.58640   0.00000  Uiso   1.00
C762   C     0.14897   0.48429   0.90952   0.00000  Uiso   1.00
C763   C     0.18254   0.49991   0.59012   0.00000  Uiso   1.00
C764   C     0.13443   0.48390   0.95790   0.00000  Uiso   1.00
C765   C     0.19114   0.48339   0.54598   0.00000  Uiso   1.00
C766   C     0.08584   0.49630   0.98565   0.00000  Uiso   1.00
C767   C     0.10535   0.49484   0.55410   0.00000  Uiso   1.00
C768   C     0.23770   0.46569   0.52013   0.00000  Uiso   1.00
C769   C     0.16814   0.47490   0.97904   0.00000  Uiso   1.00
C770   C     0.15478   0.48473   0.52683   0.00000  Uiso   1.00
C771   C     0.21484   0.45690   0.95402   0.00000  Uiso   1.00
C772   C     0.07137   0.49991   0.53376   0.00000  Uiso   1.00
C773   C     0.24871   0.45189   0.97459   0.00000  Uiso   1.00
C774   C     0.20731   0.64546   0.71748   0.00000  Uiso   1.00
C775   C     0.12602   0.35456   0.78257   0.00000  Uiso   1.00
C776   C     0.20667   0.35513   0.71917   0.00000  Uiso   1.00
Cl777  Cl    0.25769   0.61988   0.67469   0.00000  Uiso   1.00
Cl778  Cl    0.07572   0.38016   0.82543   0.00000  Uiso   1.00
Cl779  Cl    0.31014   0.44158   0.68036   0.00000  Uiso   1.00
Cl780  Cl    0.02310   0.55778   0.82028   0.00000  Uiso   1.00
H781   H     0.03408   0.50835   0.55560   0.00000  Uiso   1.00
H782   H     0.22568   0.44500   0.91887   0.00000  Uiso   1.00
H783   H     0.23705   0.37230   0.69478   0.00000  Uiso   1.00
H784   H     0.09624   0.62771   0.80522   0.00000  Uiso   1.00
H785   H     0.06442   0.45489   0.69583   0.00000  Uiso   1.00
H786   H     0.26892   0.54509   0.80420   0.00000  Uiso   1.00
H787   H     0.28393   0.43776   0.95450   0.00000  Uiso   1.00
H788   H     0.14954   0.51736   0.60915   0.00000  Uiso   1.00
H789   H     0.18631   0.47771   0.88715   0.00000  Uiso   1.00
H790   H     0.28705   0.46956   0.60256   0.00000  Uiso   1.00
H791   H     0.04262   0.51487   0.90061   0.00000  Uiso   1.00
H792   H     0.01562   0.51571   0.98564   0.00000  Uiso   1.00
H793   H     0.30770   0.44724   0.52143   0.00000  Uiso   1.00
H794   H     0.09159   0.49805   0.59157   0.00000  Uiso   1.00
N795   N     0.04759   0.50001   0.75001   0.00000  Uiso   1.00
N796   N     0.28574   0.49999   0.74999   0.00000  Uiso   1.00
O797   O     0.12846   0.56108   0.75000   0.00000  Uiso   1.00
O798   O     0.20488   0.43892   0.75000   0.00000  Uiso   1.00
O799   O     0.20490   0.56107   0.75000   0.00000  Uiso   1.00
O800   O     0.12843   0.43893   0.75000   0.00000  Uiso   1.00
O801   O     0.10661   0.50001   0.81612   0.00000  Uiso   1.00
O802   O     0.22672   0.49999   0.68388   0.00000  Uiso   1.00
O803   O     0.18305   0.50000   0.81612   0.00000  Uiso   1.00
O804   O     0.15028   0.50000   0.68388   0.00000  Uiso   1.00
Zn805  Zn    0.11562   0.50001   0.75000   0.00000  Uiso   1.00
Zn806  Zn    0.21771   0.49999   0.75000   0.00000  Uiso   1.00
C807   C     0.50030   0.57990   0.74911   0.00000  Uiso   1.00
C808   C     0.45998   0.64489   0.78085   0.00000  Uiso   1.00
C809   C     0.49959   0.37598   0.75137   0.00000  Uiso   1.00
C810   C     0.50040   0.62403   0.74866   0.00000  Uiso   1.00
C811   C     0.65529   0.47483   0.71982   0.00000  Uiso   1.00
C812   C     0.34470   0.52507   0.78030   0.00000  Uiso   1.00
C813   C     0.36971   0.47494   0.71988   0.00000  Uiso   1.00
C814   C     0.63030   0.52506   0.78013   0.00000  Uiso   1.00
C815   C     0.46941   0.49936   0.83801   0.00000  Uiso   1.00
C816   C     0.53055   0.49964   0.66195   0.00000  Uiso   1.00
C817   C     0.45012   0.49623   0.88870   0.00000  Uiso   1.00
C818   C     0.49969   0.42010   0.75090   0.00000  Uiso   1.00
C819   C     0.54891   0.49350   0.61151   0.00000  Uiso   1.00
C820   C     0.38610   0.50621   0.96470   0.00000  Uiso   1.00
C821   C     0.60577   0.46171   0.54050   0.00000  Uiso   1.00
C822   C     0.40146   0.50596   0.91631   0.00000  Uiso   1.00
C823   C     0.59443   0.47499   0.58640   0.00000  Uiso   1.00
C824   C     0.48230   0.48429   0.90952   0.00000  Uiso   1.00
C825   C     0.51588   0.49991   0.59012   0.00000  Uiso   1.00
C826   C     0.46776   0.48390   0.95790   0.00000  Uiso   1.00
C827   C     0.52447   0.48339   0.54598   0.00000  Uiso   1.00
C828   C     0.41918   0.49630   0.98565   0.00000  Uiso   1.00
C829   C     0.43868   0.49484   0.55410   0.00000  Uiso   1.00
C830   C     0.57104   0.46569   0.52013   0.00000  Uiso   1.00
C831   C     0.50148   0.47490   0.97904   0.00000  Uiso   1.00
C832   C     0.48811   0.48473   0.52683   0.00000  Uiso   1.00
C833   C     0.54817   0.45690   0.95402   0.00000  Uiso   1.00
C834   C     0.40470   0.49991   0.53376   0.00000  Uiso   1.00
C835   C     0.58204   0.45189   0.97459   0.00000  Uiso   1.00
C836   C     0.54065   0.64546   0.71748   0.00000  Uiso   1.00
C837   C     0.45936   0.35456   0.78257   0.00000  Uiso   1.00
C838   C     0.54000   0.35513   0.71917   0.00000  Uiso   1.00
Cl839  Cl    0.59102   0.61988   0.67469   0.00000  Uiso   1.00
Cl840  Cl    0.40905   0.38016   0.82543   0.00000  Uiso   1.00
Cl841  Cl    0.64347   0.44158   0.68036   0.00000  Uiso   1.00
Cl842  Cl    0.35644   0.55778   0.82028   0.00000  Uiso   1.00
H843   H     0.36741   0.50835   0.55560   0.00000  Uiso   1.00
H844   H     0.55901   0.44500   0.91887   0.00000  Uiso   1.00
H845   H     0.57039   0.37230   0.69478   0.00000  Uiso   1.00
H846   H     0.42958   0.62771   0.80522   0.00000  Uiso   1.00
H847   H     0.39776   0.45489   0.69583   0.00000  Uiso   1.00
H848   H     0.60225   0.54509   0.80420   0.00000  Uiso   1.00
H849   H     0.61727   0.43776   0.95450   0.00000  Uiso   1.00
H850   H     0.48287   0.51736   0.60915   0.00000  Uiso   1.00
H851   H     0.51965   0.47771   0.88715   0.00000  Uiso   1.00
H852   H     0.62039   0.46956   0.60256   0.00000  Uiso   1.00
H853   H     0.37595   0.51487   0.90061   0.00000  Uiso   1.00
H854   H     0.34895   0.51571   0.98564   0.00000  Uiso   1.00
H855   H     0.64103   0.44724   0.52143   0.00000  Uiso   1.00
H856   H     0.42493   0.49805   0.59157   0.00000  Uiso   1.00
N857   N     0.38093   0.50001   0.75001   0.00000  Uiso   1.00
N858   N     0.61907   0.49999   0.74999   0.00000  Uiso   1.00
O859   O     0.46179   0.56108   0.75000   0.00000  Uiso   1.00
O860   O     0.53821   0.43892   0.75000   0.00000  Uiso   1.00
O861   O     0.53823   0.56107   0.75000   0.00000  Uiso   1.00
O862   O     0.46177   0.43893   0.75000   0.00000  Uiso   1.00
O863   O     0.43994   0.50001   0.81612   0.00000  Uiso   1.00
O864   O     0.56006   0.49999   0.68388   0.00000  Uiso   1.00
O865   O     0.51639   0.50000   0.81612   0.00000  Uiso   1.00
O866   O     0.48361   0.50000   0.68388   0.00000  Uiso   1.00
Zn867  Zn    0.44896   0.50001   0.75000   0.00000  Uiso   1.00
Zn868  Zn    0.55104   0.49999   0.75000   0.00000  Uiso   1.00
C869   C     0.83364   0.57990   0.74911   0.00000  Uiso   1.00
C870   C     0.79331   0.64489   0.78085   0.00000  Uiso   1.00
C871   C     0.83293   0.37598   0.75137   0.00000  Uiso   1.00
C872   C     0.83373   0.62403   0.74866   0.00000  Uiso   1.00
C873   C     0.98862   0.47483   0.71982   0.00000  Uiso   1.00
C874   C     0.67803   0.52507   0.78030   0.00000  Uiso   1.00
C875   C     0.70304   0.47494   0.71988   0.00000  Uiso   1.00
C876   C     0.96364   0.52506   0.78013   0.00000  Uiso   1.00
C877   C     0.80275   0.49936   0.83801   0.00000  Uiso   1.00
C878   C     0.86388   0.49964   0.66195   0.00000  Uiso   1.00
C879   C     0.78345   0.49623   0.88870   0.00000  Uiso   1.00
C880   C     0.83303   0.42010   0.75090   0.00000  Uiso   1.00
C881   C     0.88224   0.49350   0.61151   0.00000  Uiso   1.00
C882   C     0.71943   0.50621   0.96470   0.00000  Uiso   1.00
C883   C     0.93910   0.46171   0.54050   0.00000  Uiso   1.00
C884   C     0.73479   0.50596   0.91631   0.00000  Uiso   1.00
C885   C     0.92777   0.47499   0.58640   0.00000  Uiso   1.00
C886   C     0.81564   0.48429   0.90952   0.00000  Uiso   1.00
C887   C     0.84921   0.49991   0.59012   0.00000  Uiso   1.00
C888   C     0.80110   0.48390   0.95790   0.00000  Uiso   1.00
C889   C     0.85780   0.48339   0.54598   0.00000  Uiso   1.00
C890   C     0.75251   0.49630   0.98565   0.00000  Uiso   1.00
C891   C     0.77201   0.49484   0.55410   0.00000  Uiso   1.00
C892   C     0.90437   0.46569   0.52013   0.00000  Uiso   1.00
C893   C     0.83481   0.47490   0.97904   0.00000  Uiso   1.00
C894   C     0.82144   0.48473   0.52683   0.00000  Uiso   1.00
C895   C     0.88150   0.45690   0.95402   0.00000  Uiso   1.00
C896   C     0.73803   0.49991   0.53376   0.00000  Uiso   1.00
C897   C     0.91537   0.45189   0.97459   0.00000  Uiso   1.00
C898   C     0.87398   0.64546   0.71748   0.00000  Uiso   1.00
C899   C     0.79269   0.35456   0.78257   0.00000  Uiso   1.00
C900   C     0.87333   0.35513   0.71917   0.00000  Uiso   1.00
Cl901  Cl    0.92435   0.61988   0.67469   0.00000  Uiso   1.00
Cl902  Cl    0.74238   0.38016   0.82543   0.00000  Uiso   1.00
Cl903  Cl    0.97680   0.44158   0.68036   0.00000  Uiso   1.00
Cl904  Cl    0.68977   0.55778   0.82028   0.00000  Uiso   1.00
H905   H     0.70075   0.50835   0.55560   0.00000  Uiso   1.00
H906   H     0.89235   0.44500   0.91887   0.00000  Uiso   1.00
H907   H     0.90372   0.37230   0.69478   0.00000  Uiso   1.00
H908   H     0.76291   0.62771   0.80522   0.00000  Uiso   1.00
H909   H     0.73109   0.45489   0.69583   0.00000  Uiso   1.00
H910   H     0.93559   0.54509   0.80420   0.00000  Uiso   1.00
H911   H     0.95060   0.43776   0.95450   0.00000  Uiso   1.00
H912   H     0.81620   0.51736   0.60915   0.00000  Uiso   1.00
H913   H     0.85298   0.47771   0.88715   0.00000  Uiso   1.00
H914   H     0.95372   0.46956   0.60256   0.00000  Uiso   1.00
H915   H     0.70928   0.51487   0.90061   0.00000  Uiso   1.00
H916   H     0.68229   0.51571   0.98564   0.00000  Uiso   1.00
H917   H     0.97437   0.44724   0.52143   0.00000  Uiso   1.00
H918   H     0.75826   0.49805   0.59157   0.00000  Uiso   1.00
N919   N     0.71426   0.50001   0.75001   0.00000  Uiso   1.00
N920   N     0.95241   0.49999   0.74999   0.00000  Uiso   1.00
O921   O     0.79512   0.56108   0.75000   0.00000  Uiso   1.00
O922   O     0.87154   0.43892   0.75000   0.00000  Uiso   1.00
O923   O     0.87157   0.56107   0.75000   0.00000  Uiso   1.00
O924   O     0.79510   0.43893   0.75000   0.00000  Uiso   1.00
O925   O     0.77328   0.50001   0.81612   0.00000  Uiso   1.00
O926   O     0.89339   0.49999   0.68388   0.00000  Uiso   1.00
O927   O     0.84972   0.50000   0.81612   0.00000  Uiso   1.00
O928   O     0.81695   0.50000   0.68388   0.00000  Uiso   1.00
Zn929  Zn    0.78229   0.50001   0.75000   0.00000  Uiso   1.00
Zn930  Zn    0.88438   0.49999   0.75000   0.00000  Uiso   1.00
C931   C     0.16697   0.91323   0.74911   0.00000  Uiso   1.00
C932   C     0.12665   0.97822   0.78085   0.00000  Uiso   1.00
C933   C     0.16626   0.70932   0.75137   0.00000  Uiso   1.00
C934   C     0.16706   0.95736   0.74866   0.00000  Uiso   1.00
C935   C     0.32195   0.80816   0.71982   0.00000  Uiso   1.00
C936   C     0.01137   0.85840   0.78030   0.00000  Uiso   1.00
C937   C     0.03638   0.80827   0.71988   0.00000  Uiso   1.00
C938   C     0.29697   0.85840   0.78013   0.00000  Uiso   1.00
C939   C     0.13608   0.83269   0.83801   0.00000  Uiso   1.00
C940   C     0.19722   0.83297   0.66195   0.00000  Uiso   1.00
C941   C     0.11678   0.82956   0.88870   0.00000  Uiso   1.00
C942   C     0.16636   0.75344   0.75090   0.00000  Uiso   1.00
C943   C     0.21557   0.82683   0.61151   0.00000  Uiso   1.00
C944   C     0.05277   0.83954   0.96470   0.00000  Uiso   1.00
C945   C     0.27243   0.79504   0.54050   0.00000  Uiso   1.00
C946   C     0.06812   0.83929   0.91631   0.00000  Uiso   1.00
C947   C     0.26110   0.80832   0.58640   0.00000  Uiso   1.00
C948   C     0.14897   0.81762   0.90952   0.00000  Uiso   1.00
C949   C     0.18254   0.83325   0.59012   0.00000  Uiso   1.00
C950   C     0.13443   0.81723   0.95790   0.00000  Uiso   1.00
C951   C     0.19114   0.81673   0.54598   0.00000  Uiso   1.00
C952   C     0.08584   0.82963   0.98565   0.00000  Uiso   1.00
C953   C     0.10535   0.82817   0.55410   0.00000  Uiso   1.00
C954   C     0.23770   0.79903   0.52013   0.00000  Uiso   1.00
C955   C     0.16814   0.80823   0.97904   0.00000  Uiso   1.00
C956   C     0.15478   0.81807   0.52683   0.00000  Uiso   1.00
C957   C     0.21484   0.79023   0.95402   0.00000  Uiso   1.00
C958   C     0.07137   0.83324   0.53376   0.00000  Uiso   1.00
C959   C     0.24871   0.78523   0.97459   0.00000  Uiso   1.00
C960   C     0.20731   0.97880   0.71748   0.00000  Uiso   1.00
C961   C     0.12602   0.68789   0.78257   0.00000  Uiso   1.00
C962   C     0.20667   0.68846   0.71917   0.00000  Uiso   1.00
Cl963  Cl    0.25769   0.95321   0.67469   0.00000  Uiso   1.00
Cl964  Cl    0.07572   0.71350   0.82543   0.00000  Uiso   1.00
Cl965  Cl    0.31014   0.77492   0.68036   0.00000  Uiso   1.00
Cl966  Cl    0.02310   0.89111   0.82028   0.00000  Uiso   1.00
H967   H     0.03408   0.84168   0.55560   0.00000  Uiso   1.00
H968   H     0.22568   0.77833   0.91887   0.00000  Uiso   1.00
H969   H     0.23705   0.70564   0.69478   0.00000  Uiso   1.00
H970   H     0.09624   0.96104   0.80522   0.00000  Uiso   1.00
H971   H     0.06442   0.78822   0.69583   0.00000  Uiso   1.00
H972   H     0.26892   0.87843   0.80420   0.00000  Uiso   1.00
H973   H     0.28393   0.77109   0.95450   0.00000  Uiso   1.00
H974   H     0.14954   0.85069   0.60915   0.00000  Uiso   1.00
H975   H     0.18631   0.81104   0.88715   0.00000  Uiso   1.00
H976   H     0.28705   0.80289   0.60256   0.00000  Uiso   1.00
H977   H     0.04262   0.84820   0.90061   0.00000  Uiso   1.00
H978   H     0.01562   0.84905   0.98564   0.00000  Uiso   1.00
H979   H     0.30770   0.78057   0.52143   0.00000  Uiso   1.00
H980   H     0.09159   0.83138   0.59157   0.00000  Uiso   1.00
N981   N     0.04759   0.83334   0.75001   0.00000  Uiso   1.00
N982   N     0.28574   0.83332   0.74999   0.00000  Uiso   1.00
O983   O     0.12846   0.89442   0.75000   0.00000  Uiso   1.00
O984   O     0.20488   0.77225   0.75000   0.00000  Uiso   1.00
O985   O     0.20490   0.89441   0.75000   0.00000  Uiso   1.00
O986   O     0.12843   0.77226   0.75000   0.00000  Uiso   1.00
O987   O     0.10661   0.83334   0.81612   0.00000  Uiso   1.00
O988   O     0.22672   0.83333   0.68388   0.00000  Uiso   1.00
O989   O     0.18305   0.83333   0.81612   0.00000  Uiso   1.00
O990   O     0.15028   0.83334   0.68388   0.00000  Uiso   1.00
Zn991  Zn    0.11562   0.83334   0.75000   0.00000  Uiso   1.00
Zn992  Zn    0.21771   0.83333   0.75000   0.00000  Uiso   1.00
C993   C     0.50030   0.91323   0.74911   0.00000  Uiso   1.00
C994   C     0.45998   0.97822   0.78085   0.00000  Uiso   1.00
C995   C     0.49959   0.70932   0.75137   0.00000  Uiso   1.00
C996   C     0.50040   0.95736   0.74866   0.00000  Uiso   1.00
C997   C     0.65529   0.80816   0.71982   0.00000  Uiso   1.00
C998   C     0.34470   0.85840   0.78030   0.00000  Uiso   1.00
C999   C     0.36971   0.80827   0.71988   0.00000  Uiso   1.00
C1000  C     0.63030   0.85840   0.78013   0.00000  Uiso   1.00
C1001  C     0.46941   0.83269   0.83801   0.00000  Uiso   1.00
C1002  C     0.53055   0.83297   0.66195   0.00000  Uiso   1.00
C1003  C     0.45012   0.82956   0.88870   0.00000  Uiso   1.00
C1004  C     0.49969   0.75344   0.75090   0.00000  Uiso   1.00
C1005  C     0.54891   0.82683   0.61151   0.00000  Uiso   1.00
C1006  C     0.38610   0.83954   0.96470   0.00000  Uiso   1.00
C1007  C     0.60577   0.79504   0.54050   0.00000  Uiso   1.00
C1008  C     0.40146   0.83929   0.91631   0.00000  Uiso   1.00
C1009  C     0.59443   0.80832   0.58640   0.00000  Uiso   1.00
C1010  C     0.48230   0.81762   0.90952   0.00000  Uiso   1.00
C1011  C     0.51588   0.83325   0.59012   0.00000  Uiso   1.00
C1012  C     0.46776   0.81723   0.95790   0.00000  Uiso   1.00
C1013  C     0.52447   0.81673   0.54598   0.00000  Uiso   1.00
C1014  C     0.41918   0.82963   0.98565   0.00000  Uiso   1.00
C1015  C     0.43868   0.82817   0.55410   0.00000  Uiso   1.00
C1016  C     0.57104   0.79903   0.52013   0.00000  Uiso   1.00
C1017  C     0.50148   0.80823   0.97904   0.00000  Uiso   1.00
C1018  C     0.48811   0.81807   0.52683   0.00000  Uiso   1.00
C1019  C     0.54817   0.79023   0.95402   0.00000  Uiso   1.00
C1020  C     0.40470   0.83324   0.53376   0.00000  Uiso   1.00
C1021  C     0.58204   0.78523   0.97459   0.00000  Uiso   1.00
C1022  C     0.54065   0.97880   0.71748   0.00000  Uiso   1.00
C1023  C     0.45936   0.68789   0.78257   0.00000  Uiso   1.00
C1024  C     0.54000   0.68846   0.71917   0.00000  Uiso   1.00
Cl1025 Cl    0.59102   0.95321   0.67469   0.00000  Uiso   1.00
Cl1026 Cl    0.40905   0.71350   0.82543   0.00000  Uiso   1.00
Cl1027 Cl    0.64347   0.77492   0.68036   0.00000  Uiso   1.00
Cl1028 Cl    0.35644   0.89111   0.82028   0.00000  Uiso   1.00
H1029  H     0.36741   0.84168   0.55560   0.00000  Uiso   1.00
H1030  H     0.55901   0.77833   0.91887   0.00000  Uiso   1.00
H1031  H     0.57039   0.70564   0.69478   0.00000  Uiso   1.00
H1032  H     0.42958   0.96104   0.80522   0.00000  Uiso   1.00
H1033  H     0.39776   0.78822   0.69583   0.00000  Uiso   1.00
H1034  H     0.60225   0.87843   0.80420   0.00000  Uiso   1.00
H1035  H     0.61727   0.77109   0.95450   0.00000  Uiso   1.00
H1036  H     0.48287   0.85069   0.60915   0.00000  Uiso   1.00
H1037  H     0.51965   0.81104   0.88715   0.00000  Uiso   1.00
H1038  H     0.62039   0.80289   0.60256   0.00000  Uiso   1.00
H1039  H     0.37595   0.84820   0.90061   0.00000  Uiso   1.00
H1040  H     0.34895   0.84905   0.98564   0.00000  Uiso   1.00
H1041  H     0.64103   0.78057   0.52143   0.00000  Uiso   1.00
H1042  H     0.42493   0.83138   0.59157   0.00000  Uiso   1.00
N1043  N     0.38093   0.83334   0.75001   0.00000  Uiso   1.00
N1044  N     0.61907   0.83332   0.74999   0.00000  Uiso   1.00
O1045  O     0.46179   0.89442   0.75000   0.00000  Uiso   1.00
O1046  O     0.53821   0.77225   0.75000   0.00000  Uiso   1.00
O1047  O     0.53823   0.89441   0.75000   0.00000  Uiso   1.00
O1048  O     0.46177   0.77226   0.75000   0.00000  Uiso   1.00
O1049  O     0.43994   0.83334   0.81612   0.00000  Uiso   1.00
O1050  O     0.56006   0.83333   0.68388   0.00000  Uiso   1.00
O1051  O     0.51639   0.83333   0.81612   0.00000  Uiso   1.00
O1052  O     0.48361   0.83334   0.68388   0.00000  Uiso   1.00
Zn1053 Zn    0.44896   0.83334   0.75000   0.00000  Uiso   1.00
Zn1054 Zn    0.55104   0.83333   0.75000   0.00000  Uiso   1.00
C1055  C     0.83364   0.91323   0.74911   0.00000  Uiso   1.00
C1056  C     0.79331   0.97822   0.78085   0.00000  Uiso   1.00
C1057  C     0.83293   0.70932   0.75137   0.00000  Uiso   1.00
C1058  C     0.83373   0.95736   0.74866   0.00000  Uiso   1.00
C1059  C     0.98862   0.80816   0.71982   0.00000  Uiso   1.00
C1060  C     0.67803   0.85840   0.78030   0.00000  Uiso   1.00
C1061  C     0.70304   0.80827   0.71988   0.00000  Uiso   1.00
C1062  C     0.96364   0.85840   0.78013   0.00000  Uiso   1.00
C1063  C     0.80275   0.83269   0.83801   0.00000  Uiso   1.00
C1064  C     0.86388   0.83297   0.66195   0.00000  Uiso   1.00
C1065  C     0.78345   0.82956   0.88870   0.00000  Uiso   1.00
C1066  C     0.83303   0.75344   0.75090   0.00000  Uiso   1.00
C1067  C     0.88224   0.82683   0.61151   0.00000  Uiso   1.00
C1068  C     0.71943   0.83954   0.96470   0.00000  Uiso   1.00
C1069  C     0.93910   0.79504   0.54050   0.00000  Uiso   1.00
C1070  C     0.73479   0.83929   0.91631   0.00000  Uiso   1.00
C1071  C     0.92777   0.80832   0.58640   0.00000  Uiso   1.00
C1072  C     0.81564   0.81762   0.90952   0.00000  Uiso   1.00
C1073  C     0.84921   0.83325   0.59012   0.00000  Uiso   1.00
C1074  C     0.80110   0.81723   0.95790   0.00000  Uiso   1.00
C1075  C     0.85780   0.81673   0.54598   0.00000  Uiso   1.00
C1076  C     0.75251   0.82963   0.98565   0.00000  Uiso   1.00
C1077  C     0.77201   0.82817   0.55410   0.00000  Uiso   1.00
C1078  C     0.90437   0.79903   0.52013   0.00000  Uiso   1.00
C1079  C     0.83481   0.80823   0.97904   0.00000  Uiso   1.00
C1080  C     0.82144   0.81807   0.52683   0.00000  Uiso   1.00
C1081  C     0.88150   0.79023   0.95402   0.00000  Uiso   1.00
C1082  C     0.73803   0.83324   0.53376   0.00000  Uiso   1.00
C1083  C     0.91537   0.78523   0.97459   0.00000  Uiso   1.00
C1084  C     0.87398   0.97880   0.71748   0.00000  Uiso   1.00
C1085  C     0.79269   0.68789   0.78257   0.00000  Uiso   1.00
C1086  C     0.87333   0.68846   0.71917   0.00000  Uiso   1.00
Cl1087 Cl    0.92435   0.95321   0.67469   0.00000  Uiso   1.00
Cl1088 Cl    0.74238   0.71350   0.82543   0.00000  Uiso   1.00
Cl1089 Cl    0.97680   0.77492   0.68036   0.00000  Uiso   1.00
Cl1090 Cl    0.68977   0.89111   0.82028   0.00000  Uiso   1.00
H1091  H     0.70075   0.84168   0.55560   0.00000  Uiso   1.00
H1092  H     0.89235   0.77833   0.91887   0.00000  Uiso   1.00
H1093  H     0.90372   0.70564   0.69478   0.00000  Uiso   1.00
H1094  H     0.76291   0.96104   0.80522   0.00000  Uiso   1.00
H1095  H     0.73109   0.78822   0.69583   0.00000  Uiso   1.00
H1096  H     0.93559   0.87843   0.80420   0.00000  Uiso   1.00
H1097  H     0.95060   0.77109   0.95450   0.00000  Uiso   1.00
H1098  H     0.81620   0.85069   0.60915   0.00000  Uiso   1.00
H1099  H     0.85298   0.81104   0.88715   0.00000  Uiso   1.00
H1100  H     0.95372   0.80289   0.60256   0.00000  Uiso   1.00
H1101  H     0.70928   0.84820   0.90061   0.00000  Uiso   1.00
H1102  H     0.68229   0.84905   0.98564   0.00000  Uiso   1.00
H1103  H     0.97437   0.78057   0.52143   0.00000  Uiso   1.00
H1104  H     0.75826   0.83138   0.59157   0.00000  Uiso   1.00
N1105  N     0.71426   0.83334   0.75001   0.00000  Uiso   1.00
N1106  N     0.95241   0.83332   0.74999   0.00000  Uiso   1.00
O1107  O     0.79512   0.89442   0.75000   0.00000  Uiso   1.00
O1108  O     0.87154   0.77225   0.75000   0.00000  Uiso   1.00
O1109  O     0.87157   0.89441   0.75000   0.00000  Uiso   1.00
O1110  O     0.79510   0.77226   0.75000   0.00000  Uiso   1.00
O1111  O     0.77328   0.83334   0.81612   0.00000  Uiso   1.00
O1112  O     0.89339   0.83333   0.68388   0.00000  Uiso   1.00
O1113  O     0.84972   0.83333   0.81612   0.00000  Uiso   1.00
O1114  O     0.81695   0.83334   0.68388   0.00000  Uiso   1.00
Zn1115 Zn    0.78229   0.83334   0.75000   0.00000  Uiso   1.00
Zn1116 Zn    0.88438   0.83333   0.75000   0.00000  Uiso   1.00
loop_
_geom_bond_atom_site_label_1
_geom_bond_atom_site_label_2
_geom_bond_distance
_geom_bond_site_symmetry_2
_ccdc_geom_bond_type
C1     C4      1.410   .     S
C1     O55     1.282   .     A
C1     O53     1.284   .     A
C2     C4      1.394   .     A
C2     H40     1.084   .     S
C2     C217    1.374   .     S
C3     C31     1.401   .     A
C3     C32     1.394   .     A
C3     C12     1.409   .     S
C4     C30     1.401   .     A
C5     N52     1.373   .     A
C5     Cl35    1.751   .     S
C5     C69     1.416   .     S
C6     N51     1.373   .     A
C6     Cl36    1.752   .     S
C6     C132    1.417   1_455 S
C7     H41     1.082   .     S
C7     N51     1.363   .     A
C7     C129    1.416   1_455 S
C8     N52     1.363   .     A
C8     H42     1.082   .     S
C8     C68     1.417   .     S
C9     C11     1.459   .     S
C9     O57     1.296   .     A
C9     O59     1.295   .     A
C10    O60     1.294   .     A
C10    O58     1.298   .     A
C10    C13     1.459   .     S
C11    C16     1.399   .     A
C11    C18     1.395   .     A
C12    O56     1.282   .     A
C12    O54     1.284   .     A
C13    C17     1.399   .     A
C13    C19     1.392   .     A
C14    C22     1.404   .     A
C14    C16     1.393   .     A
C14    H48     1.083   .     S
C15    C24     1.405   .     A
C15    H49     1.084   .     S
C15    C17     1.395   .     A
C16    H47     1.083   .     S
C17    H46     1.081   .     S
C18    H45     1.076   .     S
C18    C20     1.395   .     A
C19    H44     1.079   .     S
C19    C21     1.394   .     A
C20    C22     1.419   .     A
C20    C25     1.419   .     A
C21    C26     1.417   .     A
C21    C24     1.416   .     A
C22    C586    1.391   .     S
C23    C28     1.388   .     A
C23    C26     1.417   .     A
C23    H50     1.079   .     S
C24    C587    1.391   1_554 S
C25    C27     1.418   .     A
C25    C584    1.414   .     S
C26    C583    1.414   1_554 S
C27    C29     1.390   .     A
C27    H38     1.078   .     S
C28    H37     1.084   .     S
C28    C580    1.391   1_554 S
C29    H43     1.084   .     S
C29    C582    1.391   .     S
C30    Cl33    1.765   .     S
C30    C218    1.374   .     S
C31    Cl34    1.765   .     S
C31    C374    1.374   1_545 S
C32    H39     1.084   .     S
C32    C402    1.374   1_545 S
N51    Zn61    2.016   .     S
N52    Zn62    2.016   .     S
O53    Zn61    1.989   .     S
O54    Zn62    1.989   .     S
O55    Zn62    1.985   .     S
O56    Zn61    1.985   .     S
O57    Zn61    1.966   .     S
O58    Zn62    1.966   .     S
O59    Zn62    1.912   .     S
O60    Zn61    1.912   .     S
C63    C66     1.410   .     S
C63    O117    1.282   .     A
C63    O115    1.284   .     A
C64    C66     1.394   .     A
C64    H102    1.084   .     S
C64    C279    1.374   .     S
C65    C93     1.401   .     A
C65    C94     1.394   .     A
C65    C74     1.409   .     S
C66    C92     1.401   .     A
C67    N114    1.373   .     A
C67    Cl97    1.751   .     S
C67    C131    1.416   .     S
C68    N113    1.373   .     A
C68    Cl98    1.752   .     S
C69    H103    1.082   .     S
C69    N113    1.363   .     A
C70    N114    1.363   .     A
C70    H104    1.082   .     S
C70    C130    1.417   .     S
C71    C73     1.459   .     S
C71    O119    1.296   .     A
C71    O121    1.295   .     A
C72    O122    1.294   .     A
C72    O120    1.298   .     A
C72    C75     1.459   .     S
C73    C78     1.399   .     A
C73    C80     1.395   .     A
C74    O118    1.282   .     A
C74    O116    1.284   .     A
C75    C79     1.399   .     A
C75    C81     1.392   .     A
C76    C84     1.404   .     A
C76    C78     1.393   .     A
C76    H110    1.083   .     S
C77    C86     1.405   .     A
C77    H111    1.084   .     S
C77    C79     1.395   .     A
C78    H109    1.083   .     S
C79    H108    1.081   .     S
C80    H107    1.076   .     S
C80    C82     1.395   .     A
C81    H106    1.079   .     S
C81    C83     1.394   .     A
C82    C84     1.419   .     A
C82    C87     1.419   .     A
C83    C88     1.417   .     A
C83    C86     1.416   .     A
C84    C648    1.391   .     S
C85    C90     1.388   .     A
C85    C88     1.417   .     A
C85    H112    1.079   .     S
C86    C649    1.391   1_554 S
C87    C89     1.418   .     A
C87    C646    1.414   .     S
C88    C645    1.414   1_554 S
C89    C91     1.390   .     A
C89    H100    1.078   .     S
C90    H99     1.084   .     S
C90    C642    1.391   1_554 S
C91    H105    1.084   .     S
C91    C644    1.391   .     S
C92    Cl95    1.765   .     S
C92    C280    1.374   .     S
C93    Cl96    1.765   .     S
C93    C436    1.374   1_545 S
C94    H101    1.084   .     S
C94    C464    1.374   1_545 S
N113   Zn123   2.016   .     S
N114   Zn124   2.016   .     S
O115   Zn123   1.989   .     S
O116   Zn124   1.989   .     S
O117   Zn124   1.985   .     S
O118   Zn123   1.985   .     S
O119   Zn123   1.966   .     S
O120   Zn124   1.966   .     S
O121   Zn124   1.912   .     S
O122   Zn123   1.912   .     S
C125   C128    1.410   .     S
C125   O179    1.282   .     A
C125   O177    1.284   .     A
C126   C128    1.394   .     A
C126   H164    1.084   .     S
C126   C341    1.374   .     S
C127   C155    1.401   .     A
C127   C156    1.394   .     A
C127   C136    1.409   .     S
C128   C154    1.401   .     A
C129   N176    1.373   .     A
C129   Cl159   1.751   .     S
C129   C7      1.416   1_655 S
C130   N175    1.373   .     A
C130   Cl160   1.752   .     S
C131   H165    1.082   .     S
C131   N175    1.363   .     A
C132   N176    1.363   .     A
C132   H166    1.082   .     S
C132   C6      1.417   1_655 S
C133   C135    1.459   .     S
C133   O181    1.296   .     A
C133   O183    1.295   .     A
C134   O184    1.294   .     A
C134   O182    1.298   .     A
C134   C137    1.459   .     S
C135   C140    1.399   .     A
C135   C142    1.395   .     A
C136   O180    1.282   .     A
C136   O178    1.284   .     A
C137   C141    1.399   .     A
C137   C143    1.392   .     A
C138   C146    1.404   .     A
C138   C140    1.393   .     A
C138   H172    1.083   .     S
C139   C148    1.405   .     A
C139   H173    1.084   .     S
C139   C141    1.395   .     A
C140   H171    1.083   .     S
C141   H170    1.081   .     S
C142   H169    1.076   .     S
C142   C144    1.395   .     A
C143   H168    1.079   .     S
C143   C145    1.394   .     A
C144   C146    1.419   .     A
C144   C149    1.419   .     A
C145   C150    1.417   .     A
C145   C148    1.416   .     A
C146   C710    1.391   .     S
C147   C152    1.388   .     A
C147   C150    1.417   .     A
C147   H174    1.079   .     S
C148   C711    1.391   1_554 S
C149   C151    1.418   .     A
C149   C708    1.414   .     S
C150   C707    1.414   1_554 S
C151   C153    1.390   .     A
C151   H162    1.078   .     S
C152   H161    1.084   .     S
C152   C704    1.391   1_554 S
C153   H167    1.084   .     S
C153   C706    1.391   .     S
C154   Cl157   1.765   .     S
C154   C342    1.374   .     S
C155   Cl158   1.765   .     S
C155   C498    1.374   1_545 S
C156   H163    1.084   .     S
C156   C526    1.374   1_545 S
N175   Zn185   2.016   .     S
N176   Zn186   2.016   .     S
O177   Zn185   1.989   .     S
O178   Zn186   1.989   .     S
O179   Zn186   1.985   .     S
O180   Zn185   1.985   .     S
O181   Zn185   1.966   .     S
O182   Zn186   1.966   .     S
O183   Zn186   1.912   .     S
O184   Zn185   1.912   .     S
C187   C190    1.410   .     S
C187   O241    1.282   .     A
C187   O239    1.284   .     A
C188   C190    1.394   .     A
C188   H226    1.084   .     S
C188   C403    1.374   .     S
C189   C217    1.401   .     A
C189   C218    1.394   .     A
C189   C198    1.409   .     S
C190   C216    1.401   .     A
C191   N238    1.373   .     A
C191   Cl221   1.751   .     S
C191   C255    1.416   .     S
C192   N237    1.373   .     A
C192   Cl222   1.752   .     S
C192   C318    1.417   1_455 S
C193   H227    1.082   .     S
C193   N237    1.363   .     A
C193   C315    1.416   1_455 S
C194   N238    1.363   .     A
C194   H228    1.082   .     S
C194   C254    1.417   .     S
C195   C197    1.459   .     S
C195   O243    1.296   .     A
C195   O245    1.295   .     A
C196   O246    1.294   .     A
C196   O244    1.298   .     A
C196   C199    1.459   .     S
C197   C202    1.399   .     A
C197   C204    1.395   .     A
C198   O242    1.282   .     A
C198   O240    1.284   .     A
C199   C203    1.399   .     A
C199   C205    1.392   .     A
C200   C208    1.404   .     A
C200   C202    1.393   .     A
C200   H234    1.083   .     S
C201   C210    1.405   .     A
C201   H235    1.084   .     S
C201   C203    1.395   .     A
C202   H233    1.083   .     S
C203   H232    1.081   .     S
C204   H231    1.076   .     S
C204   C206    1.395   .     A
C205   H230    1.079   .     S
C205   C207    1.394   .     A
C206   C208    1.419   .     A
C206   C211    1.419   .     A
C207   C212    1.417   .     A
C207   C210    1.416   .     A
C208   C772    1.391   .     S
C209   C214    1.388   .     A
C209   C212    1.417   .     A
C209   H236    1.079   .     S
C210   C773    1.391   1_554 S
C211   C213    1.418   .     A
C211   C770    1.414   .     S
C212   C769    1.414   1_554 S
C213   C215    1.390   .     A
C213   H224    1.078   .     S
C214   H223    1.084   .     S
C214   C766    1.391   1_554 S
C215   H229    1.084   .     S
C215   C768    1.391   .     S
C216   Cl219   1.765   .     S
C216   C404    1.374   .     S
C217   Cl220   1.765   .     S
C218   H225    1.084   .     S
N237   Zn247   2.016   .     S
N238   Zn248   2.016   .     S
O239   Zn247   1.989   .     S
O240   Zn248   1.989   .     S
O241   Zn248   1.985   .     S
O242   Zn247   1.985   .     S
O243   Zn247   1.966   .     S
O244   Zn248   1.966   .     S
O245   Zn248   1.912   .     S
O246   Zn247   1.912   .     S
C249   C252    1.410   .     S
C249   O303    1.282   .     A
C249   O301    1.284   .     A
C250   C252    1.394   .     A
C250   H288    1.084   .     S
C250   C465    1.374   .     S
C251   C279    1.401   .     A
C251   C280    1.394   .     A
C251   C260    1.409   .     S
C252   C278    1.401   .     A
C253   N300    1.373   .     A
C253   Cl283   1.751   .     S
C253   C317    1.416   .     S
C254   N299    1.373   .     A
C254   Cl284   1.752   .     S
C255   H289    1.082   .     S
C255   N299    1.363   .     A
C256   N300    1.363   .     A
C256   H290    1.082   .     S
C256   C316    1.417   .     S
C257   C259    1.459   .     S
C257   O305    1.296   .     A
C257   O307    1.295   .     A
C258   O308    1.294   .     A
C258   O306    1.298   .     A
C258   C261    1.459   .     S
C259   C264    1.399   .     A
C259   C266    1.395   .     A
C260   O304    1.282   .     A
C260   O302    1.284   .     A
C261   C265    1.399   .     A
C261   C267    1.392   .     A
C262   C270    1.404   .     A
C262   C264    1.393   .     A
C262   H296    1.083   .     S
C263   C272    1.405   .     A
C263   H297    1.084   .     S
C263   C265    1.395   .     A
C264   H295    1.083   .     S
C265   H294    1.081   .     S
C266   H293    1.076   .     S
C266   C268    1.395   .     A
C267   H292    1.079   .     S
C267   C269    1.394   .     A
C268   C270    1.419   .     A
C268   C273    1.419   .     A
C269   C274    1.417   .     A
C269   C272    1.416   .     A
C270   C834    1.391   .     S
C271   C276    1.388   .     A
C271   C274    1.417   .     A
C271   H298    1.079   .     S
C272   C835    1.391   1_554 S
C273   C275    1.418   .     A
C273   C832    1.414   .     S
C274   C831    1.414   1_554 S
C275   C277    1.390   .     A
C275   H286    1.078   .     S
C276   H285    1.084   .     S
C276   C828    1.391   1_554 S
C277   H291    1.084   .     S
C277   C830    1.391   .     S
C278   Cl281   1.765   .     S
C278   C466    1.374   .     S
C279   Cl282   1.765   .     S
C280   H287    1.084   .     S
N299   Zn309   2.016   .     S
N300   Zn310   2.016   .     S
O301   Zn309   1.989   .     S
O302   Zn310   1.989   .     S
O303   Zn310   1.985   .     S
O304   Zn309   1.985   .     S
O305   Zn309   1.966   .     S
O306   Zn310   1.966   .     S
O307   Zn310   1.912   .     S
O308   Zn309   1.912   .     S
C311   C314    1.410   .     S
C311   O365    1.282   .     A
C311   O363    1.284   .     A
C312   C314    1.394   .     A
C312   H350    1.084   .     S
C312   C527    1.374   .     S
C313   C341    1.401   .     A
C313   C342    1.394   .     A
C313   C322    1.409   .     S
C314   C340    1.401   .     A
C315   N362    1.373   .     A
C315   Cl345   1.751   .     S
C315   C193    1.416   1_655 S
C316   N361    1.373   .     A
C316   Cl346   1.752   .     S
C317   H351    1.082   .     S
C317   N361    1.363   .     A
C318   N362    1.363   .     A
C318   H352    1.082   .     S
C318   C192    1.417   1_655 S
C319   C321    1.459   .     S
C319   O367    1.296   .     A
C319   O369    1.295   .     A
C320   O370    1.294   .     A
C320   O368    1.298   .     A
C320   C323    1.459   .     S
C321   C326    1.399   .     A
C321   C328    1.395   .     A
C322   O366    1.282   .     A
C322   O364    1.284   .     A
C323   C327    1.399   .     A
C323   C329    1.392   .     A
C324   C332    1.404   .     A
C324   C326    1.393   .     A
C324   H358    1.083   .     S
C325   C334    1.405   .     A
C325   H359    1.084   .     S
C325   C327    1.395   .     A
C326   H357    1.083   .     S
C327   H356    1.081   .     S
C328   H355    1.076   .     S
C328   C330    1.395   .     A
C329   H354    1.079   .     S
C329   C331    1.394   .     A
C330   C332    1.419   .     A
C330   C335    1.419   .     A
C331   C336    1.417   .     A
C331   C334    1.416   .     A
C332   C896    1.391   .     S
C333   C338    1.388   .     A
C333   C336    1.417   .     A
C333   H360    1.079   .     S
C334   C897    1.391   1_554 S
C335   C337    1.418   .     A
C335   C894    1.414   .     S
C336   C893    1.414   1_554 S
C337   C339    1.390   .     A
C337   H348    1.078   .     S
C338   H347    1.084   .     S
C338   C890    1.391   1_554 S
C339   H353    1.084   .     S
C339   C892    1.391   .     S
C340   Cl343   1.765   .     S
C340   C528    1.374   .     S
C341   Cl344   1.765   .     S
C342   H349    1.084   .     S
N361   Zn371   2.016   .     S
N362   Zn372   2.016   .     S
O363   Zn371   1.989   .     S
O364   Zn372   1.989   .     S
O365   Zn372   1.985   .     S
O366   Zn371   1.985   .     S
O367   Zn371   1.966   .     S
O368   Zn372   1.966   .     S
O369   Zn372   1.912   .     S
O370   Zn371   1.912   .     S
C373   C376    1.410   .     S
C373   O427    1.282   .     A
C373   O425    1.284   .     A
C374   C376    1.394   .     A
C374   H412    1.084   .     S
C374   C31     1.374   1_565 S
C375   C403    1.401   .     A
C375   C404    1.394   .     A
C375   C384    1.409   .     S
C376   C402    1.401   .     A
C377   N424    1.373   .     A
C377   Cl407   1.751   .     S
C377   C441    1.416   .     S
C378   N423    1.373   .     A
C378   Cl408   1.752   .     S
C378   C504    1.417   1_455 S
C379   H413    1.082   .     S
C379   N423    1.363   .     A
C379   C501    1.416   1_455 S
C380   N424    1.363   .     A
C380   H414    1.082   .     S
C380   C440    1.417   .     S
C381   C383    1.459   .     S
C381   O429    1.296   .     A
C381   O431    1.295   .     A
C382   O432    1.294   .     A
C382   O430    1.298   .     A
C382   C385    1.459   .     S
C383   C388    1.399   .     A
C383   C390    1.395   .     A
C384   O428    1.282   .     A
C384   O426    1.284   .     A
C385   C389    1.399   .     A
C385   C391    1.392   .     A
C386   C394    1.404   .     A
C386   C388    1.393   .     A
C386   H420    1.083   .     S
C387   C396    1.405   .     A
C387   H421    1.084   .     S
C387   C389    1.395   .     A
C388   H419    1.083   .     S
C389   H418    1.081   .     S
C390   H417    1.076   .     S
C390   C392    1.395   .     A
C391   H416    1.079   .     S
C391   C393    1.394   .     A
C392   C394    1.419   .     A
C392   C397    1.419   .     A
C393   C398    1.417   .     A
C393   C396    1.416   .     A
C394   C958    1.391   .     S
C395   C400    1.388   .     A
C395   C398    1.417   .     A
C395   H422    1.079   .     S
C396   C959    1.391   1_554 S
C397   C399    1.418   .     A
C397   C956    1.414   .     S
C398   C955    1.414   1_554 S
C399   C401    1.390   .     A
C399   H410    1.078   .     S
C400   H409    1.084   .     S
C400   C952    1.391   1_554 S
C401   H415    1.084   .     S
C401   C954    1.391   .     S
C402   Cl405   1.765   .     S
C402   C32     1.374   1_565 S
C403   Cl406   1.765   .     S
C404   H411    1.084   .     S
N423   Zn433   2.016   .     S
N424   Zn434   2.016   .     S
O425   Zn433   1.989   .     S
O426   Zn434   1.989   .     S
O427   Zn434   1.985   .     S
O428   Zn433   1.985   .     S
O429   Zn433   1.966   .     S
O430   Zn434   1.966   .     S
O431   Zn434   1.912   .     S
O432   Zn433   1.912   .     S
C435   C438    1.410   .     S
C435   O489    1.282   .     A
C435   O487    1.284   .     A
C436   C438    1.394   .     A
C436   H474    1.084   .     S
C436   C93     1.374   1_565 S
C437   C465    1.401   .     A
C437   C466    1.394   .     A
C437   C446    1.409   .     S
C438   C464    1.401   .     A
C439   N486    1.373   .     A
C439   Cl469   1.751   .     S
C439   C503    1.416   .     S
C440   N485    1.373   .     A
C440   Cl470   1.752   .     S
C441   H475    1.082   .     S
C441   N485    1.363   .     A
C442   N486    1.363   .     A
C442   H476    1.082   .     S
C442   C502    1.417   .     S
C443   C445    1.459   .     S
C443   O491    1.296   .     A
C443   O493    1.295   .     A
C444   O494    1.294   .     A
C444   O492    1.298   .     A
C444   C447    1.459   .     S
C445   C450    1.399   .     A
C445   C452    1.395   .     A
C446   O490    1.282   .     A
C446   O488    1.284   .     A
C447   C451    1.399   .     A
C447   C453    1.392   .     A
C448   C456    1.404   .     A
C448   C450    1.393   .     A
C448   H482    1.083   .     S
C449   C458    1.405   .     A
C449   H483    1.084   .     S
C449   C451    1.395   .     A
C450   H481    1.083   .     S
C451   H480    1.081   .     S
C452   H479    1.076   .     S
C452   C454    1.395   .     A
C453   H478    1.079   .     S
C453   C455    1.394   .     A
C454   C456    1.419   .     A
C454   C459    1.419   .     A
C455   C460    1.417   .     A
C455   C458    1.416   .     A
C456   C1020   1.391   .     S
C457   C462    1.388   .     A
C457   C460    1.417   .     A
C457   H484    1.079   .     S
C458   C1021   1.391   1_554 S
C459   C461    1.418   .     A
C459   C1018   1.414   .     S
C460   C1017   1.414   1_554 S
C461   C463    1.390   .     A
C461   H472    1.078   .     S
C462   H471    1.084   .     S
C462   C1014   1.391   1_554 S
C463   H477    1.084   .     S
C463   C1016   1.391   .     S
C464   Cl467   1.765   .     S
C464   C94     1.374   1_565 S
C465   Cl468   1.765   .     S
C466   H473    1.084   .     S
N485   Zn495   2.016   .     S
N486   Zn496   2.016   .     S
O487   Zn495   1.989   .     S
O488   Zn496   1.989   .     S
O489   Zn496   1.985   .     S
O490   Zn495   1.985   .     S
O491   Zn495   1.966   .     S
O492   Zn496   1.966   .     S
O493   Zn496   1.912   .     S
O494   Zn495   1.912   .     S
C497   C500    1.410   .     S
C497   O551    1.282   .     A
C497   O549    1.284   .     A
C498   C500    1.394   .     A
C498   H536    1.084   .     S
C498   C155    1.374   1_565 S
C499   C527    1.401   .     A
C499   C528    1.394   .     A
C499   C508    1.409   .     S
C500   C526    1.401   .     A
C501   N548    1.373   .     A
C501   Cl531   1.751   .     S
C501   C379    1.416   1_655 S
C502   N547    1.373   .     A
C502   Cl532   1.752   .     S
C503   H537    1.082   .     S
C503   N547    1.363   .     A
C504   N548    1.363   .     A
C504   H538    1.082   .     S
C504   C378    1.417   1_655 S
C505   C507    1.459   .     S
C505   O553    1.296   .     A
C505   O555    1.295   .     A
C506   O556    1.294   .     A
C506   O554    1.298   .     A
C506   C509    1.459   .     S
C507   C512    1.399   .     A
C507   C514    1.395   .     A
C508   O552    1.282   .     A
C508   O550    1.284   .     A
C509   C513    1.399   .     A
C509   C515    1.392   .     A
C510   C518    1.404   .     A
C510   C512    1.393   .     A
C510   H544    1.083   .     S
C511   C520    1.405   .     A
C511   H545    1.084   .     S
C511   C513    1.395   .     A
C512   H543    1.083   .     S
C513   H542    1.081   .     S
C514   H541    1.076   .     S
C514   C516    1.395   .     A
C515   H540    1.079   .     S
C515   C517    1.394   .     A
C516   C518    1.419   .     A
C516   C521    1.419   .     A
C517   C522    1.417   .     A
C517   C520    1.416   .     A
C518   C1082   1.391   .     S
C519   C524    1.388   .     A
C519   C522    1.417   .     A
C519   H546    1.079   .     S
C520   C1083   1.391   1_554 S
C521   C523    1.418   .     A
C521   C1080   1.414   .     S
C522   C1079   1.414   1_554 S
C523   C525    1.390   .     A
C523   H534    1.078   .     S
C524   H533    1.084   .     S
C524   C1076   1.391   1_554 S
C525   H539    1.084   .     S
C525   C1078   1.391   .     S
C526   Cl529   1.765   .     S
C526   C156    1.374   1_565 S
C527   Cl530   1.765   .     S
C528   H535    1.084   .     S
N547   Zn557   2.016   .     S
N548   Zn558   2.016   .     S
O549   Zn557   1.989   .     S
O550   Zn558   1.989   .     S
O551   Zn558   1.985   .     S
O552   Zn557   1.985   .     S
O553   Zn557   1.966   .     S
O554   Zn558   1.966   .     S
O555   Zn558   1.912   .     S
O556   Zn557   1.912   .     S
C559   C562    1.410   .     S
C559   O613    1.282   .     A
C559   O611    1.284   .     A
C560   C562    1.394   .     A
C560   H598    1.084   .     S
C560   C775    1.374   .     S
C561   C589    1.401   .     A
C561   C590    1.394   .     A
C561   C570    1.409   .     S
C562   C588    1.401   .     A
C563   N610    1.373   .     A
C563   Cl593   1.751   .     S
C563   C627    1.416   .     S
C564   N609    1.373   .     A
C564   Cl594   1.752   .     S
C564   C690    1.417   1_455 S
C565   H599    1.082   .     S
C565   N609    1.363   .     A
C565   C687    1.416   1_455 S
C566   N610    1.363   .     A
C566   H600    1.082   .     S
C566   C626    1.417   .     S
C567   C569    1.459   .     S
C567   O615    1.296   .     A
C567   O617    1.295   .     A
C568   O618    1.294   .     A
C568   O616    1.298   .     A
C568   C571    1.459   .     S
C569   C574    1.399   .     A
C569   C576    1.395   .     A
C570   O614    1.282   .     A
C570   O612    1.284   .     A
C571   C575    1.399   .     A
C571   C577    1.392   .     A
C572   C580    1.404   .     A
C572   C574    1.393   .     A
C572   H606    1.083   .     S
C573   C582    1.405   .     A
C573   H607    1.084   .     S
C573   C575    1.395   .     A
C574   H605    1.083   .     S
C575   H604    1.081   .     S
C576   H603    1.076   .     S
C576   C578    1.395   .     A
C577   H602    1.079   .     S
C577   C579    1.394   .     A
C578   C580    1.419   .     A
C578   C583    1.419   .     A
C579   C584    1.417   .     A
C579   C582    1.416   .     A
C580   C28     1.391   1_556 S
C581   C586    1.388   .     A
C581   C584    1.417   .     A
C581   H608    1.079   .     S
C583   C585    1.418   .     A
C583   C26     1.414   1_556 S
C585   C587    1.390   .     A
C585   H596    1.078   .     S
C586   H595    1.084   .     S
C587   H601    1.084   .     S
C587   C24     1.391   1_556 S
C588   Cl591   1.765   .     S
C588   C776    1.374   .     S
C589   Cl592   1.765   .     S
C589   C932    1.374   1_545 S
C590   H597    1.084   .     S
C590   C960    1.374   1_545 S
N609   Zn619   2.016   .     S
N610   Zn620   2.016   .     S
O611   Zn619   1.989   .     S
O612   Zn620   1.989   .     S
O613   Zn620   1.985   .     S
O614   Zn619   1.985   .     S
O615   Zn619   1.966   .     S
O616   Zn620   1.966   .     S
O617   Zn620   1.912   .     S
O618   Zn619   1.912   .     S
C621   C624    1.410   .     S
C621   O675    1.282   .     A
C621   O673    1.284   .     A
C622   C624    1.394   .     A
C622   H660    1.084   .     S
C622   C837    1.374   .     S
C623   C651    1.401   .     A
C623   C652    1.394   .     A
C623   C632    1.409   .     S
C624   C650    1.401   .     A
C625   N672    1.373   .     A
C625   Cl655   1.751   .     S
C625   C689    1.416   .     S
C626   N671    1.373   .     A
C626   Cl656   1.752   .     S
C627   H661    1.082   .     S
C627   N671    1.363   .     A
C628   N672    1.363   .     A
C628   H662    1.082   .     S
C628   C688    1.417   .     S
C629   C631    1.459   .     S
C629   O677    1.296   .     A
C629   O679    1.295   .     A
C630   O680    1.294   .     A
C630   O678    1.298   .     A
C630   C633    1.459   .     S
C631   C636    1.399   .     A
C631   C638    1.395   .     A
C632   O676    1.282   .     A
C632   O674    1.284   .     A
C633   C637    1.399   .     A
C633   C639    1.392   .     A
C634   C642    1.404   .     A
C634   C636    1.393   .     A
C634   H668    1.083   .     S
C635   C644    1.405   .     A
C635   H669    1.084   .     S
C635   C637    1.395   .     A
C636   H667    1.083   .     S
C637   H666    1.081   .     S
C638   H665    1.076   .     S
C638   C640    1.395   .     A
C639   H664    1.079   .     S
C639   C641    1.394   .     A
C640   C642    1.419   .     A
C640   C645    1.419   .     A
C641   C646    1.417   .     A
C641   C644    1.416   .     A
C642   C90     1.391   1_556 S
C643   C648    1.388   .     A
C643   C646    1.417   .     A
C643   H670    1.079   .     S
C645   C647    1.418   .     A
C645   C88     1.414   1_556 S
C647   C649    1.390   .     A
C647   H658    1.078   .     S
C648   H657    1.084   .     S
C649   H663    1.084   .     S
C649   C86     1.391   1_556 S
C650   Cl653   1.765   .     S
C650   C838    1.374   .     S
C651   Cl654   1.765   .     S
C651   C994    1.374   1_545 S
C652   H659    1.084   .     S
C652   C1022   1.374   1_545 S
N671   Zn681   2.016   .     S
N672   Zn682   2.016   .     S
O673   Zn681   1.989   .     S
O674   Zn682   1.989   .     S
O675   Zn682   1.985   .     S
O676   Zn681   1.985   .     S
O677   Zn681   1.966   .     S
O678   Zn682   1.966   .     S
O679   Zn682   1.912   .     S
O680   Zn681   1.912   .     S
C683   C686    1.410   .     S
C683   O737    1.282   .     A
C683   O735    1.284   .     A
C684   C686    1.394   .     A
C684   H722    1.084   .     S
C684   C899    1.374   .     S
C685   C713    1.401   .     A
C685   C714    1.394   .     A
C685   C694    1.409   .     S
C686   C712    1.401   .     A
C687   N734    1.373   .     A
C687   Cl717   1.751   .     S
C687   C565    1.416   1_655 S
C688   N733    1.373   .     A
C688   Cl718   1.752   .     S
C689   H723    1.082   .     S
C689   N733    1.363   .     A
C690   N734    1.363   .     A
C690   H724    1.082   .     S
C690   C564    1.417   1_655 S
C691   C693    1.459   .     S
C691   O739    1.296   .     A
C691   O741    1.295   .     A
C692   O742    1.294   .     A
C692   O740    1.298   .     A
C692   C695    1.459   .     S
C693   C698    1.399   .     A
C693   C700    1.395   .     A
C694   O738    1.282   .     A
C694   O736    1.284   .     A
C695   C699    1.399   .     A
C695   C701    1.392   .     A
C696   C704    1.404   .     A
C696   C698    1.393   .     A
C696   H730    1.083   .     S
C697   C706    1.405   .     A
C697   H731    1.084   .     S
C697   C699    1.395   .     A
C698   H729    1.083   .     S
C699   H728    1.081   .     S
C700   H727    1.076   .     S
C700   C702    1.395   .     A
C701   H726    1.079   .     S
C701   C703    1.394   .     A
C702   C704    1.419   .     A
C702   C707    1.419   .     A
C703   C708    1.417   .     A
C703   C706    1.416   .     A
C704   C152    1.391   1_556 S
C705   C710    1.388   .     A
C705   C708    1.417   .     A
C705   H732    1.079   .     S
C707   C709    1.418   .     A
C707   C150    1.414   1_556 S
C709   C711    1.390   .     A
C709   H720    1.078   .     S
C710   H719    1.084   .     S
C711   H725    1.084   .     S
C711   C148    1.391   1_556 S
C712   Cl715   1.765   .     S
C712   C900    1.374   .     S
C713   Cl716   1.765   .     S
C713   C1056   1.374   1_545 S
C714   H721    1.084   .     S
C714   C1084   1.374   1_545 S
N733   Zn743   2.016   .     S
N734   Zn744   2.016   .     S
O735   Zn743   1.989   .     S
O736   Zn744   1.989   .     S
O737   Zn744   1.985   .     S
O738   Zn743   1.985   .     S
O739   Zn743   1.966   .     S
O740   Zn744   1.966   .     S
O741   Zn744   1.912   .     S
O742   Zn743   1.912   .     S
C745   C748    1.410   .     S
C745   O799    1.282   .     A
C745   O797    1.284   .     A
C746   C748    1.394   .     A
C746   H784    1.084   .     S
C746   C961    1.374   .     S
C747   C775    1.401   .     A
C747   C776    1.394   .     A
C747   C756    1.409   .     S
C748   C774    1.401   .     A
C749   N796    1.373   .     A
C749   Cl779   1.751   .     S
C749   C813    1.416   .     S
C750   N795    1.373   .     A
C750   Cl780   1.752   .     S
C750   C876    1.417   1_455 S
C751   H785    1.082   .     S
C751   N795    1.363   .     A
C751   C873    1.416   1_455 S
C752   N796    1.363   .     A
C752   H786    1.082   .     S
C752   C812    1.417   .     S
C753   C755    1.459   .     S
C753   O801    1.296   .     A
C753   O803    1.295   .     A
C754   O804    1.294   .     A
C754   O802    1.298   .     A
C754   C757    1.459   .     S
C755   C760    1.399   .     A
C755   C762    1.395   .     A
C756   O800    1.282   .     A
C756   O798    1.284   .     A
C757   C761    1.399   .     A
C757   C763    1.392   .     A
C758   C766    1.404   .     A
C758   C760    1.393   .     A
C758   H792    1.083   .     S
C759   C768    1.405   .     A
C759   H793    1.084   .     S
C759   C761    1.395   .     A
C760   H791    1.083   .     S
C761   H790    1.081   .     S
C762   H789    1.076   .     S
C762   C764    1.395   .     A
C763   H788    1.079   .     S
C763   C765    1.394   .     A
C764   C766    1.419   .     A
C764   C769    1.419   .     A
C765   C770    1.417   .     A
C765   C768    1.416   .     A
C766   C214    1.391   1_556 S
C767   C772    1.388   .     A
C767   C770    1.417   .     A
C767   H794    1.079   .     S
C769   C771    1.418   .     A
C769   C212    1.414   1_556 S
C771   C773    1.390   .     A
C771   H782    1.078   .     S
C772   H781    1.084   .     S
C773   H787    1.084   .     S
C773   C210    1.391   1_556 S
C774   Cl777   1.765   .     S
C774   C962    1.374   .     S
C775   Cl778   1.765   .     S
C776   H783    1.084   .     S
N795   Zn805   2.016   .     S
N796   Zn806   2.016   .     S
O797   Zn805   1.989   .     S
O798   Zn806   1.989   .     S
O799   Zn806   1.985   .     S
O800   Zn805   1.985   .     S
O801   Zn805   1.966   .     S
O802   Zn806   1.966   .     S
O803   Zn806   1.912   .     S
O804   Zn805   1.912   .     S
C807   C810    1.410   .     S
C807   O861    1.282   .     A
C807   O859    1.284   .     A
C808   C810    1.394   .     A
C808   H846    1.084   .     S
C808   C1023   1.374   .     S
C809   C837    1.401   .     A
C809   C838    1.394   .     A
C809   C818    1.409   .     S
C810   C836    1.401   .     A
C811   N858    1.373   .     A
C811   Cl841   1.751   .     S
C811   C875    1.416   .     S
C812   N857    1.373   .     A
C812   Cl842   1.752   .     S
C813   H847    1.082   .     S
C813   N857    1.363   .     A
C814   N858    1.363   .     A
C814   H848    1.082   .     S
C814   C874    1.417   .     S
C815   C817    1.459   .     S
C815   O863    1.296   .     A
C815   O865    1.295   .     A
C816   O866    1.294   .     A
C816   O864    1.298   .     A
C816   C819    1.459   .     S
C817   C822    1.399   .     A
C817   C824    1.395   .     A
C818   O862    1.282   .     A
C818   O860    1.284   .     A
C819   C823    1.399   .     A
C819   C825    1.392   .     A
C820   C828    1.404   .     A
C820   C822    1.393   .     A
C820   H854    1.083   .     S
C821   C830    1.405   .     A
C821   H855    1.084   .     S
C821   C823    1.395   .     A
C822   H853    1.083   .     S
C823   H852    1.081   .     S
C824   H851    1.076   .     S
C824   C826    1.395   .     A
C825   H850    1.079   .     S
C825   C827    1.394   .     A
C826   C828    1.419   .     A
C826   C831    1.419   .     A
C827   C832    1.417   .     A
C827   C830    1.416   .     A
C828   C276    1.391   1_556 S
C829   C834    1.388   .     A
C829   C832    1.417   .     A
C829   H856    1.079   .     S
C831   C833    1.418   .     A
C831   C274    1.414   1_556 S
C833   C835    1.390   .     A
C833   H844    1.078   .     S
C834   H843    1.084   .     S
C835   H849    1.084   .     S
C835   C272    1.391   1_556 S
C836   Cl839   1.765   .     S
C836   C1024   1.374   .     S
C837   Cl840   1.765   .     S
C838   H845    1.084   .     S
N857   Zn867   2.016   .     S
N858   Zn868   2.016   .     S
O859   Zn867   1.989   .     S
O860   Zn868   1.989   .     S
O861   Zn868   1.985   .     S
O862   Zn867   1.985   .     S
O863   Zn867   1.966   .     S
O864   Zn868   1.966   .     S
O865   Zn868   1.912   .     S
O866   Zn867   1.912   .     S
C869   C872    1.410   .     S
C869   O923    1.282   .     A
C869   O921    1.284   .     A
C870   C872    1.394   .     A
C870   H908    1.084   .     S
C870   C1085   1.374   .     S
C871   C899    1.401   .     A
C871   C900    1.394   .     A
C871   C880    1.409   .     S
C872   C898    1.401   .     A
C873   N920    1.373   .     A
C873   Cl903   1.751   .     S
C873   C751    1.416   1_655 S
C874   N919    1.373   .     A
C874   Cl904   1.752   .     S
C875   H909    1.082   .     S
C875   N919    1.363   .     A
C876   N920    1.363   .     A
C876   H910    1.082   .     S
C876   C750    1.417   1_655 S
C877   C879    1.459   .     S
C877   O925    1.296   .     A
C877   O927    1.295   .     A
C878   O928    1.294   .     A
C878   O926    1.298   .     A
C878   C881    1.459   .     S
C879   C884    1.399   .     A
C879   C886    1.395   .     A
C880   O924    1.282   .     A
C880   O922    1.284   .     A
C881   C885    1.399   .     A
C881   C887    1.392   .     A
C882   C890    1.404   .     A
C882   C884    1.393   .     A
C882   H916    1.083   .     S
C883   C892    1.405   .     A
C883   H917    1.084   .     S
C883   C885    1.395   .     A
C884   H915    1.083   .     S
C885   H914    1.081   .     S
C886   H913    1.076   .     S
C886   C888    1.395   .     A
C887   H912    1.079   .     S
C887   C889    1.394   .     A
C888   C890    1.419   .     A
C888   C893    1.419   .     A
C889   C894    1.417   .     A
C889   C892    1.416   .     A
C890   C338    1.391   1_556 S
C891   C896    1.388   .     A
C891   C894    1.417   .     A
C891   H918    1.079   .     S
C893   C895    1.418   .     A
C893   C336    1.414   1_556 S
C895   C897    1.390   .     A
C895   H906    1.078   .     S
C896   H905    1.084   .     S
C897   H911    1.084   .     S
C897   C334    1.391   1_556 S
C898   Cl901   1.765   .     S
C898   C1086   1.374   .     S
C899   Cl902   1.765   .     S
C900   H907    1.084   .     S
N919   Zn929   2.016   .     S
N920   Zn930   2.016   .     S
O921   Zn929   1.989   .     S
O922   Zn930   1.989   .     S
O923   Zn930   1.985   .     S
O924   Zn929   1.985   .     S
O925   Zn929   1.966   .     S
O926   Zn930   1.966   .     S
O927   Zn930   1.912   .     S
O928   Zn929   1.912   .     S
C931   C934    1.410   .     S
C931   O985    1.282   .     A
C931   O983    1.284   .     A
C932   C934    1.394   .     A
C932   H970    1.084   .     S
C932   C589    1.374   1_565 S
C933   C961    1.401   .     A
C933   C962    1.394   .     A
C933   C942    1.409   .     S
C934   C960    1.401   .     A
C935   N982    1.373   .     A
C935   Cl965   1.751   .     S
C935   C999    1.416   .     S
C936   N981    1.373   .     A
C936   Cl966   1.752   .     S
C936   C1062   1.417   1_455 S
C937   H971    1.082   .     S
C937   N981    1.363   .     A
C937   C1059   1.416   1_455 S
C938   N982    1.363   .     A
C938   H972    1.082   .     S
C938   C998    1.417   .     S
C939   C941    1.459   .     S
C939   O987    1.296   .     A
C939   O989    1.295   .     A
C940   O990    1.294   .     A
C940   O988    1.298   .     A
C940   C943    1.459   .     S
C941   C946    1.399   .     A
C941   C948    1.395   .     A
C942   O986    1.282   .     A
C942   O984    1.284   .     A
C943   C947    1.399   .     A
C943   C949    1.392   .     A
C944   C952    1.404   .     A
C944   C946    1.393   .     A
C944   H978    1.083   .     S
C945   C954    1.405   .     A
C945   H979    1.084   .     S
C945   C947    1.395   .     A
C946   H977    1.083   .     S
C947   H976    1.081   .     S
C948   H975    1.076   .     S
C948   C950    1.395   .     A
C949   H974    1.079   .     S
C949   C951    1.394   .     A
C950   C952    1.419   .     A
C950   C955    1.419   .     A
C951   C956    1.417   .     A
C951   C954    1.416   .     A
C952   C400    1.391   1_556 S
C953   C958    1.388   .     A
C953   C956    1.417   .     A
C953   H980    1.079   .     S
C955   C957    1.418   .     A
C955   C398    1.414   1_556 S
C957   C959    1.390   .     A
C957   H968    1.078   .     S
C958   H967    1.084   .     S
C959   H973    1.084   .     S
C959   C396    1.391   1_556 S
C960   Cl963   1.765   .     S
C960   C590    1.374   1_565 S
C961   Cl964   1.765   .     S
C962   H969    1.084   .     S
N981   Zn991   2.016   .     S
N982   Zn992   2.016   .     S
O983   Zn991   1.989   .     S
O984   Zn992   1.989   .     S
O985   Zn992   1.985   .     S
O986   Zn991   1.985   .     S
O987   Zn991   1.966   .     S
O988   Zn992   1.966   .     S
O989   Zn992   1.912   .     S
O990   Zn991   1.912   .     S
C993   C996    1.410   .     S
C993   O1047   1.282   .     A
C993   O1045   1.284   .     A
C994   C996    1.394   .     A
C994   H1032   1.084   .     S
C994   C651    1.374   1_565 S
C995   C1023   1.401   .     A
C995   C1024   1.394   .     A
C995   C1004   1.409   .     S
C996   C1022   1.401   .     A
C997   N1044   1.373   .     A
C997   Cl1027  1.751   .     S
C997   C1061   1.416   .     S
C998   N1043   1.373   .     A
C998   Cl1028  1.752   .     S
C999   H1033   1.082   .     S
C999   N1043   1.363   .     A
C1000  N1044   1.363   .     A
C1000  H1034   1.082   .     S
C1000  C1060   1.417   .     S
C1001  C1003   1.459   .     S
C1001  O1049   1.296   .     A
C1001  O1051   1.295   .     A
C1002  O1052   1.294   .     A
C1002  O1050   1.298   .     A
C1002  C1005   1.459   .     S
C1003  C1008   1.399   .     A
C1003  C1010   1.395   .     A
C1004  O1048   1.282   .     A
C1004  O1046   1.284   .     A
C1005  C1009   1.399   .     A
C1005  C1011   1.392   .     A
C1006  C1014   1.404   .     A
C1006  C1008   1.393   .     A
C1006  H1040   1.083   .     S
C1007  C1016   1.405   .     A
C1007  H1041   1.084   .     S
C1007  C1009   1.395   .     A
C1008  H1039   1.083   .     S
C1009  H1038   1.081   .     S
C1010  H1037   1.076   .     S
C1010  C1012   1.395   .     A
C1011  H1036   1.079   .     S
C1011  C1013   1.394   .     A
C1012  C1014   1.419   .     A
C1012  C1017   1.419   .     A
C1013  C1018   1.417   .     A
C1013  C1016   1.416   .     A
C1014  C462    1.391   1_556 S
C1015  C1020   1.388   .     A
C1015  C1018   1.417   .     A
C1015  H1042   1.079   .     S
C1017  C1019   1.418   .     A
C1017  C460    1.414   1_556 S
C1019  C1021   1.390   .     A
C1019  H1030   1.078   .     S
C1020  H1029   1.084   .     S
C1021  H1035   1.084   .     S
C1021  C458    1.391   1_556 S
C1022  Cl1025  1.765   .     S
C1022  C652    1.374   1_565 S
C1023  Cl1026  1.765   .     S
C1024  H1031   1.084   .     S
N1043  Zn1053  2.016   .     S
N1044  Zn1054  2.016   .     S
O1045  Zn1053  1.989   .     S
O1046  Zn1054  1.989   .     S
O1047  Zn1054  1.985   .     S
O1048  Zn1053  1.985   .     S
O1049  Zn1053  1.966   .     S
O1050  Zn1054  1.966   .     S
O1051  Zn1054  1.912   .     S
O1052  Zn1053  1.912   .     S
C1055  C1058   1.410   .     S
C1055  O1109   1.282   .     A
C1055  O1107   1.284   .     A
C1056  C1058   1.394   .     A
C1056  H1094   1.084   .     S
C1056  C713    1.374   1_565 S
C1057  C1085   1.401   .     A
C1057  C1086   1.394   .     A
C1057  C1066   1.409   .     S
C1058  C1084   1.401   .     A
C1059  N1106   1.373   .     A
C1059  Cl1089  1.751   .     S
C1059  C937    1.416   1_655 S
C1060  N1105   1.373   .     A
C1060  Cl1090  1.752   .     S
C1061  H1095   1.082   .     S
C1061  N1105   1.363   .     A
C1062  N1106   1.363   .     A
C1062  H1096   1.082   .     S
C1062  C936    1.417   1_655 S
C1063  C1065   1.459   .     S
C1063  O1111   1.296   .     A
C1063  O1113   1.295   .     A
C1064  O1114   1.294   .     A
C1064  O1112   1.298   .     A
C1064  C1067   1.459   .     S
C1065  C1070   1.399   .     A
C1065  C1072   1.395   .     A
C1066  O1110   1.282   .     A
C1066  O1108   1.284   .     A
C1067  C1071   1.399   .     A
C1067  C1073   1.392   .     A
C1068  C1076   1.404   .     A
C1068  C1070   1.393   .     A
C1068  H1102   1.083   .     S
C1069  C1078   1.405   .     A
C1069  H1103   1.084   .     S
C1069  C1071   1.395   .     A
C1070  H1101   1.083   .     S
C1071  H1100   1.081   .     S
C1072  H1099   1.076   .     S
C1072  C1074   1.395   .     A
C1073  H1098   1.079   .     S
C1073  C1075   1.394   .     A
C1074  C1076   1.419   .     A
C1074  C1079   1.419   .     A
C1075  C1080   1.417   .     A
C1075  C1078   1.416   .     A
C1076  C524    1.391   1_556 S
C1077  C1082   1.388   .     A
C1077  C1080   1.417   .     A
C1077  H1104   1.079   .     S
C1079  C1081   1.418   .     A
C1079  C522    1.414   1_556 S
C1081  C1083   1.390   .     A
C1081  H1092   1.078   .     S
C1082  H1091   1.084   .     S
C1083  H1097   1.084   .     S
C1083  C520    1.391   1_556 S
C1084  Cl1087  1.765   .     S
C1084  C714    1.374   1_565 S
C1085  Cl1088  1.765   .     S
C1086  H1093   1.084   .     S
N1105  Zn1115  2.016   .     S
N1106  Zn1116  2.016   .     S
O1107  Zn1115  1.989   .     S
O1108  Zn1116  1.989   .     S
O1109  Zn1116  1.985   .     S
O1110  Zn1115  1.985   .     S
O1111  Zn1115  1.966   .     S
O1112  Zn1116  1.966   .     S
O1113  Zn1116  1.912   .     S
O1114  Zn1115  1.912   .     S
