data_str_m2_o2_o10_pcu_sym.223
_audit_creation_date              2020-01-03
_audit_creation_method            'Materials Studio'
_symmetry_space_group_name_H-M    'P1'
_symmetry_Int_Tables_number       1
_symmetry_cell_setting            triclinic
loop_
_symmetry_equiv_pos_as_xyz
  x,y,z
_cell_length_a                    26.4756
_cell_length_b                    30.1822
_cell_length_c                    27.7932
_cell_angle_alpha                 91.0750
_cell_angle_beta                  98.7414
_cell_angle_gamma                 91.1095
loop_
_atom_site_label
_atom_site_type_symbol
_atom_site_fract_x
_atom_site_fract_y
_atom_site_fract_z
_atom_site_U_iso_or_equiv
_atom_site_adp_type
_atom_site_occupancy
C1     C     0.17044   0.16495   0.25018   0.00000  Uiso   1.00
C2     C     0.16748   0.33498   0.25043   0.00000  Uiso   1.00
C3     C     0.21278   0.26442   0.06255   0.00000  Uiso   1.00
C4     C     0.15941   0.20974   0.44385   0.00000  Uiso   1.00
C5     C     0.20834   0.26692   0.11222   0.00000  Uiso   1.00
C6     C     0.15378   0.21234   0.39281   0.00000  Uiso   1.00
C7     C     0.12703   0.23126   0.09726   0.00000  Uiso   1.00
C8     C     0.18362   0.28703   0.39871   0.00000  Uiso   1.00
C9     C     0.12660   0.23435   0.04596   0.00000  Uiso   1.00
C10    C     0.18209   0.28779   0.44984   0.00000  Uiso   1.00
C11    C     0.17140   0.24822   0.02795   0.00000  Uiso   1.00
C12    C     0.17245   0.24812   0.47352   0.00000  Uiso   1.00
C13    C     0.06793   0.24929   0.23773   0.00000  Uiso   1.00
C14    C     0.26535   0.24947   0.26250   0.00000  Uiso   1.00
C15    C     0.01319   0.24242   0.23251   0.00000  Uiso   1.00
C16    C     0.32026   0.25414   0.26918   0.00000  Uiso   1.00
C17    C     0.19844   0.04818   0.29445   0.00000  Uiso   1.00
C18    C     0.21737   0.45114   0.23740   0.00000  Uiso   1.00
C19    C     0.19930   0.09483   0.29344   0.00000  Uiso   1.00
C20    C     0.21418   0.40465   0.23698   0.00000  Uiso   1.00
C21    C     0.17732   0.11645   0.25046   0.00000  Uiso   1.00
C22    C     0.17105   0.38325   0.25133   0.00000  Uiso   1.00
C23    C     0.16290   0.09105   0.20712   0.00000  Uiso   1.00
C24    C     0.13140   0.40769   0.26672   0.00000  Uiso   1.00
C25    C     0.16201   0.04503   0.20875   0.00000  Uiso   1.00
C26    C     0.13458   0.45421   0.26524   0.00000  Uiso   1.00
C27    C     0.17880   0.02378   0.25202   0.00000  Uiso   1.00
C28    C     0.17722   0.47546   0.25153   0.00000  Uiso   1.00
Cu29   Cu    0.16667   0.24999   0.29821   0.00000  Uiso   1.00
Cu30   Cu    0.16667   0.25000   0.20178   0.00000  Uiso   1.00
H31    H     0.14877   0.02573   0.17579   0.00000  Uiso   1.00
H32    H     0.10410   0.47455   0.27451   0.00000  Uiso   1.00
H33    H     0.23959   0.28129   0.13751   0.00000  Uiso   1.00
H34    H     0.14143   0.18301   0.37109   0.00000  Uiso   1.00
N35    N     0.16667   0.25001   0.12934   0.00000  Uiso   1.00
N36    N     0.16667   0.24999   0.37065   0.00000  Uiso   1.00
O37    O     0.16667   0.18572   0.29071   0.00000  Uiso   1.00
O38    O     0.16666   0.31427   0.20928   0.00000  Uiso   1.00
O39    O     0.16667   0.18573   0.20928   0.00000  Uiso   1.00
O40    O     0.16666   0.31427   0.29072   0.00000  Uiso   1.00
O41    O     0.09161   0.24999   0.28132   0.00000  Uiso   1.00
O42    O     0.24172   0.25000   0.21868   0.00000  Uiso   1.00
O43    O     0.09161   0.25000   0.19988   0.00000  Uiso   1.00
O44    O     0.24172   0.25000   0.30011   0.00000  Uiso   1.00
I45    I     0.31552   0.20111   0.17110   0.00000  Uiso   1.00
I46    I     0.01760   0.28735   0.33693   0.00000  Uiso   1.00
I47    I     0.22682   0.01340   0.35918   0.00000  Uiso   1.00
I48    I     0.28226   0.48553   0.21721   0.00000  Uiso   1.00
I49    I     0.24231   0.13093   0.35388   0.00000  Uiso   1.00
I50    I     0.27553   0.36676   0.21677   0.00000  Uiso   1.00
O51    O     0.14940   0.11105   0.16285   0.00000  Uiso   1.00
C52    C     0.19148   0.10910   0.13715   0.00000  Uiso   1.00
H53    H     0.22736   0.12219   0.15950   0.00000  Uiso   1.00
H54    H     0.18408   0.13014   0.10471   0.00000  Uiso   1.00
H55    H     0.19685   0.07467   0.12420   0.00000  Uiso   1.00
O56    O     0.08940   0.38445   0.27948   0.00000  Uiso   1.00
C57    C     0.06399   0.40844   0.31243   0.00000  Uiso   1.00
H58    H     0.09119   0.42462   0.34241   0.00000  Uiso   1.00
H59    H     0.03961   0.38517   0.32952   0.00000  Uiso   1.00
H60    H     0.03813   0.43292   0.29283   0.00000  Uiso   1.00
I61    I     0.28471   0.28388   0.04518   0.00000  Uiso   1.00
I62    I     0.15183   0.14572   0.47290   0.00000  Uiso   1.00
O63    O     0.08609   0.21243   0.11581   0.00000  Uiso   1.00
C64    C     0.07201   0.16998   0.09496   0.00000  Uiso   1.00
H65    H     0.10225   0.15371   0.07767   0.00000  Uiso   1.00
H66    H     0.03676   0.17235   0.06793   0.00000  Uiso   1.00
H67    H     0.06287   0.14790   0.12403   0.00000  Uiso   1.00
O68    O     0.21014   0.32009   0.37824   0.00000  Uiso   1.00
C69    C     0.18829   0.36207   0.38258   0.00000  Uiso   1.00
H70    H     0.19757   0.38283   0.35256   0.00000  Uiso   1.00
H71    H     0.20622   0.37972   0.41636   0.00000  Uiso   1.00
H72    H     0.14589   0.36029   0.37973   0.00000  Uiso   1.00
O73    O     0.08330   0.22056   0.01428   0.00000  Uiso   1.00
C74    C     0.05889   0.25743   0.49142   0.00000  Uiso   1.00
H75    H     0.07673   0.26757   0.45972   0.00000  Uiso   1.00
H76    H     0.05790   0.28614   0.01698   0.00000  Uiso   1.00
H77    H     0.01901   0.24734   0.47661   0.00000  Uiso   1.00
O78    O     0.19477   0.32652   0.47677   0.00000  Uiso   1.00
C79    C     0.14983   0.34626   0.48786   0.00000  Uiso   1.00
H80    H     0.13804   0.33154   0.02078   0.00000  Uiso   1.00
H81    H     0.11754   0.34423   0.45702   0.00000  Uiso   1.00
H82    H     0.15828   0.38194   0.49634   0.00000  Uiso   1.00
C83    C     0.50378   0.16495   0.25018   0.00000  Uiso   1.00
C84    C     0.50082   0.33498   0.25043   0.00000  Uiso   1.00
C85    C     0.54611   0.26442   0.06255   0.00000  Uiso   1.00
C86    C     0.49274   0.20974   0.44385   0.00000  Uiso   1.00
C87    C     0.54167   0.26692   0.11222   0.00000  Uiso   1.00
C88    C     0.48711   0.21234   0.39281   0.00000  Uiso   1.00
C89    C     0.46036   0.23126   0.09726   0.00000  Uiso   1.00
C90    C     0.51695   0.28703   0.39871   0.00000  Uiso   1.00
C91    C     0.45993   0.23435   0.04596   0.00000  Uiso   1.00
C92    C     0.51542   0.28779   0.44984   0.00000  Uiso   1.00
C93    C     0.50473   0.24822   0.02795   0.00000  Uiso   1.00
C94    C     0.50578   0.24812   0.47352   0.00000  Uiso   1.00
C95    C     0.40126   0.24929   0.23773   0.00000  Uiso   1.00
C96    C     0.59868   0.24947   0.26250   0.00000  Uiso   1.00
C97    C     0.34653   0.24242   0.23251   0.00000  Uiso   1.00
C98    C     0.65360   0.25414   0.26918   0.00000  Uiso   1.00
C99    C     0.53177   0.04818   0.29445   0.00000  Uiso   1.00
C100   C     0.55070   0.45114   0.23740   0.00000  Uiso   1.00
C101   C     0.53264   0.09483   0.29344   0.00000  Uiso   1.00
C102   C     0.54751   0.40465   0.23698   0.00000  Uiso   1.00
C103   C     0.51065   0.11645   0.25046   0.00000  Uiso   1.00
C104   C     0.50438   0.38325   0.25133   0.00000  Uiso   1.00
C105   C     0.49624   0.09105   0.20712   0.00000  Uiso   1.00
C106   C     0.46473   0.40769   0.26672   0.00000  Uiso   1.00
C107   C     0.49534   0.04503   0.20875   0.00000  Uiso   1.00
C108   C     0.46791   0.45421   0.26524   0.00000  Uiso   1.00
C109   C     0.51214   0.02378   0.25202   0.00000  Uiso   1.00
C110   C     0.51056   0.47546   0.25153   0.00000  Uiso   1.00
Cu111  Cu    0.50000   0.24999   0.29821   0.00000  Uiso   1.00
Cu112  Cu    0.50000   0.25000   0.20178   0.00000  Uiso   1.00
H113   H     0.48211   0.02573   0.17579   0.00000  Uiso   1.00
H114   H     0.43744   0.47455   0.27451   0.00000  Uiso   1.00
H115   H     0.57293   0.28129   0.13751   0.00000  Uiso   1.00
H116   H     0.47476   0.18301   0.37109   0.00000  Uiso   1.00
N117   N     0.50000   0.25001   0.12934   0.00000  Uiso   1.00
N118   N     0.50000   0.24999   0.37065   0.00000  Uiso   1.00
O119   O     0.50000   0.18572   0.29071   0.00000  Uiso   1.00
O120   O     0.50000   0.31427   0.20928   0.00000  Uiso   1.00
O121   O     0.50000   0.18573   0.20928   0.00000  Uiso   1.00
O122   O     0.50000   0.31427   0.29072   0.00000  Uiso   1.00
O123   O     0.42495   0.24999   0.28132   0.00000  Uiso   1.00
O124   O     0.57505   0.25000   0.21868   0.00000  Uiso   1.00
O125   O     0.42495   0.25000   0.19988   0.00000  Uiso   1.00
O126   O     0.57505   0.25000   0.30011   0.00000  Uiso   1.00
I127   I     0.64885   0.20111   0.17110   0.00000  Uiso   1.00
I128   I     0.35093   0.28735   0.33693   0.00000  Uiso   1.00
I129   I     0.56015   0.01340   0.35918   0.00000  Uiso   1.00
I130   I     0.61560   0.48553   0.21721   0.00000  Uiso   1.00
I131   I     0.57564   0.13093   0.35388   0.00000  Uiso   1.00
I132   I     0.60886   0.36676   0.21677   0.00000  Uiso   1.00
O133   O     0.48274   0.11105   0.16285   0.00000  Uiso   1.00
C134   C     0.52481   0.10910   0.13715   0.00000  Uiso   1.00
H135   H     0.56070   0.12219   0.15950   0.00000  Uiso   1.00
H136   H     0.51741   0.13014   0.10471   0.00000  Uiso   1.00
H137   H     0.53018   0.07467   0.12420   0.00000  Uiso   1.00
O138   O     0.42273   0.38445   0.27948   0.00000  Uiso   1.00
C139   C     0.39732   0.40844   0.31243   0.00000  Uiso   1.00
H140   H     0.42452   0.42462   0.34241   0.00000  Uiso   1.00
H141   H     0.37294   0.38517   0.32952   0.00000  Uiso   1.00
H142   H     0.37146   0.43292   0.29283   0.00000  Uiso   1.00
I143   I     0.61804   0.28388   0.04518   0.00000  Uiso   1.00
I144   I     0.48517   0.14572   0.47290   0.00000  Uiso   1.00
O145   O     0.41942   0.21243   0.11581   0.00000  Uiso   1.00
C146   C     0.40534   0.16998   0.09496   0.00000  Uiso   1.00
H147   H     0.43559   0.15371   0.07767   0.00000  Uiso   1.00
H148   H     0.37009   0.17235   0.06793   0.00000  Uiso   1.00
H149   H     0.39621   0.14790   0.12403   0.00000  Uiso   1.00
O150   O     0.54347   0.32009   0.37824   0.00000  Uiso   1.00
C151   C     0.52162   0.36207   0.38258   0.00000  Uiso   1.00
H152   H     0.53091   0.38283   0.35256   0.00000  Uiso   1.00
H153   H     0.53955   0.37972   0.41636   0.00000  Uiso   1.00
H154   H     0.47922   0.36029   0.37973   0.00000  Uiso   1.00
O155   O     0.41664   0.22056   0.01428   0.00000  Uiso   1.00
C156   C     0.39222   0.25743   0.49142   0.00000  Uiso   1.00
H157   H     0.41006   0.26757   0.45972   0.00000  Uiso   1.00
H158   H     0.39123   0.28614   0.01698   0.00000  Uiso   1.00
H159   H     0.35234   0.24734   0.47661   0.00000  Uiso   1.00
O160   O     0.52810   0.32652   0.47677   0.00000  Uiso   1.00
C161   C     0.48316   0.34626   0.48786   0.00000  Uiso   1.00
H162   H     0.47137   0.33154   0.02078   0.00000  Uiso   1.00
H163   H     0.45088   0.34423   0.45702   0.00000  Uiso   1.00
H164   H     0.49162   0.38194   0.49634   0.00000  Uiso   1.00
C165   C     0.83711   0.16495   0.25018   0.00000  Uiso   1.00
C166   C     0.83415   0.33498   0.25043   0.00000  Uiso   1.00
C167   C     0.87945   0.26442   0.06255   0.00000  Uiso   1.00
C168   C     0.82608   0.20974   0.44385   0.00000  Uiso   1.00
C169   C     0.87500   0.26692   0.11222   0.00000  Uiso   1.00
C170   C     0.82045   0.21234   0.39281   0.00000  Uiso   1.00
C171   C     0.79369   0.23126   0.09726   0.00000  Uiso   1.00
C172   C     0.85028   0.28703   0.39871   0.00000  Uiso   1.00
C173   C     0.79326   0.23435   0.04596   0.00000  Uiso   1.00
C174   C     0.84876   0.28779   0.44984   0.00000  Uiso   1.00
C175   C     0.83806   0.24822   0.02795   0.00000  Uiso   1.00
C176   C     0.83911   0.24812   0.47352   0.00000  Uiso   1.00
C177   C     0.73459   0.24929   0.23773   0.00000  Uiso   1.00
C178   C     0.93202   0.24947   0.26250   0.00000  Uiso   1.00
C179   C     0.67986   0.24242   0.23251   0.00000  Uiso   1.00
C180   C     0.98693   0.25414   0.26918   0.00000  Uiso   1.00
C181   C     0.86511   0.04818   0.29445   0.00000  Uiso   1.00
C182   C     0.88404   0.45114   0.23740   0.00000  Uiso   1.00
C183   C     0.86597   0.09483   0.29344   0.00000  Uiso   1.00
C184   C     0.88084   0.40465   0.23698   0.00000  Uiso   1.00
C185   C     0.84399   0.11645   0.25046   0.00000  Uiso   1.00
C186   C     0.83772   0.38325   0.25133   0.00000  Uiso   1.00
C187   C     0.82957   0.09105   0.20712   0.00000  Uiso   1.00
C188   C     0.79807   0.40769   0.26672   0.00000  Uiso   1.00
C189   C     0.82867   0.04503   0.20875   0.00000  Uiso   1.00
C190   C     0.80125   0.45421   0.26524   0.00000  Uiso   1.00
C191   C     0.84547   0.02378   0.25202   0.00000  Uiso   1.00
C192   C     0.84389   0.47546   0.25153   0.00000  Uiso   1.00
Cu193  Cu    0.83333   0.24999   0.29821   0.00000  Uiso   1.00
Cu194  Cu    0.83333   0.25000   0.20178   0.00000  Uiso   1.00
H195   H     0.81544   0.02573   0.17579   0.00000  Uiso   1.00
H196   H     0.77077   0.47455   0.27451   0.00000  Uiso   1.00
H197   H     0.90626   0.28129   0.13751   0.00000  Uiso   1.00
H198   H     0.80809   0.18301   0.37109   0.00000  Uiso   1.00
N199   N     0.83333   0.25001   0.12934   0.00000  Uiso   1.00
N200   N     0.83333   0.24999   0.37065   0.00000  Uiso   1.00
O201   O     0.83334   0.18572   0.29071   0.00000  Uiso   1.00
O202   O     0.83333   0.31427   0.20928   0.00000  Uiso   1.00
O203   O     0.83334   0.18573   0.20928   0.00000  Uiso   1.00
O204   O     0.83333   0.31427   0.29072   0.00000  Uiso   1.00
O205   O     0.75828   0.24999   0.28132   0.00000  Uiso   1.00
O206   O     0.90839   0.25000   0.21868   0.00000  Uiso   1.00
O207   O     0.75828   0.25000   0.19988   0.00000  Uiso   1.00
O208   O     0.90839   0.25000   0.30011   0.00000  Uiso   1.00
I209   I     0.98218   0.20111   0.17110   0.00000  Uiso   1.00
I210   I     0.68426   0.28735   0.33693   0.00000  Uiso   1.00
I211   I     0.89349   0.01340   0.35918   0.00000  Uiso   1.00
I212   I     0.94893   0.48553   0.21721   0.00000  Uiso   1.00
I213   I     0.90898   0.13093   0.35388   0.00000  Uiso   1.00
I214   I     0.94219   0.36676   0.21677   0.00000  Uiso   1.00
O215   O     0.81607   0.11105   0.16285   0.00000  Uiso   1.00
C216   C     0.85814   0.10910   0.13715   0.00000  Uiso   1.00
H217   H     0.89403   0.12219   0.15950   0.00000  Uiso   1.00
H218   H     0.85074   0.13014   0.10471   0.00000  Uiso   1.00
H219   H     0.86351   0.07467   0.12420   0.00000  Uiso   1.00
O220   O     0.75606   0.38445   0.27948   0.00000  Uiso   1.00
C221   C     0.73066   0.40844   0.31243   0.00000  Uiso   1.00
H222   H     0.75786   0.42462   0.34241   0.00000  Uiso   1.00
H223   H     0.70628   0.38517   0.32952   0.00000  Uiso   1.00
H224   H     0.70480   0.43292   0.29283   0.00000  Uiso   1.00
I225   I     0.95137   0.28388   0.04518   0.00000  Uiso   1.00
I226   I     0.81850   0.14572   0.47290   0.00000  Uiso   1.00
O227   O     0.75275   0.21243   0.11581   0.00000  Uiso   1.00
C228   C     0.73868   0.16998   0.09496   0.00000  Uiso   1.00
H229   H     0.76892   0.15371   0.07767   0.00000  Uiso   1.00
H230   H     0.70342   0.17235   0.06793   0.00000  Uiso   1.00
H231   H     0.72954   0.14790   0.12403   0.00000  Uiso   1.00
O232   O     0.87680   0.32009   0.37824   0.00000  Uiso   1.00
C233   C     0.85496   0.36207   0.38258   0.00000  Uiso   1.00
H234   H     0.86424   0.38283   0.35256   0.00000  Uiso   1.00
H235   H     0.87288   0.37972   0.41636   0.00000  Uiso   1.00
H236   H     0.81255   0.36029   0.37973   0.00000  Uiso   1.00
O237   O     0.74997   0.22056   0.01428   0.00000  Uiso   1.00
C238   C     0.72556   0.25743   0.49142   0.00000  Uiso   1.00
H239   H     0.74340   0.26757   0.45972   0.00000  Uiso   1.00
H240   H     0.72457   0.28614   0.01698   0.00000  Uiso   1.00
H241   H     0.68567   0.24734   0.47661   0.00000  Uiso   1.00
O242   O     0.86143   0.32652   0.47677   0.00000  Uiso   1.00
C243   C     0.81649   0.34626   0.48786   0.00000  Uiso   1.00
H244   H     0.80470   0.33154   0.02078   0.00000  Uiso   1.00
H245   H     0.78421   0.34423   0.45702   0.00000  Uiso   1.00
H246   H     0.82495   0.38194   0.49634   0.00000  Uiso   1.00
C247   C     0.17044   0.66495   0.25018   0.00000  Uiso   1.00
C248   C     0.16748   0.83498   0.25043   0.00000  Uiso   1.00
C249   C     0.21278   0.76442   0.06255   0.00000  Uiso   1.00
C250   C     0.15941   0.70974   0.44385   0.00000  Uiso   1.00
C251   C     0.20834   0.76692   0.11222   0.00000  Uiso   1.00
C252   C     0.15378   0.71234   0.39281   0.00000  Uiso   1.00
C253   C     0.12703   0.73126   0.09726   0.00000  Uiso   1.00
C254   C     0.18362   0.78703   0.39871   0.00000  Uiso   1.00
C255   C     0.12660   0.73435   0.04596   0.00000  Uiso   1.00
C256   C     0.18209   0.78779   0.44984   0.00000  Uiso   1.00
C257   C     0.17140   0.74822   0.02795   0.00000  Uiso   1.00
C258   C     0.17245   0.74812   0.47352   0.00000  Uiso   1.00
C259   C     0.06793   0.74929   0.23773   0.00000  Uiso   1.00
C260   C     0.26535   0.74947   0.26250   0.00000  Uiso   1.00
C261   C     0.01319   0.74242   0.23251   0.00000  Uiso   1.00
C262   C     0.32026   0.75414   0.26918   0.00000  Uiso   1.00
C263   C     0.19844   0.54818   0.29445   0.00000  Uiso   1.00
C264   C     0.21737   0.95114   0.23740   0.00000  Uiso   1.00
C265   C     0.19930   0.59483   0.29344   0.00000  Uiso   1.00
C266   C     0.21418   0.90465   0.23698   0.00000  Uiso   1.00
C267   C     0.17732   0.61645   0.25046   0.00000  Uiso   1.00
C268   C     0.17105   0.88325   0.25133   0.00000  Uiso   1.00
C269   C     0.16290   0.59105   0.20712   0.00000  Uiso   1.00
C270   C     0.13140   0.90769   0.26672   0.00000  Uiso   1.00
C271   C     0.16201   0.54503   0.20875   0.00000  Uiso   1.00
C272   C     0.13458   0.95421   0.26524   0.00000  Uiso   1.00
C273   C     0.17880   0.52378   0.25202   0.00000  Uiso   1.00
C274   C     0.17722   0.97546   0.25153   0.00000  Uiso   1.00
Cu275  Cu    0.16667   0.74999   0.29821   0.00000  Uiso   1.00
Cu276  Cu    0.16667   0.75000   0.20178   0.00000  Uiso   1.00
H277   H     0.14877   0.52573   0.17579   0.00000  Uiso   1.00
H278   H     0.10410   0.97455   0.27451   0.00000  Uiso   1.00
H279   H     0.23959   0.78129   0.13751   0.00000  Uiso   1.00
H280   H     0.14143   0.68301   0.37109   0.00000  Uiso   1.00
N281   N     0.16667   0.75001   0.12934   0.00000  Uiso   1.00
N282   N     0.16667   0.74999   0.37065   0.00000  Uiso   1.00
O283   O     0.16667   0.68572   0.29071   0.00000  Uiso   1.00
O284   O     0.16666   0.81427   0.20928   0.00000  Uiso   1.00
O285   O     0.16667   0.68573   0.20928   0.00000  Uiso   1.00
O286   O     0.16666   0.81427   0.29072   0.00000  Uiso   1.00
O287   O     0.09161   0.74999   0.28132   0.00000  Uiso   1.00
O288   O     0.24172   0.75000   0.21868   0.00000  Uiso   1.00
O289   O     0.09161   0.75000   0.19988   0.00000  Uiso   1.00
O290   O     0.24172   0.75000   0.30011   0.00000  Uiso   1.00
I291   I     0.31552   0.70111   0.17110   0.00000  Uiso   1.00
I292   I     0.01760   0.78735   0.33693   0.00000  Uiso   1.00
I293   I     0.22682   0.51340   0.35918   0.00000  Uiso   1.00
I294   I     0.28226   0.98553   0.21721   0.00000  Uiso   1.00
I295   I     0.24231   0.63093   0.35388   0.00000  Uiso   1.00
I296   I     0.27553   0.86676   0.21677   0.00000  Uiso   1.00
O297   O     0.14940   0.61105   0.16285   0.00000  Uiso   1.00
C298   C     0.19148   0.60910   0.13715   0.00000  Uiso   1.00
H299   H     0.22736   0.62219   0.15950   0.00000  Uiso   1.00
H300   H     0.18408   0.63014   0.10471   0.00000  Uiso   1.00
H301   H     0.19685   0.57467   0.12420   0.00000  Uiso   1.00
O302   O     0.08940   0.88445   0.27948   0.00000  Uiso   1.00
C303   C     0.06399   0.90844   0.31243   0.00000  Uiso   1.00
H304   H     0.09119   0.92462   0.34241   0.00000  Uiso   1.00
H305   H     0.03961   0.88517   0.32952   0.00000  Uiso   1.00
H306   H     0.03813   0.93292   0.29283   0.00000  Uiso   1.00
I307   I     0.28471   0.78388   0.04518   0.00000  Uiso   1.00
I308   I     0.15183   0.64572   0.47290   0.00000  Uiso   1.00
O309   O     0.08609   0.71243   0.11581   0.00000  Uiso   1.00
C310   C     0.07201   0.66998   0.09496   0.00000  Uiso   1.00
H311   H     0.10225   0.65371   0.07767   0.00000  Uiso   1.00
H312   H     0.03676   0.67235   0.06793   0.00000  Uiso   1.00
H313   H     0.06287   0.64790   0.12403   0.00000  Uiso   1.00
O314   O     0.21014   0.82009   0.37824   0.00000  Uiso   1.00
C315   C     0.18829   0.86207   0.38258   0.00000  Uiso   1.00
H316   H     0.19757   0.88283   0.35256   0.00000  Uiso   1.00
H317   H     0.20622   0.87972   0.41636   0.00000  Uiso   1.00
H318   H     0.14589   0.86029   0.37973   0.00000  Uiso   1.00
O319   O     0.08330   0.72056   0.01428   0.00000  Uiso   1.00
C320   C     0.05889   0.75743   0.49142   0.00000  Uiso   1.00
H321   H     0.07673   0.76757   0.45972   0.00000  Uiso   1.00
H322   H     0.05790   0.78614   0.01698   0.00000  Uiso   1.00
H323   H     0.01901   0.74734   0.47661   0.00000  Uiso   1.00
O324   O     0.19477   0.82652   0.47677   0.00000  Uiso   1.00
C325   C     0.14983   0.84626   0.48786   0.00000  Uiso   1.00
H326   H     0.13804   0.83154   0.02078   0.00000  Uiso   1.00
H327   H     0.11754   0.84423   0.45702   0.00000  Uiso   1.00
H328   H     0.15828   0.88194   0.49634   0.00000  Uiso   1.00
C329   C     0.50378   0.66495   0.25018   0.00000  Uiso   1.00
C330   C     0.50082   0.83498   0.25043   0.00000  Uiso   1.00
C331   C     0.54611   0.76442   0.06255   0.00000  Uiso   1.00
C332   C     0.49274   0.70974   0.44385   0.00000  Uiso   1.00
C333   C     0.54167   0.76692   0.11222   0.00000  Uiso   1.00
C334   C     0.48711   0.71234   0.39281   0.00000  Uiso   1.00
C335   C     0.46036   0.73126   0.09726   0.00000  Uiso   1.00
C336   C     0.51695   0.78703   0.39871   0.00000  Uiso   1.00
C337   C     0.45993   0.73435   0.04596   0.00000  Uiso   1.00
C338   C     0.51542   0.78779   0.44984   0.00000  Uiso   1.00
C339   C     0.50473   0.74822   0.02795   0.00000  Uiso   1.00
C340   C     0.50578   0.74812   0.47352   0.00000  Uiso   1.00
C341   C     0.40126   0.74929   0.23773   0.00000  Uiso   1.00
C342   C     0.59868   0.74947   0.26250   0.00000  Uiso   1.00
C343   C     0.34653   0.74242   0.23251   0.00000  Uiso   1.00
C344   C     0.65360   0.75414   0.26918   0.00000  Uiso   1.00
C345   C     0.53177   0.54818   0.29445   0.00000  Uiso   1.00
C346   C     0.55070   0.95114   0.23740   0.00000  Uiso   1.00
C347   C     0.53264   0.59483   0.29344   0.00000  Uiso   1.00
C348   C     0.54751   0.90465   0.23698   0.00000  Uiso   1.00
C349   C     0.51065   0.61645   0.25046   0.00000  Uiso   1.00
C350   C     0.50438   0.88325   0.25133   0.00000  Uiso   1.00
C351   C     0.49624   0.59105   0.20712   0.00000  Uiso   1.00
C352   C     0.46473   0.90769   0.26672   0.00000  Uiso   1.00
C353   C     0.49534   0.54503   0.20875   0.00000  Uiso   1.00
C354   C     0.46791   0.95421   0.26524   0.00000  Uiso   1.00
C355   C     0.51214   0.52378   0.25202   0.00000  Uiso   1.00
C356   C     0.51056   0.97546   0.25153   0.00000  Uiso   1.00
Cu357  Cu    0.50000   0.74999   0.29821   0.00000  Uiso   1.00
Cu358  Cu    0.50000   0.75000   0.20178   0.00000  Uiso   1.00
H359   H     0.48211   0.52573   0.17579   0.00000  Uiso   1.00
H360   H     0.43744   0.97455   0.27451   0.00000  Uiso   1.00
H361   H     0.57293   0.78129   0.13751   0.00000  Uiso   1.00
H362   H     0.47476   0.68301   0.37109   0.00000  Uiso   1.00
N363   N     0.50000   0.75001   0.12934   0.00000  Uiso   1.00
N364   N     0.50000   0.74999   0.37065   0.00000  Uiso   1.00
O365   O     0.50000   0.68572   0.29071   0.00000  Uiso   1.00
O366   O     0.50000   0.81427   0.20928   0.00000  Uiso   1.00
O367   O     0.50000   0.68573   0.20928   0.00000  Uiso   1.00
O368   O     0.50000   0.81427   0.29072   0.00000  Uiso   1.00
O369   O     0.42495   0.74999   0.28132   0.00000  Uiso   1.00
O370   O     0.57505   0.75000   0.21868   0.00000  Uiso   1.00
O371   O     0.42495   0.75000   0.19988   0.00000  Uiso   1.00
O372   O     0.57505   0.75000   0.30011   0.00000  Uiso   1.00
I373   I     0.64885   0.70111   0.17110   0.00000  Uiso   1.00
I374   I     0.35093   0.78735   0.33693   0.00000  Uiso   1.00
I375   I     0.56015   0.51340   0.35918   0.00000  Uiso   1.00
I376   I     0.61560   0.98553   0.21721   0.00000  Uiso   1.00
I377   I     0.57564   0.63093   0.35388   0.00000  Uiso   1.00
I378   I     0.60886   0.86676   0.21677   0.00000  Uiso   1.00
O379   O     0.48274   0.61105   0.16285   0.00000  Uiso   1.00
C380   C     0.52481   0.60910   0.13715   0.00000  Uiso   1.00
H381   H     0.56070   0.62219   0.15950   0.00000  Uiso   1.00
H382   H     0.51741   0.63014   0.10471   0.00000  Uiso   1.00
H383   H     0.53018   0.57467   0.12420   0.00000  Uiso   1.00
O384   O     0.42273   0.88445   0.27948   0.00000  Uiso   1.00
C385   C     0.39732   0.90844   0.31243   0.00000  Uiso   1.00
H386   H     0.42452   0.92462   0.34241   0.00000  Uiso   1.00
H387   H     0.37294   0.88517   0.32952   0.00000  Uiso   1.00
H388   H     0.37146   0.93292   0.29283   0.00000  Uiso   1.00
I389   I     0.61804   0.78388   0.04518   0.00000  Uiso   1.00
I390   I     0.48517   0.64572   0.47290   0.00000  Uiso   1.00
O391   O     0.41942   0.71243   0.11581   0.00000  Uiso   1.00
C392   C     0.40534   0.66998   0.09496   0.00000  Uiso   1.00
H393   H     0.43559   0.65371   0.07767   0.00000  Uiso   1.00
H394   H     0.37009   0.67235   0.06793   0.00000  Uiso   1.00
H395   H     0.39621   0.64790   0.12403   0.00000  Uiso   1.00
O396   O     0.54347   0.82009   0.37824   0.00000  Uiso   1.00
C397   C     0.52162   0.86207   0.38258   0.00000  Uiso   1.00
H398   H     0.53091   0.88283   0.35256   0.00000  Uiso   1.00
H399   H     0.53955   0.87972   0.41636   0.00000  Uiso   1.00
H400   H     0.47922   0.86029   0.37973   0.00000  Uiso   1.00
O401   O     0.41664   0.72056   0.01428   0.00000  Uiso   1.00
C402   C     0.39222   0.75743   0.49142   0.00000  Uiso   1.00
H403   H     0.41006   0.76757   0.45972   0.00000  Uiso   1.00
H404   H     0.39123   0.78614   0.01698   0.00000  Uiso   1.00
H405   H     0.35234   0.74734   0.47661   0.00000  Uiso   1.00
O406   O     0.52810   0.82652   0.47677   0.00000  Uiso   1.00
C407   C     0.48316   0.84626   0.48786   0.00000  Uiso   1.00
H408   H     0.47137   0.83154   0.02078   0.00000  Uiso   1.00
H409   H     0.45088   0.84423   0.45702   0.00000  Uiso   1.00
H410   H     0.49162   0.88194   0.49634   0.00000  Uiso   1.00
C411   C     0.83711   0.66495   0.25018   0.00000  Uiso   1.00
C412   C     0.83415   0.83498   0.25043   0.00000  Uiso   1.00
C413   C     0.87945   0.76442   0.06255   0.00000  Uiso   1.00
C414   C     0.82608   0.70974   0.44385   0.00000  Uiso   1.00
C415   C     0.87500   0.76692   0.11222   0.00000  Uiso   1.00
C416   C     0.82045   0.71234   0.39281   0.00000  Uiso   1.00
C417   C     0.79369   0.73126   0.09726   0.00000  Uiso   1.00
C418   C     0.85028   0.78703   0.39871   0.00000  Uiso   1.00
C419   C     0.79326   0.73435   0.04596   0.00000  Uiso   1.00
C420   C     0.84876   0.78779   0.44984   0.00000  Uiso   1.00
C421   C     0.83806   0.74822   0.02795   0.00000  Uiso   1.00
C422   C     0.83911   0.74812   0.47352   0.00000  Uiso   1.00
C423   C     0.73459   0.74929   0.23773   0.00000  Uiso   1.00
C424   C     0.93202   0.74947   0.26250   0.00000  Uiso   1.00
C425   C     0.67986   0.74242   0.23251   0.00000  Uiso   1.00
C426   C     0.98693   0.75414   0.26918   0.00000  Uiso   1.00
C427   C     0.86511   0.54818   0.29445   0.00000  Uiso   1.00
C428   C     0.88404   0.95114   0.23740   0.00000  Uiso   1.00
C429   C     0.86597   0.59483   0.29344   0.00000  Uiso   1.00
C430   C     0.88084   0.90465   0.23698   0.00000  Uiso   1.00
C431   C     0.84399   0.61645   0.25046   0.00000  Uiso   1.00
C432   C     0.83772   0.88325   0.25133   0.00000  Uiso   1.00
C433   C     0.82957   0.59105   0.20712   0.00000  Uiso   1.00
C434   C     0.79807   0.90769   0.26672   0.00000  Uiso   1.00
C435   C     0.82867   0.54503   0.20875   0.00000  Uiso   1.00
C436   C     0.80125   0.95421   0.26524   0.00000  Uiso   1.00
C437   C     0.84547   0.52378   0.25202   0.00000  Uiso   1.00
C438   C     0.84389   0.97546   0.25153   0.00000  Uiso   1.00
Cu439  Cu    0.83333   0.74999   0.29821   0.00000  Uiso   1.00
Cu440  Cu    0.83333   0.75000   0.20178   0.00000  Uiso   1.00
H441   H     0.81544   0.52573   0.17579   0.00000  Uiso   1.00
H442   H     0.77077   0.97455   0.27451   0.00000  Uiso   1.00
H443   H     0.90626   0.78129   0.13751   0.00000  Uiso   1.00
H444   H     0.80809   0.68301   0.37109   0.00000  Uiso   1.00
N445   N     0.83333   0.75001   0.12934   0.00000  Uiso   1.00
N446   N     0.83333   0.74999   0.37065   0.00000  Uiso   1.00
O447   O     0.83334   0.68572   0.29071   0.00000  Uiso   1.00
O448   O     0.83333   0.81427   0.20928   0.00000  Uiso   1.00
O449   O     0.83334   0.68573   0.20928   0.00000  Uiso   1.00
O450   O     0.83333   0.81427   0.29072   0.00000  Uiso   1.00
O451   O     0.75828   0.74999   0.28132   0.00000  Uiso   1.00
O452   O     0.90839   0.75000   0.21868   0.00000  Uiso   1.00
O453   O     0.75828   0.75000   0.19988   0.00000  Uiso   1.00
O454   O     0.90839   0.75000   0.30011   0.00000  Uiso   1.00
I455   I     0.98218   0.70111   0.17110   0.00000  Uiso   1.00
I456   I     0.68426   0.78735   0.33693   0.00000  Uiso   1.00
I457   I     0.89349   0.51340   0.35918   0.00000  Uiso   1.00
I458   I     0.94893   0.98553   0.21721   0.00000  Uiso   1.00
I459   I     0.90898   0.63093   0.35388   0.00000  Uiso   1.00
I460   I     0.94219   0.86676   0.21677   0.00000  Uiso   1.00
O461   O     0.81607   0.61105   0.16285   0.00000  Uiso   1.00
C462   C     0.85814   0.60910   0.13715   0.00000  Uiso   1.00
H463   H     0.89403   0.62219   0.15950   0.00000  Uiso   1.00
H464   H     0.85074   0.63014   0.10471   0.00000  Uiso   1.00
H465   H     0.86351   0.57467   0.12420   0.00000  Uiso   1.00
O466   O     0.75606   0.88445   0.27948   0.00000  Uiso   1.00
C467   C     0.73066   0.90844   0.31243   0.00000  Uiso   1.00
H468   H     0.75786   0.92462   0.34241   0.00000  Uiso   1.00
H469   H     0.70628   0.88517   0.32952   0.00000  Uiso   1.00
H470   H     0.70480   0.93292   0.29283   0.00000  Uiso   1.00
I471   I     0.95137   0.78388   0.04518   0.00000  Uiso   1.00
I472   I     0.81850   0.64572   0.47290   0.00000  Uiso   1.00
O473   O     0.75275   0.71243   0.11581   0.00000  Uiso   1.00
C474   C     0.73868   0.66998   0.09496   0.00000  Uiso   1.00
H475   H     0.76892   0.65371   0.07767   0.00000  Uiso   1.00
H476   H     0.70342   0.67235   0.06793   0.00000  Uiso   1.00
H477   H     0.72954   0.64790   0.12403   0.00000  Uiso   1.00
O478   O     0.87680   0.82009   0.37824   0.00000  Uiso   1.00
C479   C     0.85496   0.86207   0.38258   0.00000  Uiso   1.00
H480   H     0.86424   0.88283   0.35256   0.00000  Uiso   1.00
H481   H     0.87288   0.87972   0.41636   0.00000  Uiso   1.00
H482   H     0.81255   0.86029   0.37973   0.00000  Uiso   1.00
O483   O     0.74997   0.72056   0.01428   0.00000  Uiso   1.00
C484   C     0.72556   0.75743   0.49142   0.00000  Uiso   1.00
H485   H     0.74340   0.76757   0.45972   0.00000  Uiso   1.00
H486   H     0.72457   0.78614   0.01698   0.00000  Uiso   1.00
H487   H     0.68567   0.74734   0.47661   0.00000  Uiso   1.00
O488   O     0.86143   0.82652   0.47677   0.00000  Uiso   1.00
C489   C     0.81649   0.84626   0.48786   0.00000  Uiso   1.00
H490   H     0.80470   0.83154   0.02078   0.00000  Uiso   1.00
H491   H     0.78421   0.84423   0.45702   0.00000  Uiso   1.00
H492   H     0.82495   0.88194   0.49634   0.00000  Uiso   1.00
C493   C     0.17044   0.16495   0.75018   0.00000  Uiso   1.00
C494   C     0.16748   0.33498   0.75043   0.00000  Uiso   1.00
C495   C     0.21278   0.26442   0.56255   0.00000  Uiso   1.00
C496   C     0.15941   0.20974   0.94385   0.00000  Uiso   1.00
C497   C     0.20834   0.26692   0.61222   0.00000  Uiso   1.00
C498   C     0.15378   0.21234   0.89281   0.00000  Uiso   1.00
C499   C     0.12703   0.23126   0.59726   0.00000  Uiso   1.00
C500   C     0.18362   0.28703   0.89871   0.00000  Uiso   1.00
C501   C     0.12660   0.23435   0.54596   0.00000  Uiso   1.00
C502   C     0.18209   0.28779   0.94984   0.00000  Uiso   1.00
C503   C     0.17140   0.24822   0.52795   0.00000  Uiso   1.00
C504   C     0.17245   0.24812   0.97352   0.00000  Uiso   1.00
C505   C     0.06793   0.24929   0.73773   0.00000  Uiso   1.00
C506   C     0.26535   0.24947   0.76250   0.00000  Uiso   1.00
C507   C     0.01319   0.24242   0.73251   0.00000  Uiso   1.00
C508   C     0.32026   0.25414   0.76918   0.00000  Uiso   1.00
C509   C     0.19844   0.04818   0.79445   0.00000  Uiso   1.00
C510   C     0.21737   0.45114   0.73740   0.00000  Uiso   1.00
C511   C     0.19930   0.09483   0.79344   0.00000  Uiso   1.00
C512   C     0.21418   0.40465   0.73698   0.00000  Uiso   1.00
C513   C     0.17732   0.11645   0.75046   0.00000  Uiso   1.00
C514   C     0.17105   0.38325   0.75133   0.00000  Uiso   1.00
C515   C     0.16290   0.09105   0.70712   0.00000  Uiso   1.00
C516   C     0.13140   0.40769   0.76672   0.00000  Uiso   1.00
C517   C     0.16201   0.04503   0.70875   0.00000  Uiso   1.00
C518   C     0.13458   0.45421   0.76524   0.00000  Uiso   1.00
C519   C     0.17880   0.02378   0.75202   0.00000  Uiso   1.00
C520   C     0.17722   0.47546   0.75153   0.00000  Uiso   1.00
Cu521  Cu    0.16667   0.24999   0.79821   0.00000  Uiso   1.00
Cu522  Cu    0.16667   0.25000   0.70178   0.00000  Uiso   1.00
H523   H     0.14877   0.02573   0.67579   0.00000  Uiso   1.00
H524   H     0.10410   0.47455   0.77451   0.00000  Uiso   1.00
H525   H     0.23959   0.28129   0.63751   0.00000  Uiso   1.00
H526   H     0.14143   0.18301   0.87109   0.00000  Uiso   1.00
N527   N     0.16667   0.25001   0.62934   0.00000  Uiso   1.00
N528   N     0.16667   0.24999   0.87065   0.00000  Uiso   1.00
O529   O     0.16667   0.18572   0.79071   0.00000  Uiso   1.00
O530   O     0.16666   0.31427   0.70928   0.00000  Uiso   1.00
O531   O     0.16667   0.18573   0.70928   0.00000  Uiso   1.00
O532   O     0.16666   0.31427   0.79072   0.00000  Uiso   1.00
O533   O     0.09161   0.24999   0.78132   0.00000  Uiso   1.00
O534   O     0.24172   0.25000   0.71868   0.00000  Uiso   1.00
O535   O     0.09161   0.25000   0.69988   0.00000  Uiso   1.00
O536   O     0.24172   0.25000   0.80011   0.00000  Uiso   1.00
I537   I     0.31552   0.20111   0.67110   0.00000  Uiso   1.00
I538   I     0.01760   0.28735   0.83693   0.00000  Uiso   1.00
I539   I     0.22682   0.01340   0.85918   0.00000  Uiso   1.00
I540   I     0.28226   0.48553   0.71721   0.00000  Uiso   1.00
I541   I     0.24231   0.13093   0.85388   0.00000  Uiso   1.00
I542   I     0.27553   0.36676   0.71677   0.00000  Uiso   1.00
O543   O     0.14940   0.11105   0.66285   0.00000  Uiso   1.00
C544   C     0.19148   0.10910   0.63715   0.00000  Uiso   1.00
H545   H     0.22736   0.12219   0.65950   0.00000  Uiso   1.00
H546   H     0.18408   0.13014   0.60471   0.00000  Uiso   1.00
H547   H     0.19685   0.07467   0.62420   0.00000  Uiso   1.00
O548   O     0.08940   0.38445   0.77948   0.00000  Uiso   1.00
C549   C     0.06399   0.40844   0.81243   0.00000  Uiso   1.00
H550   H     0.09119   0.42462   0.84241   0.00000  Uiso   1.00
H551   H     0.03961   0.38517   0.82952   0.00000  Uiso   1.00
H552   H     0.03813   0.43292   0.79283   0.00000  Uiso   1.00
I553   I     0.28471   0.28388   0.54518   0.00000  Uiso   1.00
I554   I     0.15183   0.14572   0.97290   0.00000  Uiso   1.00
O555   O     0.08609   0.21243   0.61581   0.00000  Uiso   1.00
C556   C     0.07201   0.16998   0.59496   0.00000  Uiso   1.00
H557   H     0.10225   0.15371   0.57767   0.00000  Uiso   1.00
H558   H     0.03676   0.17235   0.56793   0.00000  Uiso   1.00
H559   H     0.06287   0.14790   0.62403   0.00000  Uiso   1.00
O560   O     0.21014   0.32009   0.87824   0.00000  Uiso   1.00
C561   C     0.18829   0.36207   0.88258   0.00000  Uiso   1.00
H562   H     0.19757   0.38283   0.85256   0.00000  Uiso   1.00
H563   H     0.20622   0.37972   0.91636   0.00000  Uiso   1.00
H564   H     0.14589   0.36029   0.87973   0.00000  Uiso   1.00
O565   O     0.08330   0.22056   0.51428   0.00000  Uiso   1.00
C566   C     0.05889   0.25743   0.99142   0.00000  Uiso   1.00
H567   H     0.07673   0.26757   0.95972   0.00000  Uiso   1.00
H568   H     0.05790   0.28614   0.51698   0.00000  Uiso   1.00
H569   H     0.01901   0.24734   0.97661   0.00000  Uiso   1.00
O570   O     0.19477   0.32652   0.97677   0.00000  Uiso   1.00
C571   C     0.14983   0.34626   0.98786   0.00000  Uiso   1.00
H572   H     0.13804   0.33154   0.52078   0.00000  Uiso   1.00
H573   H     0.11754   0.34423   0.95702   0.00000  Uiso   1.00
H574   H     0.15828   0.38194   0.99634   0.00000  Uiso   1.00
C575   C     0.50378   0.16495   0.75018   0.00000  Uiso   1.00
C576   C     0.50082   0.33498   0.75043   0.00000  Uiso   1.00
C577   C     0.54611   0.26442   0.56255   0.00000  Uiso   1.00
C578   C     0.49274   0.20974   0.94385   0.00000  Uiso   1.00
C579   C     0.54167   0.26692   0.61222   0.00000  Uiso   1.00
C580   C     0.48711   0.21234   0.89281   0.00000  Uiso   1.00
C581   C     0.46036   0.23126   0.59726   0.00000  Uiso   1.00
C582   C     0.51695   0.28703   0.89871   0.00000  Uiso   1.00
C583   C     0.45993   0.23435   0.54596   0.00000  Uiso   1.00
C584   C     0.51542   0.28779   0.94984   0.00000  Uiso   1.00
C585   C     0.50473   0.24822   0.52795   0.00000  Uiso   1.00
C586   C     0.50578   0.24812   0.97352   0.00000  Uiso   1.00
C587   C     0.40126   0.24929   0.73773   0.00000  Uiso   1.00
C588   C     0.59868   0.24947   0.76250   0.00000  Uiso   1.00
C589   C     0.34653   0.24242   0.73251   0.00000  Uiso   1.00
C590   C     0.65360   0.25414   0.76918   0.00000  Uiso   1.00
C591   C     0.53177   0.04818   0.79445   0.00000  Uiso   1.00
C592   C     0.55070   0.45114   0.73740   0.00000  Uiso   1.00
C593   C     0.53264   0.09483   0.79344   0.00000  Uiso   1.00
C594   C     0.54751   0.40465   0.73698   0.00000  Uiso   1.00
C595   C     0.51065   0.11645   0.75046   0.00000  Uiso   1.00
C596   C     0.50438   0.38325   0.75133   0.00000  Uiso   1.00
C597   C     0.49624   0.09105   0.70712   0.00000  Uiso   1.00
C598   C     0.46473   0.40769   0.76672   0.00000  Uiso   1.00
C599   C     0.49534   0.04503   0.70875   0.00000  Uiso   1.00
C600   C     0.46791   0.45421   0.76524   0.00000  Uiso   1.00
C601   C     0.51214   0.02378   0.75202   0.00000  Uiso   1.00
C602   C     0.51056   0.47546   0.75153   0.00000  Uiso   1.00
Cu603  Cu    0.50000   0.24999   0.79821   0.00000  Uiso   1.00
Cu604  Cu    0.50000   0.25000   0.70178   0.00000  Uiso   1.00
H605   H     0.48211   0.02573   0.67579   0.00000  Uiso   1.00
H606   H     0.43744   0.47455   0.77451   0.00000  Uiso   1.00
H607   H     0.57293   0.28129   0.63751   0.00000  Uiso   1.00
H608   H     0.47476   0.18301   0.87109   0.00000  Uiso   1.00
N609   N     0.50000   0.25001   0.62934   0.00000  Uiso   1.00
N610   N     0.50000   0.24999   0.87065   0.00000  Uiso   1.00
O611   O     0.50000   0.18572   0.79071   0.00000  Uiso   1.00
O612   O     0.50000   0.31427   0.70928   0.00000  Uiso   1.00
O613   O     0.50000   0.18573   0.70928   0.00000  Uiso   1.00
O614   O     0.50000   0.31427   0.79072   0.00000  Uiso   1.00
O615   O     0.42495   0.24999   0.78132   0.00000  Uiso   1.00
O616   O     0.57505   0.25000   0.71868   0.00000  Uiso   1.00
O617   O     0.42495   0.25000   0.69988   0.00000  Uiso   1.00
O618   O     0.57505   0.25000   0.80011   0.00000  Uiso   1.00
I619   I     0.64885   0.20111   0.67110   0.00000  Uiso   1.00
I620   I     0.35093   0.28735   0.83693   0.00000  Uiso   1.00
I621   I     0.56015   0.01340   0.85918   0.00000  Uiso   1.00
I622   I     0.61560   0.48553   0.71721   0.00000  Uiso   1.00
I623   I     0.57564   0.13093   0.85388   0.00000  Uiso   1.00
I624   I     0.60886   0.36676   0.71677   0.00000  Uiso   1.00
O625   O     0.48274   0.11105   0.66285   0.00000  Uiso   1.00
C626   C     0.52481   0.10910   0.63715   0.00000  Uiso   1.00
H627   H     0.56070   0.12219   0.65950   0.00000  Uiso   1.00
H628   H     0.51741   0.13014   0.60471   0.00000  Uiso   1.00
H629   H     0.53018   0.07467   0.62420   0.00000  Uiso   1.00
O630   O     0.42273   0.38445   0.77948   0.00000  Uiso   1.00
C631   C     0.39732   0.40844   0.81243   0.00000  Uiso   1.00
H632   H     0.42452   0.42462   0.84241   0.00000  Uiso   1.00
H633   H     0.37294   0.38517   0.82952   0.00000  Uiso   1.00
H634   H     0.37146   0.43292   0.79283   0.00000  Uiso   1.00
I635   I     0.61804   0.28388   0.54518   0.00000  Uiso   1.00
I636   I     0.48517   0.14572   0.97290   0.00000  Uiso   1.00
O637   O     0.41942   0.21243   0.61581   0.00000  Uiso   1.00
C638   C     0.40534   0.16998   0.59496   0.00000  Uiso   1.00
H639   H     0.43559   0.15371   0.57767   0.00000  Uiso   1.00
H640   H     0.37009   0.17235   0.56793   0.00000  Uiso   1.00
H641   H     0.39621   0.14790   0.62403   0.00000  Uiso   1.00
O642   O     0.54347   0.32009   0.87824   0.00000  Uiso   1.00
C643   C     0.52162   0.36207   0.88258   0.00000  Uiso   1.00
H644   H     0.53091   0.38283   0.85256   0.00000  Uiso   1.00
H645   H     0.53955   0.37972   0.91636   0.00000  Uiso   1.00
H646   H     0.47922   0.36029   0.87973   0.00000  Uiso   1.00
O647   O     0.41664   0.22056   0.51428   0.00000  Uiso   1.00
C648   C     0.39222   0.25743   0.99142   0.00000  Uiso   1.00
H649   H     0.41006   0.26757   0.95972   0.00000  Uiso   1.00
H650   H     0.39123   0.28614   0.51698   0.00000  Uiso   1.00
H651   H     0.35234   0.24734   0.97661   0.00000  Uiso   1.00
O652   O     0.52810   0.32652   0.97677   0.00000  Uiso   1.00
C653   C     0.48316   0.34626   0.98786   0.00000  Uiso   1.00
H654   H     0.47137   0.33154   0.52078   0.00000  Uiso   1.00
H655   H     0.45088   0.34423   0.95702   0.00000  Uiso   1.00
H656   H     0.49162   0.38194   0.99634   0.00000  Uiso   1.00
C657   C     0.83711   0.16495   0.75018   0.00000  Uiso   1.00
C658   C     0.83415   0.33498   0.75043   0.00000  Uiso   1.00
C659   C     0.87945   0.26442   0.56255   0.00000  Uiso   1.00
C660   C     0.82608   0.20974   0.94385   0.00000  Uiso   1.00
C661   C     0.87500   0.26692   0.61222   0.00000  Uiso   1.00
C662   C     0.82045   0.21234   0.89281   0.00000  Uiso   1.00
C663   C     0.79369   0.23126   0.59726   0.00000  Uiso   1.00
C664   C     0.85028   0.28703   0.89871   0.00000  Uiso   1.00
C665   C     0.79326   0.23435   0.54596   0.00000  Uiso   1.00
C666   C     0.84876   0.28779   0.94984   0.00000  Uiso   1.00
C667   C     0.83806   0.24822   0.52795   0.00000  Uiso   1.00
C668   C     0.83911   0.24812   0.97352   0.00000  Uiso   1.00
C669   C     0.73459   0.24929   0.73773   0.00000  Uiso   1.00
C670   C     0.93202   0.24947   0.76250   0.00000  Uiso   1.00
C671   C     0.67986   0.24242   0.73251   0.00000  Uiso   1.00
C672   C     0.98693   0.25414   0.76918   0.00000  Uiso   1.00
C673   C     0.86511   0.04818   0.79445   0.00000  Uiso   1.00
C674   C     0.88404   0.45114   0.73740   0.00000  Uiso   1.00
C675   C     0.86597   0.09483   0.79344   0.00000  Uiso   1.00
C676   C     0.88084   0.40465   0.73698   0.00000  Uiso   1.00
C677   C     0.84399   0.11645   0.75046   0.00000  Uiso   1.00
C678   C     0.83772   0.38325   0.75133   0.00000  Uiso   1.00
C679   C     0.82957   0.09105   0.70712   0.00000  Uiso   1.00
C680   C     0.79807   0.40769   0.76672   0.00000  Uiso   1.00
C681   C     0.82867   0.04503   0.70875   0.00000  Uiso   1.00
C682   C     0.80125   0.45421   0.76524   0.00000  Uiso   1.00
C683   C     0.84547   0.02378   0.75202   0.00000  Uiso   1.00
C684   C     0.84389   0.47546   0.75153   0.00000  Uiso   1.00
Cu685  Cu    0.83333   0.24999   0.79821   0.00000  Uiso   1.00
Cu686  Cu    0.83333   0.25000   0.70178   0.00000  Uiso   1.00
H687   H     0.81544   0.02573   0.67579   0.00000  Uiso   1.00
H688   H     0.77077   0.47455   0.77451   0.00000  Uiso   1.00
H689   H     0.90626   0.28129   0.63751   0.00000  Uiso   1.00
H690   H     0.80809   0.18301   0.87109   0.00000  Uiso   1.00
N691   N     0.83333   0.25001   0.62934   0.00000  Uiso   1.00
N692   N     0.83333   0.24999   0.87065   0.00000  Uiso   1.00
O693   O     0.83334   0.18572   0.79071   0.00000  Uiso   1.00
O694   O     0.83333   0.31427   0.70928   0.00000  Uiso   1.00
O695   O     0.83334   0.18573   0.70928   0.00000  Uiso   1.00
O696   O     0.83333   0.31427   0.79072   0.00000  Uiso   1.00
O697   O     0.75828   0.24999   0.78132   0.00000  Uiso   1.00
O698   O     0.90839   0.25000   0.71868   0.00000  Uiso   1.00
O699   O     0.75828   0.25000   0.69988   0.00000  Uiso   1.00
O700   O     0.90839   0.25000   0.80011   0.00000  Uiso   1.00
I701   I     0.98218   0.20111   0.67110   0.00000  Uiso   1.00
I702   I     0.68426   0.28735   0.83693   0.00000  Uiso   1.00
I703   I     0.89349   0.01340   0.85918   0.00000  Uiso   1.00
I704   I     0.94893   0.48553   0.71721   0.00000  Uiso   1.00
I705   I     0.90898   0.13093   0.85388   0.00000  Uiso   1.00
I706   I     0.94219   0.36676   0.71677   0.00000  Uiso   1.00
O707   O     0.81607   0.11105   0.66285   0.00000  Uiso   1.00
C708   C     0.85814   0.10910   0.63715   0.00000  Uiso   1.00
H709   H     0.89403   0.12219   0.65950   0.00000  Uiso   1.00
H710   H     0.85074   0.13014   0.60471   0.00000  Uiso   1.00
H711   H     0.86351   0.07467   0.62420   0.00000  Uiso   1.00
O712   O     0.75606   0.38445   0.77948   0.00000  Uiso   1.00
C713   C     0.73066   0.40844   0.81243   0.00000  Uiso   1.00
H714   H     0.75786   0.42462   0.84241   0.00000  Uiso   1.00
H715   H     0.70628   0.38517   0.82952   0.00000  Uiso   1.00
H716   H     0.70480   0.43292   0.79283   0.00000  Uiso   1.00
I717   I     0.95137   0.28388   0.54518   0.00000  Uiso   1.00
I718   I     0.81850   0.14572   0.97290   0.00000  Uiso   1.00
O719   O     0.75275   0.21243   0.61581   0.00000  Uiso   1.00
C720   C     0.73868   0.16998   0.59496   0.00000  Uiso   1.00
H721   H     0.76892   0.15371   0.57767   0.00000  Uiso   1.00
H722   H     0.70342   0.17235   0.56793   0.00000  Uiso   1.00
H723   H     0.72954   0.14790   0.62403   0.00000  Uiso   1.00
O724   O     0.87680   0.32009   0.87824   0.00000  Uiso   1.00
C725   C     0.85496   0.36207   0.88258   0.00000  Uiso   1.00
H726   H     0.86424   0.38283   0.85256   0.00000  Uiso   1.00
H727   H     0.87288   0.37972   0.91636   0.00000  Uiso   1.00
H728   H     0.81255   0.36029   0.87973   0.00000  Uiso   1.00
O729   O     0.74997   0.22056   0.51428   0.00000  Uiso   1.00
C730   C     0.72556   0.25743   0.99142   0.00000  Uiso   1.00
H731   H     0.74340   0.26757   0.95972   0.00000  Uiso   1.00
H732   H     0.72457   0.28614   0.51698   0.00000  Uiso   1.00
H733   H     0.68567   0.24734   0.97661   0.00000  Uiso   1.00
O734   O     0.86143   0.32652   0.97677   0.00000  Uiso   1.00
C735   C     0.81649   0.34626   0.98786   0.00000  Uiso   1.00
H736   H     0.80470   0.33154   0.52078   0.00000  Uiso   1.00
H737   H     0.78421   0.34423   0.95702   0.00000  Uiso   1.00
H738   H     0.82495   0.38194   0.99634   0.00000  Uiso   1.00
C739   C     0.17044   0.66495   0.75018   0.00000  Uiso   1.00
C740   C     0.16748   0.83498   0.75043   0.00000  Uiso   1.00
C741   C     0.21278   0.76442   0.56255   0.00000  Uiso   1.00
C742   C     0.15941   0.70974   0.94385   0.00000  Uiso   1.00
C743   C     0.20834   0.76692   0.61222   0.00000  Uiso   1.00
C744   C     0.15378   0.71234   0.89281   0.00000  Uiso   1.00
C745   C     0.12703   0.73126   0.59726   0.00000  Uiso   1.00
C746   C     0.18362   0.78703   0.89871   0.00000  Uiso   1.00
C747   C     0.12660   0.73435   0.54596   0.00000  Uiso   1.00
C748   C     0.18209   0.78779   0.94984   0.00000  Uiso   1.00
C749   C     0.17140   0.74822   0.52795   0.00000  Uiso   1.00
C750   C     0.17245   0.74812   0.97352   0.00000  Uiso   1.00
C751   C     0.06793   0.74929   0.73773   0.00000  Uiso   1.00
C752   C     0.26535   0.74947   0.76250   0.00000  Uiso   1.00
C753   C     0.01319   0.74242   0.73251   0.00000  Uiso   1.00
C754   C     0.32026   0.75414   0.76918   0.00000  Uiso   1.00
C755   C     0.19844   0.54818   0.79445   0.00000  Uiso   1.00
C756   C     0.21737   0.95114   0.73740   0.00000  Uiso   1.00
C757   C     0.19930   0.59483   0.79344   0.00000  Uiso   1.00
C758   C     0.21418   0.90465   0.73698   0.00000  Uiso   1.00
C759   C     0.17732   0.61645   0.75046   0.00000  Uiso   1.00
C760   C     0.17105   0.88325   0.75133   0.00000  Uiso   1.00
C761   C     0.16290   0.59105   0.70712   0.00000  Uiso   1.00
C762   C     0.13140   0.90769   0.76672   0.00000  Uiso   1.00
C763   C     0.16201   0.54503   0.70875   0.00000  Uiso   1.00
C764   C     0.13458   0.95421   0.76524   0.00000  Uiso   1.00
C765   C     0.17880   0.52378   0.75202   0.00000  Uiso   1.00
C766   C     0.17722   0.97546   0.75153   0.00000  Uiso   1.00
Cu767  Cu    0.16667   0.74999   0.79821   0.00000  Uiso   1.00
Cu768  Cu    0.16667   0.75000   0.70178   0.00000  Uiso   1.00
H769   H     0.14877   0.52573   0.67579   0.00000  Uiso   1.00
H770   H     0.10410   0.97455   0.77451   0.00000  Uiso   1.00
H771   H     0.23959   0.78129   0.63751   0.00000  Uiso   1.00
H772   H     0.14143   0.68301   0.87109   0.00000  Uiso   1.00
N773   N     0.16667   0.75001   0.62934   0.00000  Uiso   1.00
N774   N     0.16667   0.74999   0.87065   0.00000  Uiso   1.00
O775   O     0.16667   0.68572   0.79071   0.00000  Uiso   1.00
O776   O     0.16666   0.81427   0.70928   0.00000  Uiso   1.00
O777   O     0.16667   0.68573   0.70928   0.00000  Uiso   1.00
O778   O     0.16666   0.81427   0.79072   0.00000  Uiso   1.00
O779   O     0.09161   0.74999   0.78132   0.00000  Uiso   1.00
O780   O     0.24172   0.75000   0.71868   0.00000  Uiso   1.00
O781   O     0.09161   0.75000   0.69988   0.00000  Uiso   1.00
O782   O     0.24172   0.75000   0.80011   0.00000  Uiso   1.00
I783   I     0.31552   0.70111   0.67110   0.00000  Uiso   1.00
I784   I     0.01760   0.78735   0.83693   0.00000  Uiso   1.00
I785   I     0.22682   0.51340   0.85918   0.00000  Uiso   1.00
I786   I     0.28226   0.98553   0.71721   0.00000  Uiso   1.00
I787   I     0.24231   0.63093   0.85388   0.00000  Uiso   1.00
I788   I     0.27553   0.86676   0.71677   0.00000  Uiso   1.00
O789   O     0.14940   0.61105   0.66285   0.00000  Uiso   1.00
C790   C     0.19148   0.60910   0.63715   0.00000  Uiso   1.00
H791   H     0.22736   0.62219   0.65950   0.00000  Uiso   1.00
H792   H     0.18408   0.63014   0.60471   0.00000  Uiso   1.00
H793   H     0.19685   0.57467   0.62420   0.00000  Uiso   1.00
O794   O     0.08940   0.88445   0.77948   0.00000  Uiso   1.00
C795   C     0.06399   0.90844   0.81243   0.00000  Uiso   1.00
H796   H     0.09119   0.92462   0.84241   0.00000  Uiso   1.00
H797   H     0.03961   0.88517   0.82952   0.00000  Uiso   1.00
H798   H     0.03813   0.93292   0.79283   0.00000  Uiso   1.00
I799   I     0.28471   0.78388   0.54518   0.00000  Uiso   1.00
I800   I     0.15183   0.64572   0.97290   0.00000  Uiso   1.00
O801   O     0.08609   0.71243   0.61581   0.00000  Uiso   1.00
C802   C     0.07201   0.66998   0.59496   0.00000  Uiso   1.00
H803   H     0.10225   0.65371   0.57767   0.00000  Uiso   1.00
H804   H     0.03676   0.67235   0.56793   0.00000  Uiso   1.00
H805   H     0.06287   0.64790   0.62403   0.00000  Uiso   1.00
O806   O     0.21014   0.82009   0.87824   0.00000  Uiso   1.00
C807   C     0.18829   0.86207   0.88258   0.00000  Uiso   1.00
H808   H     0.19757   0.88283   0.85256   0.00000  Uiso   1.00
H809   H     0.20622   0.87972   0.91636   0.00000  Uiso   1.00
H810   H     0.14589   0.86029   0.87973   0.00000  Uiso   1.00
O811   O     0.08330   0.72056   0.51428   0.00000  Uiso   1.00
C812   C     0.05889   0.75743   0.99142   0.00000  Uiso   1.00
H813   H     0.07673   0.76757   0.95972   0.00000  Uiso   1.00
H814   H     0.05790   0.78614   0.51698   0.00000  Uiso   1.00
H815   H     0.01901   0.74734   0.97661   0.00000  Uiso   1.00
O816   O     0.19477   0.82652   0.97677   0.00000  Uiso   1.00
C817   C     0.14983   0.84626   0.98786   0.00000  Uiso   1.00
H818   H     0.13804   0.83154   0.52078   0.00000  Uiso   1.00
H819   H     0.11754   0.84423   0.95702   0.00000  Uiso   1.00
H820   H     0.15828   0.88194   0.99634   0.00000  Uiso   1.00
C821   C     0.50378   0.66495   0.75018   0.00000  Uiso   1.00
C822   C     0.50082   0.83498   0.75043   0.00000  Uiso   1.00
C823   C     0.54611   0.76442   0.56255   0.00000  Uiso   1.00
C824   C     0.49274   0.70974   0.94385   0.00000  Uiso   1.00
C825   C     0.54167   0.76692   0.61222   0.00000  Uiso   1.00
C826   C     0.48711   0.71234   0.89281   0.00000  Uiso   1.00
C827   C     0.46036   0.73126   0.59726   0.00000  Uiso   1.00
C828   C     0.51695   0.78703   0.89871   0.00000  Uiso   1.00
C829   C     0.45993   0.73435   0.54596   0.00000  Uiso   1.00
C830   C     0.51542   0.78779   0.94984   0.00000  Uiso   1.00
C831   C     0.50473   0.74822   0.52795   0.00000  Uiso   1.00
C832   C     0.50578   0.74812   0.97352   0.00000  Uiso   1.00
C833   C     0.40126   0.74929   0.73773   0.00000  Uiso   1.00
C834   C     0.59868   0.74947   0.76250   0.00000  Uiso   1.00
C835   C     0.34653   0.74242   0.73251   0.00000  Uiso   1.00
C836   C     0.65360   0.75414   0.76918   0.00000  Uiso   1.00
C837   C     0.53177   0.54818   0.79445   0.00000  Uiso   1.00
C838   C     0.55070   0.95114   0.73740   0.00000  Uiso   1.00
C839   C     0.53264   0.59483   0.79344   0.00000  Uiso   1.00
C840   C     0.54751   0.90465   0.73698   0.00000  Uiso   1.00
C841   C     0.51065   0.61645   0.75046   0.00000  Uiso   1.00
C842   C     0.50438   0.88325   0.75133   0.00000  Uiso   1.00
C843   C     0.49624   0.59105   0.70712   0.00000  Uiso   1.00
C844   C     0.46473   0.90769   0.76672   0.00000  Uiso   1.00
C845   C     0.49534   0.54503   0.70875   0.00000  Uiso   1.00
C846   C     0.46791   0.95421   0.76524   0.00000  Uiso   1.00
C847   C     0.51214   0.52378   0.75202   0.00000  Uiso   1.00
C848   C     0.51056   0.97546   0.75153   0.00000  Uiso   1.00
Cu849  Cu    0.50000   0.74999   0.79821   0.00000  Uiso   1.00
Cu850  Cu    0.50000   0.75000   0.70178   0.00000  Uiso   1.00
H851   H     0.48211   0.52573   0.67579   0.00000  Uiso   1.00
H852   H     0.43744   0.97455   0.77451   0.00000  Uiso   1.00
H853   H     0.57293   0.78129   0.63751   0.00000  Uiso   1.00
H854   H     0.47476   0.68301   0.87109   0.00000  Uiso   1.00
N855   N     0.50000   0.75001   0.62934   0.00000  Uiso   1.00
N856   N     0.50000   0.74999   0.87065   0.00000  Uiso   1.00
O857   O     0.50000   0.68572   0.79071   0.00000  Uiso   1.00
O858   O     0.50000   0.81427   0.70928   0.00000  Uiso   1.00
O859   O     0.50000   0.68573   0.70928   0.00000  Uiso   1.00
O860   O     0.50000   0.81427   0.79072   0.00000  Uiso   1.00
O861   O     0.42495   0.74999   0.78132   0.00000  Uiso   1.00
O862   O     0.57505   0.75000   0.71868   0.00000  Uiso   1.00
O863   O     0.42495   0.75000   0.69988   0.00000  Uiso   1.00
O864   O     0.57505   0.75000   0.80011   0.00000  Uiso   1.00
I865   I     0.64885   0.70111   0.67110   0.00000  Uiso   1.00
I866   I     0.35093   0.78735   0.83693   0.00000  Uiso   1.00
I867   I     0.56015   0.51340   0.85918   0.00000  Uiso   1.00
I868   I     0.61560   0.98553   0.71721   0.00000  Uiso   1.00
I869   I     0.57564   0.63093   0.85388   0.00000  Uiso   1.00
I870   I     0.60886   0.86676   0.71677   0.00000  Uiso   1.00
O871   O     0.48274   0.61105   0.66285   0.00000  Uiso   1.00
C872   C     0.52481   0.60910   0.63715   0.00000  Uiso   1.00
H873   H     0.56070   0.62219   0.65950   0.00000  Uiso   1.00
H874   H     0.51741   0.63014   0.60471   0.00000  Uiso   1.00
H875   H     0.53018   0.57467   0.62420   0.00000  Uiso   1.00
O876   O     0.42273   0.88445   0.77948   0.00000  Uiso   1.00
C877   C     0.39732   0.90844   0.81243   0.00000  Uiso   1.00
H878   H     0.42452   0.92462   0.84241   0.00000  Uiso   1.00
H879   H     0.37294   0.88517   0.82952   0.00000  Uiso   1.00
H880   H     0.37146   0.93292   0.79283   0.00000  Uiso   1.00
I881   I     0.61804   0.78388   0.54518   0.00000  Uiso   1.00
I882   I     0.48517   0.64572   0.97290   0.00000  Uiso   1.00
O883   O     0.41942   0.71243   0.61581   0.00000  Uiso   1.00
C884   C     0.40534   0.66998   0.59496   0.00000  Uiso   1.00
H885   H     0.43559   0.65371   0.57767   0.00000  Uiso   1.00
H886   H     0.37009   0.67235   0.56793   0.00000  Uiso   1.00
H887   H     0.39621   0.64790   0.62403   0.00000  Uiso   1.00
O888   O     0.54347   0.82009   0.87824   0.00000  Uiso   1.00
C889   C     0.52162   0.86207   0.88258   0.00000  Uiso   1.00
H890   H     0.53091   0.88283   0.85256   0.00000  Uiso   1.00
H891   H     0.53955   0.87972   0.91636   0.00000  Uiso   1.00
H892   H     0.47922   0.86029   0.87973   0.00000  Uiso   1.00
O893   O     0.41664   0.72056   0.51428   0.00000  Uiso   1.00
C894   C     0.39222   0.75743   0.99142   0.00000  Uiso   1.00
H895   H     0.41006   0.76757   0.95972   0.00000  Uiso   1.00
H896   H     0.39123   0.78614   0.51698   0.00000  Uiso   1.00
H897   H     0.35234   0.74734   0.97661   0.00000  Uiso   1.00
O898   O     0.52810   0.82652   0.97677   0.00000  Uiso   1.00
C899   C     0.48316   0.84626   0.98786   0.00000  Uiso   1.00
H900   H     0.47137   0.83154   0.52078   0.00000  Uiso   1.00
H901   H     0.45088   0.84423   0.95702   0.00000  Uiso   1.00
H902   H     0.49162   0.88194   0.99634   0.00000  Uiso   1.00
C903   C     0.83711   0.66495   0.75018   0.00000  Uiso   1.00
C904   C     0.83415   0.83498   0.75043   0.00000  Uiso   1.00
C905   C     0.87945   0.76442   0.56255   0.00000  Uiso   1.00
C906   C     0.82608   0.70974   0.94385   0.00000  Uiso   1.00
C907   C     0.87500   0.76692   0.61222   0.00000  Uiso   1.00
C908   C     0.82045   0.71234   0.89281   0.00000  Uiso   1.00
C909   C     0.79369   0.73126   0.59726   0.00000  Uiso   1.00
C910   C     0.85028   0.78703   0.89871   0.00000  Uiso   1.00
C911   C     0.79326   0.73435   0.54596   0.00000  Uiso   1.00
C912   C     0.84876   0.78779   0.94984   0.00000  Uiso   1.00
C913   C     0.83806   0.74822   0.52795   0.00000  Uiso   1.00
C914   C     0.83911   0.74812   0.97352   0.00000  Uiso   1.00
C915   C     0.73459   0.74929   0.73773   0.00000  Uiso   1.00
C916   C     0.93202   0.74947   0.76250   0.00000  Uiso   1.00
C917   C     0.67986   0.74242   0.73251   0.00000  Uiso   1.00
C918   C     0.98693   0.75414   0.76918   0.00000  Uiso   1.00
C919   C     0.86511   0.54818   0.79445   0.00000  Uiso   1.00
C920   C     0.88404   0.95114   0.73740   0.00000  Uiso   1.00
C921   C     0.86597   0.59483   0.79344   0.00000  Uiso   1.00
C922   C     0.88084   0.90465   0.73698   0.00000  Uiso   1.00
C923   C     0.84399   0.61645   0.75046   0.00000  Uiso   1.00
C924   C     0.83772   0.88325   0.75133   0.00000  Uiso   1.00
C925   C     0.82957   0.59105   0.70712   0.00000  Uiso   1.00
C926   C     0.79807   0.90769   0.76672   0.00000  Uiso   1.00
C927   C     0.82867   0.54503   0.70875   0.00000  Uiso   1.00
C928   C     0.80125   0.95421   0.76524   0.00000  Uiso   1.00
C929   C     0.84547   0.52378   0.75202   0.00000  Uiso   1.00
C930   C     0.84389   0.97546   0.75153   0.00000  Uiso   1.00
Cu931  Cu    0.83333   0.74999   0.79821   0.00000  Uiso   1.00
Cu932  Cu    0.83333   0.75000   0.70178   0.00000  Uiso   1.00
H933   H     0.81544   0.52573   0.67579   0.00000  Uiso   1.00
H934   H     0.77077   0.97455   0.77451   0.00000  Uiso   1.00
H935   H     0.90626   0.78129   0.63751   0.00000  Uiso   1.00
H936   H     0.80809   0.68301   0.87109   0.00000  Uiso   1.00
N937   N     0.83333   0.75001   0.62934   0.00000  Uiso   1.00
N938   N     0.83333   0.74999   0.87065   0.00000  Uiso   1.00
O939   O     0.83334   0.68572   0.79071   0.00000  Uiso   1.00
O940   O     0.83333   0.81427   0.70928   0.00000  Uiso   1.00
O941   O     0.83334   0.68573   0.70928   0.00000  Uiso   1.00
O942   O     0.83333   0.81427   0.79072   0.00000  Uiso   1.00
O943   O     0.75828   0.74999   0.78132   0.00000  Uiso   1.00
O944   O     0.90839   0.75000   0.71868   0.00000  Uiso   1.00
O945   O     0.75828   0.75000   0.69988   0.00000  Uiso   1.00
O946   O     0.90839   0.75000   0.80011   0.00000  Uiso   1.00
I947   I     0.98218   0.70111   0.67110   0.00000  Uiso   1.00
I948   I     0.68426   0.78735   0.83693   0.00000  Uiso   1.00
I949   I     0.89349   0.51340   0.85918   0.00000  Uiso   1.00
I950   I     0.94893   0.98553   0.71721   0.00000  Uiso   1.00
I951   I     0.90898   0.63093   0.85388   0.00000  Uiso   1.00
I952   I     0.94219   0.86676   0.71677   0.00000  Uiso   1.00
O953   O     0.81607   0.61105   0.66285   0.00000  Uiso   1.00
C954   C     0.85814   0.60910   0.63715   0.00000  Uiso   1.00
H955   H     0.89403   0.62219   0.65950   0.00000  Uiso   1.00
H956   H     0.85074   0.63014   0.60471   0.00000  Uiso   1.00
H957   H     0.86351   0.57467   0.62420   0.00000  Uiso   1.00
O958   O     0.75606   0.88445   0.77948   0.00000  Uiso   1.00
C959   C     0.73066   0.90844   0.81243   0.00000  Uiso   1.00
H960   H     0.75786   0.92462   0.84241   0.00000  Uiso   1.00
H961   H     0.70628   0.88517   0.82952   0.00000  Uiso   1.00
H962   H     0.70480   0.93292   0.79283   0.00000  Uiso   1.00
I963   I     0.95137   0.78388   0.54518   0.00000  Uiso   1.00
I964   I     0.81850   0.64572   0.97290   0.00000  Uiso   1.00
O965   O     0.75275   0.71243   0.61581   0.00000  Uiso   1.00
C966   C     0.73868   0.66998   0.59496   0.00000  Uiso   1.00
H967   H     0.76892   0.65371   0.57767   0.00000  Uiso   1.00
H968   H     0.70342   0.67235   0.56793   0.00000  Uiso   1.00
H969   H     0.72954   0.64790   0.62403   0.00000  Uiso   1.00
O970   O     0.87680   0.82009   0.87824   0.00000  Uiso   1.00
C971   C     0.85496   0.86207   0.88258   0.00000  Uiso   1.00
H972   H     0.86424   0.88283   0.85256   0.00000  Uiso   1.00
H973   H     0.87288   0.87972   0.91636   0.00000  Uiso   1.00
H974   H     0.81255   0.86029   0.87973   0.00000  Uiso   1.00
O975   O     0.74997   0.72056   0.51428   0.00000  Uiso   1.00
C976   C     0.72556   0.75743   0.99142   0.00000  Uiso   1.00
H977   H     0.74340   0.76757   0.95972   0.00000  Uiso   1.00
H978   H     0.72457   0.78614   0.51698   0.00000  Uiso   1.00
H979   H     0.68567   0.74734   0.97661   0.00000  Uiso   1.00
O980   O     0.86143   0.82652   0.97677   0.00000  Uiso   1.00
C981   C     0.81649   0.84626   0.98786   0.00000  Uiso   1.00
H982   H     0.80470   0.83154   0.52078   0.00000  Uiso   1.00
H983   H     0.78421   0.84423   0.95702   0.00000  Uiso   1.00
H984   H     0.82495   0.88194   0.99634   0.00000  Uiso   1.00
loop_
_geom_bond_atom_site_label_1
_geom_bond_atom_site_label_2
_geom_bond_distance
_geom_bond_site_symmetry_2
_ccdc_geom_bond_type
C1     C21     1.479   .     S
C1     O37     1.297   .     A
C1     O39     1.300   .     A
C2     O38     1.290   .     A
C2     C22     1.458   .     S
C2     O40     1.295   .     A
C3     I61     2.110   .     S
C3     C5      1.404   .     A
C3     C11     1.416   .     A
C4     I62     2.126   .     S
C4     C12     1.415   .     A
C4     C6      1.408   .     A
C5     H33     1.079   .     S
C5     N35     1.361   .     A
C6     H34     1.079   .     S
C6     N36     1.364   .     A
C7     O63     1.386   .     S
C7     C9      1.429   .     A
C7     N35     1.375   .     A
C8     N36     1.379   .     A
C8     O68     1.389   .     S
C8     C10     1.428   .     A
C9     O73     1.387   .     S
C9     C11     1.415   .     A
C10    O78     1.384   .     S
C10    C12     1.414   .     A
C11    C504    1.517   1_554 S
C12    C503    1.517   .     S
C13    O41     1.276   .     A
C13    C15     1.445   .     S
C13    O43     1.304   .     A
C14    O42     1.282   .     A
C14    C16     1.441   .     S
C14    O44     1.297   .     A
C15    C180    1.363   1_455 S
C15    I209    2.144   1_455 S
C16    C97     1.363   .     S
C16    I128    2.155   .     S
C17    C27     1.404   .     A
C17    I47     2.143   .     S
C17    C19     1.408   .     A
C18    C20     1.404   .     A
C18    C28     1.403   .     A
C18    I48     2.142   .     S
C19    C21     1.423   .     A
C19    I49     2.147   .     S
C20    I50     2.142   .     S
C20    C22     1.414   .     A
C21    C23     1.414   .     A
C22    C24     1.408   .     A
C23    O51     1.381   .     S
C23    C25     1.391   .     A
C24    C26     1.407   .     A
C24    O56     1.398   .     S
C25    H31     1.084   .     S
C25    C27     1.390   .     A
C26    H32     1.082   .     S
C26    C28     1.394   .     A
C27    C274    1.458   1_545 S
C28    C273    1.458   .     S
Cu29   N36     2.013   .     S
Cu29   Cu30    2.680   .     S
Cu29   O44     1.980   .     S
Cu29   O41     1.971   .     S
Cu29   O40     1.955   .     S
Cu29   O37     1.947   .     S
Cu30   N35     2.013   .     S
Cu30   O38     1.947   .     S
Cu30   O43     1.980   .     S
Cu30   O39     1.955   .     S
Cu30   O42     1.971   .     S
I45    C97     2.144   .     S
I46    C180    2.155   1_455 S
O51    C52     1.413   .     S
C52    H55     1.112   .     S
C52    H54     1.108   .     S
C52    H53     1.114   .     S
O56    C57     1.413   .     S
C57    H59     1.106   .     S
C57    H60     1.110   .     S
C57    H58     1.114   .     S
O63    C64     1.416   .     S
C64    H67     1.108   .     S
C64    H66     1.110   .     S
C64    H65     1.112   .     S
O68    C69     1.413   .     S
C69    H71     1.108   .     S
C69    H72     1.114   .     S
C69    H70     1.107   .     S
O73    C566    1.410   1_554 S
C74    H77     1.108   .     S
C74    H75     1.107   .     S
C74    O565    1.410   .     S
C74    H568    1.113   .     S
H76    C566    1.113   1_554 S
O78    C79     1.413   .     S
C79    H81     1.115   .     S
C79    H82     1.109   .     S
C79    H572    1.109   .     S
H80    C571    1.109   1_554 S
C83    C103    1.479   .     S
C83    O119    1.297   .     A
C83    O121    1.300   .     A
C84    O120    1.290   .     A
C84    C104    1.458   .     S
C84    O122    1.295   .     A
C85    I143    2.110   .     S
C85    C87     1.404   .     A
C85    C93     1.416   .     A
C86    I144    2.126   .     S
C86    C94     1.415   .     A
C86    C88     1.408   .     A
C87    H115    1.079   .     S
C87    N117    1.361   .     A
C88    H116    1.079   .     S
C88    N118    1.364   .     A
C89    O145    1.386   .     S
C89    C91     1.429   .     A
C89    N117    1.375   .     A
C90    N118    1.379   .     A
C90    O150    1.389   .     S
C90    C92     1.428   .     A
C91    O155    1.387   .     S
C91    C93     1.415   .     A
C92    O160    1.384   .     S
C92    C94     1.414   .     A
C93    C586    1.517   1_554 S
C94    C585    1.517   .     S
C95    O123    1.276   .     A
C95    C97     1.445   .     S
C95    O125    1.304   .     A
C96    O124    1.282   .     A
C96    C98     1.441   .     S
C96    O126    1.297   .     A
C98    C179    1.363   .     S
C98    I210    2.155   .     S
C99    C109    1.404   .     A
C99    I129    2.143   .     S
C99    C101    1.408   .     A
C100   C102    1.404   .     A
C100   C110    1.403   .     A
C100   I130    2.142   .     S
C101   C103    1.423   .     A
C101   I131    2.147   .     S
C102   I132    2.142   .     S
C102   C104    1.414   .     A
C103   C105    1.414   .     A
C104   C106    1.408   .     A
C105   O133    1.381   .     S
C105   C107    1.391   .     A
C106   C108    1.407   .     A
C106   O138    1.398   .     S
C107   H113    1.084   .     S
C107   C109    1.390   .     A
C108   H114    1.082   .     S
C108   C110    1.394   .     A
C109   C356    1.458   1_545 S
C110   C355    1.458   .     S
Cu111  N118    2.013   .     S
Cu111  Cu112   2.680   .     S
Cu111  O126    1.980   .     S
Cu111  O123    1.971   .     S
Cu111  O122    1.955   .     S
Cu111  O119    1.947   .     S
Cu112  N117    2.013   .     S
Cu112  O120    1.947   .     S
Cu112  O125    1.980   .     S
Cu112  O121    1.955   .     S
Cu112  O124    1.971   .     S
I127   C179    2.144   .     S
O133   C134    1.413   .     S
C134   H137    1.112   .     S
C134   H136    1.108   .     S
C134   H135    1.114   .     S
O138   C139    1.413   .     S
C139   H141    1.106   .     S
C139   H142    1.110   .     S
C139   H140    1.114   .     S
O145   C146    1.416   .     S
C146   H149    1.108   .     S
C146   H148    1.110   .     S
C146   H147    1.112   .     S
O150   C151    1.413   .     S
C151   H153    1.108   .     S
C151   H154    1.114   .     S
C151   H152    1.107   .     S
O155   C648    1.410   1_554 S
C156   H159    1.108   .     S
C156   H157    1.107   .     S
C156   O647    1.410   .     S
C156   H650    1.113   .     S
H158   C648    1.113   1_554 S
O160   C161    1.413   .     S
C161   H163    1.115   .     S
C161   H164    1.109   .     S
C161   H654    1.109   .     S
H162   C653    1.109   1_554 S
C165   C185    1.479   .     S
C165   O201    1.297   .     A
C165   O203    1.300   .     A
C166   O202    1.290   .     A
C166   C186    1.458   .     S
C166   O204    1.295   .     A
C167   I225    2.110   .     S
C167   C169    1.404   .     A
C167   C175    1.416   .     A
C168   I226    2.126   .     S
C168   C176    1.415   .     A
C168   C170    1.408   .     A
C169   H197    1.079   .     S
C169   N199    1.361   .     A
C170   H198    1.079   .     S
C170   N200    1.364   .     A
C171   O227    1.386   .     S
C171   C173    1.429   .     A
C171   N199    1.375   .     A
C172   N200    1.379   .     A
C172   O232    1.389   .     S
C172   C174    1.428   .     A
C173   O237    1.387   .     S
C173   C175    1.415   .     A
C174   O242    1.384   .     S
C174   C176    1.414   .     A
C175   C668    1.517   1_554 S
C176   C667    1.517   .     S
C177   O205    1.276   .     A
C177   C179    1.445   .     S
C177   O207    1.304   .     A
C178   O206    1.282   .     A
C178   C180    1.441   .     S
C178   O208    1.297   .     A
C180   C15     1.363   1_655 S
C180   I46     2.155   1_655 S
C181   C191    1.404   .     A
C181   I211    2.143   .     S
C181   C183    1.408   .     A
C182   C184    1.404   .     A
C182   C192    1.403   .     A
C182   I212    2.142   .     S
C183   C185    1.423   .     A
C183   I213    2.147   .     S
C184   I214    2.142   .     S
C184   C186    1.414   .     A
C185   C187    1.414   .     A
C186   C188    1.408   .     A
C187   O215    1.381   .     S
C187   C189    1.391   .     A
C188   C190    1.407   .     A
C188   O220    1.398   .     S
C189   H195    1.084   .     S
C189   C191    1.390   .     A
C190   H196    1.082   .     S
C190   C192    1.394   .     A
C191   C438    1.458   1_545 S
C192   C437    1.458   .     S
Cu193  N200    2.013   .     S
Cu193  Cu194   2.680   .     S
Cu193  O208    1.980   .     S
Cu193  O205    1.971   .     S
Cu193  O204    1.955   .     S
Cu193  O201    1.947   .     S
Cu194  N199    2.013   .     S
Cu194  O202    1.947   .     S
Cu194  O207    1.980   .     S
Cu194  O203    1.955   .     S
Cu194  O206    1.971   .     S
I209   C15     2.144   1_655 S
O215   C216    1.413   .     S
C216   H219    1.112   .     S
C216   H218    1.108   .     S
C216   H217    1.114   .     S
O220   C221    1.413   .     S
C221   H223    1.106   .     S
C221   H224    1.110   .     S
C221   H222    1.114   .     S
O227   C228    1.416   .     S
C228   H231    1.108   .     S
C228   H230    1.110   .     S
C228   H229    1.112   .     S
O232   C233    1.413   .     S
C233   H235    1.108   .     S
C233   H236    1.114   .     S
C233   H234    1.107   .     S
O237   C730    1.410   1_554 S
C238   H241    1.108   .     S
C238   H239    1.107   .     S
C238   O729    1.410   .     S
C238   H732    1.113   .     S
H240   C730    1.113   1_554 S
O242   C243    1.413   .     S
C243   H245    1.115   .     S
C243   H246    1.109   .     S
C243   H736    1.109   .     S
H244   C735    1.109   1_554 S
C247   C267    1.479   .     S
C247   O283    1.297   .     A
C247   O285    1.300   .     A
C248   O284    1.290   .     A
C248   C268    1.458   .     S
C248   O286    1.295   .     A
C249   I307    2.110   .     S
C249   C251    1.404   .     A
C249   C257    1.416   .     A
C250   I308    2.126   .     S
C250   C258    1.415   .     A
C250   C252    1.408   .     A
C251   H279    1.079   .     S
C251   N281    1.361   .     A
C252   H280    1.079   .     S
C252   N282    1.364   .     A
C253   O309    1.386   .     S
C253   C255    1.429   .     A
C253   N281    1.375   .     A
C254   N282    1.379   .     A
C254   O314    1.389   .     S
C254   C256    1.428   .     A
C255   O319    1.387   .     S
C255   C257    1.415   .     A
C256   O324    1.384   .     S
C256   C258    1.414   .     A
C257   C750    1.517   1_554 S
C258   C749    1.517   .     S
C259   O287    1.276   .     A
C259   C261    1.445   .     S
C259   O289    1.304   .     A
C260   O288    1.282   .     A
C260   C262    1.441   .     S
C260   O290    1.297   .     A
C261   C426    1.363   1_455 S
C261   I455    2.144   1_455 S
C262   C343    1.363   .     S
C262   I374    2.155   .     S
C263   C273    1.404   .     A
C263   I293    2.143   .     S
C263   C265    1.408   .     A
C264   C266    1.404   .     A
C264   C274    1.403   .     A
C264   I294    2.142   .     S
C265   C267    1.423   .     A
C265   I295    2.147   .     S
C266   I296    2.142   .     S
C266   C268    1.414   .     A
C267   C269    1.414   .     A
C268   C270    1.408   .     A
C269   O297    1.381   .     S
C269   C271    1.391   .     A
C270   C272    1.407   .     A
C270   O302    1.398   .     S
C271   H277    1.084   .     S
C271   C273    1.390   .     A
C272   H278    1.082   .     S
C272   C274    1.394   .     A
C274   C27     1.458   1_565 S
Cu275  N282    2.013   .     S
Cu275  Cu276   2.680   .     S
Cu275  O290    1.980   .     S
Cu275  O287    1.971   .     S
Cu275  O286    1.955   .     S
Cu275  O283    1.947   .     S
Cu276  N281    2.013   .     S
Cu276  O284    1.947   .     S
Cu276  O289    1.980   .     S
Cu276  O285    1.955   .     S
Cu276  O288    1.971   .     S
I291   C343    2.144   .     S
I292   C426    2.155   1_455 S
O297   C298    1.413   .     S
C298   H301    1.112   .     S
C298   H300    1.108   .     S
C298   H299    1.114   .     S
O302   C303    1.413   .     S
C303   H305    1.106   .     S
C303   H306    1.110   .     S
C303   H304    1.114   .     S
O309   C310    1.416   .     S
C310   H313    1.108   .     S
C310   H312    1.110   .     S
C310   H311    1.112   .     S
O314   C315    1.413   .     S
C315   H317    1.108   .     S
C315   H318    1.114   .     S
C315   H316    1.107   .     S
O319   C812    1.410   1_554 S
C320   H323    1.108   .     S
C320   H321    1.107   .     S
C320   O811    1.410   .     S
C320   H814    1.113   .     S
H322   C812    1.113   1_554 S
O324   C325    1.413   .     S
C325   H327    1.115   .     S
C325   H328    1.109   .     S
C325   H818    1.109   .     S
H326   C817    1.109   1_554 S
C329   C349    1.479   .     S
C329   O365    1.297   .     A
C329   O367    1.300   .     A
C330   O366    1.290   .     A
C330   C350    1.458   .     S
C330   O368    1.295   .     A
C331   I389    2.110   .     S
C331   C333    1.404   .     A
C331   C339    1.416   .     A
C332   I390    2.126   .     S
C332   C340    1.415   .     A
C332   C334    1.408   .     A
C333   H361    1.079   .     S
C333   N363    1.361   .     A
C334   H362    1.079   .     S
C334   N364    1.364   .     A
C335   O391    1.386   .     S
C335   C337    1.429   .     A
C335   N363    1.375   .     A
C336   N364    1.379   .     A
C336   O396    1.389   .     S
C336   C338    1.428   .     A
C337   O401    1.387   .     S
C337   C339    1.415   .     A
C338   O406    1.384   .     S
C338   C340    1.414   .     A
C339   C832    1.517   1_554 S
C340   C831    1.517   .     S
C341   O369    1.276   .     A
C341   C343    1.445   .     S
C341   O371    1.304   .     A
C342   O370    1.282   .     A
C342   C344    1.441   .     S
C342   O372    1.297   .     A
C344   C425    1.363   .     S
C344   I456    2.155   .     S
C345   C355    1.404   .     A
C345   I375    2.143   .     S
C345   C347    1.408   .     A
C346   C348    1.404   .     A
C346   C356    1.403   .     A
C346   I376    2.142   .     S
C347   C349    1.423   .     A
C347   I377    2.147   .     S
C348   I378    2.142   .     S
C348   C350    1.414   .     A
C349   C351    1.414   .     A
C350   C352    1.408   .     A
C351   O379    1.381   .     S
C351   C353    1.391   .     A
C352   C354    1.407   .     A
C352   O384    1.398   .     S
C353   H359    1.084   .     S
C353   C355    1.390   .     A
C354   H360    1.082   .     S
C354   C356    1.394   .     A
C356   C109    1.458   1_565 S
Cu357  N364    2.013   .     S
Cu357  Cu358   2.680   .     S
Cu357  O372    1.980   .     S
Cu357  O369    1.971   .     S
Cu357  O368    1.955   .     S
Cu357  O365    1.947   .     S
Cu358  N363    2.013   .     S
Cu358  O366    1.947   .     S
Cu358  O371    1.980   .     S
Cu358  O367    1.955   .     S
Cu358  O370    1.971   .     S
I373   C425    2.144   .     S
O379   C380    1.413   .     S
C380   H383    1.112   .     S
C380   H382    1.108   .     S
C380   H381    1.114   .     S
O384   C385    1.413   .     S
C385   H387    1.106   .     S
C385   H388    1.110   .     S
C385   H386    1.114   .     S
O391   C392    1.416   .     S
C392   H395    1.108   .     S
C392   H394    1.110   .     S
C392   H393    1.112   .     S
O396   C397    1.413   .     S
C397   H399    1.108   .     S
C397   H400    1.114   .     S
C397   H398    1.107   .     S
O401   C894    1.410   1_554 S
C402   H405    1.108   .     S
C402   H403    1.107   .     S
C402   O893    1.410   .     S
C402   H896    1.113   .     S
H404   C894    1.113   1_554 S
O406   C407    1.413   .     S
C407   H409    1.115   .     S
C407   H410    1.109   .     S
C407   H900    1.109   .     S
H408   C899    1.109   1_554 S
C411   C431    1.479   .     S
C411   O447    1.297   .     A
C411   O449    1.300   .     A
C412   O448    1.290   .     A
C412   C432    1.458   .     S
C412   O450    1.295   .     A
C413   I471    2.110   .     S
C413   C415    1.404   .     A
C413   C421    1.416   .     A
C414   I472    2.126   .     S
C414   C422    1.415   .     A
C414   C416    1.408   .     A
C415   H443    1.079   .     S
C415   N445    1.361   .     A
C416   H444    1.079   .     S
C416   N446    1.364   .     A
C417   O473    1.386   .     S
C417   C419    1.429   .     A
C417   N445    1.375   .     A
C418   N446    1.379   .     A
C418   O478    1.389   .     S
C418   C420    1.428   .     A
C419   O483    1.387   .     S
C419   C421    1.415   .     A
C420   O488    1.384   .     S
C420   C422    1.414   .     A
C421   C914    1.517   1_554 S
C422   C913    1.517   .     S
C423   O451    1.276   .     A
C423   C425    1.445   .     S
C423   O453    1.304   .     A
C424   O452    1.282   .     A
C424   C426    1.441   .     S
C424   O454    1.297   .     A
C426   C261    1.363   1_655 S
C426   I292    2.155   1_655 S
C427   C437    1.404   .     A
C427   I457    2.143   .     S
C427   C429    1.408   .     A
C428   C430    1.404   .     A
C428   C438    1.403   .     A
C428   I458    2.142   .     S
C429   C431    1.423   .     A
C429   I459    2.147   .     S
C430   I460    2.142   .     S
C430   C432    1.414   .     A
C431   C433    1.414   .     A
C432   C434    1.408   .     A
C433   O461    1.381   .     S
C433   C435    1.391   .     A
C434   C436    1.407   .     A
C434   O466    1.398   .     S
C435   H441    1.084   .     S
C435   C437    1.390   .     A
C436   H442    1.082   .     S
C436   C438    1.394   .     A
C438   C191    1.458   1_565 S
Cu439  N446    2.013   .     S
Cu439  Cu440   2.680   .     S
Cu439  O454    1.980   .     S
Cu439  O451    1.971   .     S
Cu439  O450    1.955   .     S
Cu439  O447    1.947   .     S
Cu440  N445    2.013   .     S
Cu440  O448    1.947   .     S
Cu440  O453    1.980   .     S
Cu440  O449    1.955   .     S
Cu440  O452    1.971   .     S
I455   C261    2.144   1_655 S
O461   C462    1.413   .     S
C462   H465    1.112   .     S
C462   H464    1.108   .     S
C462   H463    1.114   .     S
O466   C467    1.413   .     S
C467   H469    1.106   .     S
C467   H470    1.110   .     S
C467   H468    1.114   .     S
O473   C474    1.416   .     S
C474   H477    1.108   .     S
C474   H476    1.110   .     S
C474   H475    1.112   .     S
O478   C479    1.413   .     S
C479   H481    1.108   .     S
C479   H482    1.114   .     S
C479   H480    1.107   .     S
O483   C976    1.410   1_554 S
C484   H487    1.108   .     S
C484   H485    1.107   .     S
C484   O975    1.410   .     S
C484   H978    1.113   .     S
H486   C976    1.113   1_554 S
O488   C489    1.413   .     S
C489   H491    1.115   .     S
C489   H492    1.109   .     S
C489   H982    1.109   .     S
H490   C981    1.109   1_554 S
C493   C513    1.479   .     S
C493   O529    1.297   .     A
C493   O531    1.300   .     A
C494   O530    1.290   .     A
C494   C514    1.458   .     S
C494   O532    1.295   .     A
C495   I553    2.110   .     S
C495   C497    1.404   .     A
C495   C503    1.416   .     A
C496   I554    2.126   .     S
C496   C504    1.415   .     A
C496   C498    1.408   .     A
C497   H525    1.079   .     S
C497   N527    1.361   .     A
C498   H526    1.079   .     S
C498   N528    1.364   .     A
C499   O555    1.386   .     S
C499   C501    1.429   .     A
C499   N527    1.375   .     A
C500   N528    1.379   .     A
C500   O560    1.389   .     S
C500   C502    1.428   .     A
C501   O565    1.387   .     S
C501   C503    1.415   .     A
C502   O570    1.384   .     S
C502   C504    1.414   .     A
C504   C11     1.517   1_556 S
C505   O533    1.276   .     A
C505   C507    1.445   .     S
C505   O535    1.304   .     A
C506   O534    1.282   .     A
C506   C508    1.441   .     S
C506   O536    1.297   .     A
C507   C672    1.363   1_455 S
C507   I701    2.144   1_455 S
C508   C589    1.363   .     S
C508   I620    2.155   .     S
C509   C519    1.404   .     A
C509   I539    2.143   .     S
C509   C511    1.408   .     A
C510   C512    1.404   .     A
C510   C520    1.403   .     A
C510   I540    2.142   .     S
C511   C513    1.423   .     A
C511   I541    2.147   .     S
C512   I542    2.142   .     S
C512   C514    1.414   .     A
C513   C515    1.414   .     A
C514   C516    1.408   .     A
C515   O543    1.381   .     S
C515   C517    1.391   .     A
C516   C518    1.407   .     A
C516   O548    1.398   .     S
C517   H523    1.084   .     S
C517   C519    1.390   .     A
C518   H524    1.082   .     S
C518   C520    1.394   .     A
C519   C766    1.458   1_545 S
C520   C765    1.458   .     S
Cu521  N528    2.013   .     S
Cu521  Cu522   2.680   .     S
Cu521  O536    1.980   .     S
Cu521  O533    1.971   .     S
Cu521  O532    1.955   .     S
Cu521  O529    1.947   .     S
Cu522  N527    2.013   .     S
Cu522  O530    1.947   .     S
Cu522  O535    1.980   .     S
Cu522  O531    1.955   .     S
Cu522  O534    1.971   .     S
I537   C589    2.144   .     S
I538   C672    2.155   1_455 S
O543   C544    1.413   .     S
C544   H547    1.112   .     S
C544   H546    1.108   .     S
C544   H545    1.114   .     S
O548   C549    1.413   .     S
C549   H551    1.106   .     S
C549   H552    1.110   .     S
C549   H550    1.114   .     S
O555   C556    1.416   .     S
C556   H559    1.108   .     S
C556   H558    1.110   .     S
C556   H557    1.112   .     S
O560   C561    1.413   .     S
C561   H563    1.108   .     S
C561   H564    1.114   .     S
C561   H562    1.107   .     S
C566   H569    1.108   .     S
C566   H567    1.107   .     S
C566   O73     1.410   1_556 S
C566   H76     1.113   1_556 S
O570   C571    1.413   .     S
C571   H573    1.115   .     S
C571   H574    1.109   .     S
C571   H80     1.109   1_556 S
C575   C595    1.479   .     S
C575   O611    1.297   .     A
C575   O613    1.300   .     A
C576   O612    1.290   .     A
C576   C596    1.458   .     S
C576   O614    1.295   .     A
C577   I635    2.110   .     S
C577   C579    1.404   .     A
C577   C585    1.416   .     A
C578   I636    2.126   .     S
C578   C586    1.415   .     A
C578   C580    1.408   .     A
C579   H607    1.079   .     S
C579   N609    1.361   .     A
C580   H608    1.079   .     S
C580   N610    1.364   .     A
C581   O637    1.386   .     S
C581   C583    1.429   .     A
C581   N609    1.375   .     A
C582   N610    1.379   .     A
C582   O642    1.389   .     S
C582   C584    1.428   .     A
C583   O647    1.387   .     S
C583   C585    1.415   .     A
C584   O652    1.384   .     S
C584   C586    1.414   .     A
C586   C93     1.517   1_556 S
C587   O615    1.276   .     A
C587   C589    1.445   .     S
C587   O617    1.304   .     A
C588   O616    1.282   .     A
C588   C590    1.441   .     S
C588   O618    1.297   .     A
C590   C671    1.363   .     S
C590   I702    2.155   .     S
C591   C601    1.404   .     A
C591   I621    2.143   .     S
C591   C593    1.408   .     A
C592   C594    1.404   .     A
C592   C602    1.403   .     A
C592   I622    2.142   .     S
C593   C595    1.423   .     A
C593   I623    2.147   .     S
C594   I624    2.142   .     S
C594   C596    1.414   .     A
C595   C597    1.414   .     A
C596   C598    1.408   .     A
C597   O625    1.381   .     S
C597   C599    1.391   .     A
C598   C600    1.407   .     A
C598   O630    1.398   .     S
C599   H605    1.084   .     S
C599   C601    1.390   .     A
C600   H606    1.082   .     S
C600   C602    1.394   .     A
C601   C848    1.458   1_545 S
C602   C847    1.458   .     S
Cu603  N610    2.013   .     S
Cu603  Cu604   2.680   .     S
Cu603  O618    1.980   .     S
Cu603  O615    1.971   .     S
Cu603  O614    1.955   .     S
Cu603  O611    1.947   .     S
Cu604  N609    2.013   .     S
Cu604  O612    1.947   .     S
Cu604  O617    1.980   .     S
Cu604  O613    1.955   .     S
Cu604  O616    1.971   .     S
I619   C671    2.144   .     S
O625   C626    1.413   .     S
C626   H629    1.112   .     S
C626   H628    1.108   .     S
C626   H627    1.114   .     S
O630   C631    1.413   .     S
C631   H633    1.106   .     S
C631   H634    1.110   .     S
C631   H632    1.114   .     S
O637   C638    1.416   .     S
C638   H641    1.108   .     S
C638   H640    1.110   .     S
C638   H639    1.112   .     S
O642   C643    1.413   .     S
C643   H645    1.108   .     S
C643   H646    1.114   .     S
C643   H644    1.107   .     S
C648   H651    1.108   .     S
C648   H649    1.107   .     S
C648   O155    1.410   1_556 S
C648   H158    1.113   1_556 S
O652   C653    1.413   .     S
C653   H655    1.115   .     S
C653   H656    1.109   .     S
C653   H162    1.109   1_556 S
C657   C677    1.479   .     S
C657   O693    1.297   .     A
C657   O695    1.300   .     A
C658   O694    1.290   .     A
C658   C678    1.458   .     S
C658   O696    1.295   .     A
C659   I717    2.110   .     S
C659   C661    1.404   .     A
C659   C667    1.416   .     A
C660   I718    2.126   .     S
C660   C668    1.415   .     A
C660   C662    1.408   .     A
C661   H689    1.079   .     S
C661   N691    1.361   .     A
C662   H690    1.079   .     S
C662   N692    1.364   .     A
C663   O719    1.386   .     S
C663   C665    1.429   .     A
C663   N691    1.375   .     A
C664   N692    1.379   .     A
C664   O724    1.389   .     S
C664   C666    1.428   .     A
C665   O729    1.387   .     S
C665   C667    1.415   .     A
C666   O734    1.384   .     S
C666   C668    1.414   .     A
C668   C175    1.517   1_556 S
C669   O697    1.276   .     A
C669   C671    1.445   .     S
C669   O699    1.304   .     A
C670   O698    1.282   .     A
C670   C672    1.441   .     S
C670   O700    1.297   .     A
C672   C507    1.363   1_655 S
C672   I538    2.155   1_655 S
C673   C683    1.404   .     A
C673   I703    2.143   .     S
C673   C675    1.408   .     A
C674   C676    1.404   .     A
C674   C684    1.403   .     A
C674   I704    2.142   .     S
C675   C677    1.423   .     A
C675   I705    2.147   .     S
C676   I706    2.142   .     S
C676   C678    1.414   .     A
C677   C679    1.414   .     A
C678   C680    1.408   .     A
C679   O707    1.381   .     S
C679   C681    1.391   .     A
C680   C682    1.407   .     A
C680   O712    1.398   .     S
C681   H687    1.084   .     S
C681   C683    1.390   .     A
C682   H688    1.082   .     S
C682   C684    1.394   .     A
C683   C930    1.458   1_545 S
C684   C929    1.458   .     S
Cu685  N692    2.013   .     S
Cu685  Cu686   2.680   .     S
Cu685  O700    1.980   .     S
Cu685  O697    1.971   .     S
Cu685  O696    1.955   .     S
Cu685  O693    1.947   .     S
Cu686  N691    2.013   .     S
Cu686  O694    1.947   .     S
Cu686  O699    1.980   .     S
Cu686  O695    1.955   .     S
Cu686  O698    1.971   .     S
I701   C507    2.144   1_655 S
O707   C708    1.413   .     S
C708   H711    1.112   .     S
C708   H710    1.108   .     S
C708   H709    1.114   .     S
O712   C713    1.413   .     S
C713   H715    1.106   .     S
C713   H716    1.110   .     S
C713   H714    1.114   .     S
O719   C720    1.416   .     S
C720   H723    1.108   .     S
C720   H722    1.110   .     S
C720   H721    1.112   .     S
O724   C725    1.413   .     S
C725   H727    1.108   .     S
C725   H728    1.114   .     S
C725   H726    1.107   .     S
C730   H733    1.108   .     S
C730   H731    1.107   .     S
C730   O237    1.410   1_556 S
C730   H240    1.113   1_556 S
O734   C735    1.413   .     S
C735   H737    1.115   .     S
C735   H738    1.109   .     S
C735   H244    1.109   1_556 S
C739   C759    1.479   .     S
C739   O775    1.297   .     A
C739   O777    1.300   .     A
C740   O776    1.290   .     A
C740   C760    1.458   .     S
C740   O778    1.295   .     A
C741   I799    2.110   .     S
C741   C743    1.404   .     A
C741   C749    1.416   .     A
C742   I800    2.126   .     S
C742   C750    1.415   .     A
C742   C744    1.408   .     A
C743   H771    1.079   .     S
C743   N773    1.361   .     A
C744   H772    1.079   .     S
C744   N774    1.364   .     A
C745   O801    1.386   .     S
C745   C747    1.429   .     A
C745   N773    1.375   .     A
C746   N774    1.379   .     A
C746   O806    1.389   .     S
C746   C748    1.428   .     A
C747   O811    1.387   .     S
C747   C749    1.415   .     A
C748   O816    1.384   .     S
C748   C750    1.414   .     A
C750   C257    1.517   1_556 S
C751   O779    1.276   .     A
C751   C753    1.445   .     S
C751   O781    1.304   .     A
C752   O780    1.282   .     A
C752   C754    1.441   .     S
C752   O782    1.297   .     A
C753   C918    1.363   1_455 S
C753   I947    2.144   1_455 S
C754   C835    1.363   .     S
C754   I866    2.155   .     S
C755   C765    1.404   .     A
C755   I785    2.143   .     S
C755   C757    1.408   .     A
C756   C758    1.404   .     A
C756   C766    1.403   .     A
C756   I786    2.142   .     S
C757   C759    1.423   .     A
C757   I787    2.147   .     S
C758   I788    2.142   .     S
C758   C760    1.414   .     A
C759   C761    1.414   .     A
C760   C762    1.408   .     A
C761   O789    1.381   .     S
C761   C763    1.391   .     A
C762   C764    1.407   .     A
C762   O794    1.398   .     S
C763   H769    1.084   .     S
C763   C765    1.390   .     A
C764   H770    1.082   .     S
C764   C766    1.394   .     A
C766   C519    1.458   1_565 S
Cu767  N774    2.013   .     S
Cu767  Cu768   2.680   .     S
Cu767  O782    1.980   .     S
Cu767  O779    1.971   .     S
Cu767  O778    1.955   .     S
Cu767  O775    1.947   .     S
Cu768  N773    2.013   .     S
Cu768  O776    1.947   .     S
Cu768  O781    1.980   .     S
Cu768  O777    1.955   .     S
Cu768  O780    1.971   .     S
I783   C835    2.144   .     S
I784   C918    2.155   1_455 S
O789   C790    1.413   .     S
C790   H793    1.112   .     S
C790   H792    1.108   .     S
C790   H791    1.114   .     S
O794   C795    1.413   .     S
C795   H797    1.106   .     S
C795   H798    1.110   .     S
C795   H796    1.114   .     S
O801   C802    1.416   .     S
C802   H805    1.108   .     S
C802   H804    1.110   .     S
C802   H803    1.112   .     S
O806   C807    1.413   .     S
C807   H809    1.108   .     S
C807   H810    1.114   .     S
C807   H808    1.107   .     S
C812   H815    1.108   .     S
C812   H813    1.107   .     S
C812   O319    1.410   1_556 S
C812   H322    1.113   1_556 S
O816   C817    1.413   .     S
C817   H819    1.115   .     S
C817   H820    1.109   .     S
C817   H326    1.109   1_556 S
C821   C841    1.479   .     S
C821   O857    1.297   .     A
C821   O859    1.300   .     A
C822   O858    1.290   .     A
C822   C842    1.458   .     S
C822   O860    1.295   .     A
C823   I881    2.110   .     S
C823   C825    1.404   .     A
C823   C831    1.416   .     A
C824   I882    2.126   .     S
C824   C832    1.415   .     A
C824   C826    1.408   .     A
C825   H853    1.079   .     S
C825   N855    1.361   .     A
C826   H854    1.079   .     S
C826   N856    1.364   .     A
C827   O883    1.386   .     S
C827   C829    1.429   .     A
C827   N855    1.375   .     A
C828   N856    1.379   .     A
C828   O888    1.389   .     S
C828   C830    1.428   .     A
C829   O893    1.387   .     S
C829   C831    1.415   .     A
C830   O898    1.384   .     S
C830   C832    1.414   .     A
C832   C339    1.517   1_556 S
C833   O861    1.276   .     A
C833   C835    1.445   .     S
C833   O863    1.304   .     A
C834   O862    1.282   .     A
C834   C836    1.441   .     S
C834   O864    1.297   .     A
C836   C917    1.363   .     S
C836   I948    2.155   .     S
C837   C847    1.404   .     A
C837   I867    2.143   .     S
C837   C839    1.408   .     A
C838   C840    1.404   .     A
C838   C848    1.403   .     A
C838   I868    2.142   .     S
C839   C841    1.423   .     A
C839   I869    2.147   .     S
C840   I870    2.142   .     S
C840   C842    1.414   .     A
C841   C843    1.414   .     A
C842   C844    1.408   .     A
C843   O871    1.381   .     S
C843   C845    1.391   .     A
C844   C846    1.407   .     A
C844   O876    1.398   .     S
C845   H851    1.084   .     S
C845   C847    1.390   .     A
C846   H852    1.082   .     S
C846   C848    1.394   .     A
C848   C601    1.458   1_565 S
Cu849  N856    2.013   .     S
Cu849  Cu850   2.680   .     S
Cu849  O864    1.980   .     S
Cu849  O861    1.971   .     S
Cu849  O860    1.955   .     S
Cu849  O857    1.947   .     S
Cu850  N855    2.013   .     S
Cu850  O858    1.947   .     S
Cu850  O863    1.980   .     S
Cu850  O859    1.955   .     S
Cu850  O862    1.971   .     S
I865   C917    2.144   .     S
O871   C872    1.413   .     S
C872   H875    1.112   .     S
C872   H874    1.108   .     S
C872   H873    1.114   .     S
O876   C877    1.413   .     S
C877   H879    1.106   .     S
C877   H880    1.110   .     S
C877   H878    1.114   .     S
O883   C884    1.416   .     S
C884   H887    1.108   .     S
C884   H886    1.110   .     S
C884   H885    1.112   .     S
O888   C889    1.413   .     S
C889   H891    1.108   .     S
C889   H892    1.114   .     S
C889   H890    1.107   .     S
C894   H897    1.108   .     S
C894   H895    1.107   .     S
C894   O401    1.410   1_556 S
C894   H404    1.113   1_556 S
O898   C899    1.413   .     S
C899   H901    1.115   .     S
C899   H902    1.109   .     S
C899   H408    1.109   1_556 S
C903   C923    1.479   .     S
C903   O939    1.297   .     A
C903   O941    1.300   .     A
C904   O940    1.290   .     A
C904   C924    1.458   .     S
C904   O942    1.295   .     A
C905   I963    2.110   .     S
C905   C907    1.404   .     A
C905   C913    1.416   .     A
C906   I964    2.126   .     S
C906   C914    1.415   .     A
C906   C908    1.408   .     A
C907   H935    1.079   .     S
C907   N937    1.361   .     A
C908   H936    1.079   .     S
C908   N938    1.364   .     A
C909   O965    1.386   .     S
C909   C911    1.429   .     A
C909   N937    1.375   .     A
C910   N938    1.379   .     A
C910   O970    1.389   .     S
C910   C912    1.428   .     A
C911   O975    1.387   .     S
C911   C913    1.415   .     A
C912   O980    1.384   .     S
C912   C914    1.414   .     A
C914   C421    1.517   1_556 S
C915   O943    1.276   .     A
C915   C917    1.445   .     S
C915   O945    1.304   .     A
C916   O944    1.282   .     A
C916   C918    1.441   .     S
C916   O946    1.297   .     A
C918   C753    1.363   1_655 S
C918   I784    2.155   1_655 S
C919   C929    1.404   .     A
C919   I949    2.143   .     S
C919   C921    1.408   .     A
C920   C922    1.404   .     A
C920   C930    1.403   .     A
C920   I950    2.142   .     S
C921   C923    1.423   .     A
C921   I951    2.147   .     S
C922   I952    2.142   .     S
C922   C924    1.414   .     A
C923   C925    1.414   .     A
C924   C926    1.408   .     A
C925   O953    1.381   .     S
C925   C927    1.391   .     A
C926   C928    1.407   .     A
C926   O958    1.398   .     S
C927   H933    1.084   .     S
C927   C929    1.390   .     A
C928   H934    1.082   .     S
C928   C930    1.394   .     A
C930   C683    1.458   1_565 S
Cu931  N938    2.013   .     S
Cu931  Cu932   2.680   .     S
Cu931  O946    1.980   .     S
Cu931  O943    1.971   .     S
Cu931  O942    1.955   .     S
Cu931  O939    1.947   .     S
Cu932  N937    2.013   .     S
Cu932  O940    1.947   .     S
Cu932  O945    1.980   .     S
Cu932  O941    1.955   .     S
Cu932  O944    1.971   .     S
I947   C753    2.144   1_655 S
O953   C954    1.413   .     S
C954   H957    1.112   .     S
C954   H956    1.108   .     S
C954   H955    1.114   .     S
O958   C959    1.413   .     S
C959   H961    1.106   .     S
C959   H962    1.110   .     S
C959   H960    1.114   .     S
O965   C966    1.416   .     S
C966   H969    1.108   .     S
C966   H968    1.110   .     S
C966   H967    1.112   .     S
O970   C971    1.413   .     S
C971   H973    1.108   .     S
C971   H974    1.114   .     S
C971   H972    1.107   .     S
C976   H979    1.108   .     S
C976   H977    1.107   .     S
C976   O483    1.410   1_556 S
C976   H486    1.113   1_556 S
O980   C981    1.413   .     S
C981   H983    1.115   .     S
C981   H984    1.109   .     S
C981   H490    1.109   1_556 S
