data_str_m1_o2_o5_pcu_sym.47
_audit_creation_date              2020-01-03
_audit_creation_method            'Materials Studio'
_symmetry_space_group_name_H-M    'P1'
_symmetry_Int_Tables_number       1
_symmetry_cell_setting            triclinic
loop_
_symmetry_equiv_pos_as_xyz
  x,y,z
_cell_length_a                    24.5116
_cell_length_b                    24.5155
_cell_length_c                    22.3158
_cell_angle_alpha                 90.0353
_cell_angle_beta                  90.0092
_cell_angle_gamma                 90.0486
loop_
_atom_site_label
_atom_site_type_symbol
_atom_site_fract_x
_atom_site_fract_y
_atom_site_fract_z
_atom_site_U_iso_or_equiv
_atom_site_adp_type
_atom_site_occupancy
C1     C     0.22830   0.27204   0.24911   0.00000  Uiso   1.00
C2     C     0.23142   0.72731   0.24440   0.00000  Uiso   1.00
C3     C     0.19847   0.63965   0.27986   0.00000  Uiso   1.00
C4     C     0.33431   0.16893   0.69498   0.00000  Uiso   1.00
C5     C     0.64039   0.80272   0.28216   0.00000  Uiso   1.00
C6     C     0.16976   0.66565   0.69680   0.00000  Uiso   1.00
C7     C     0.80526   0.35702   0.28714   0.00000  Uiso   1.00
C8     C     0.33329   0.83053   0.30256   0.00000  Uiso   1.00
C9     C     0.63744   0.19990   0.72629   0.00000  Uiso   1.00
C10    C     0.16896   0.33393   0.30431   0.00000  Uiso   1.00
C11    C     0.80254   0.63978   0.71846   0.00000  Uiso   1.00
C12    C     0.66944   0.16367   0.30737   0.00000  Uiso   1.00
C13    C     0.72847   0.77199   0.74959   0.00000  Uiso   1.00
C14    C     0.35815   0.80434   0.71395   0.00000  Uiso   1.00
C15    C     0.82815   0.66327   0.30436   0.00000  Uiso   1.00
C16    C     0.19694   0.35963   0.71705   0.00000  Uiso   1.00
C17    C     0.14738   0.35298   0.24967   0.00000  Uiso   1.00
C18    C     0.85203   0.64807   0.74987   0.00000  Uiso   1.00
C19    C     0.35344   0.85218   0.24846   0.00000  Uiso   1.00
C20    C     0.64835   0.14751   0.74979   0.00000  Uiso   1.00
C21    C     0.85273   0.64732   0.24996   0.00000  Uiso   1.00
C22    C     0.14858   0.35238   0.75083   0.00000  Uiso   1.00
C23    C     0.64900   0.14545   0.25177   0.00000  Uiso   1.00
C24    C     0.27088   0.22953   0.24896   0.00000  Uiso   1.00
C25    C     0.35248   0.85114   0.75083   0.00000  Uiso   1.00
C26    C     0.85266   0.35253   0.74979   0.00000  Uiso   1.00
C27    C     0.14877   0.64755   0.24857   0.00000  Uiso   1.00
C28    C     0.64749   0.85294   0.74984   0.00000  Uiso   1.00
C29    C     0.35162   0.14783   0.25049   0.00000  Uiso   1.00
C30    C     0.14853   0.64580   0.75109   0.00000  Uiso   1.00
C31    C     0.85235   0.35133   0.25082   0.00000  Uiso   1.00
C32    C     0.35274   0.14715   0.74982   0.00000  Uiso   1.00
C33    C     0.64850   0.85243   0.25097   0.00000  Uiso   1.00
C34    C     0.27658   0.29191   0.12483   0.00000  Uiso   1.00
C35    C     0.23138   0.72463   0.75281   0.00000  Uiso   1.00
C36    C     0.86304   0.82163   0.76298   0.00000  Uiso   1.00
C37    C     0.29430   0.72369   0.12067   0.00000  Uiso   1.00
C38    C     0.82287   0.13581   0.74218   0.00000  Uiso   1.00
C39    C     0.73030   0.71575   0.12182   0.00000  Uiso   1.00
C40    C     0.13602   0.18020   0.76897   0.00000  Uiso   1.00
C41    C     0.69762   0.27352   0.13027   0.00000  Uiso   1.00
C42    C     0.17825   0.84960   0.78263   0.00000  Uiso   1.00
C43    C     0.74025   0.27683   0.88305   0.00000  Uiso   1.00
C44    C     0.14176   0.82073   0.22561   0.00000  Uiso   1.00
C45    C     0.71342   0.72811   0.87675   0.00000  Uiso   1.00
C46    C     0.77378   0.26752   0.25531   0.00000  Uiso   1.00
C47    C     0.17879   0.13876   0.22738   0.00000  Uiso   1.00
C48    C     0.28416   0.69877   0.87308   0.00000  Uiso   1.00
C49    C     0.86722   0.17895   0.22930   0.00000  Uiso   1.00
C50    C     0.29108   0.27607   0.87436   0.00000  Uiso   1.00
C51    C     0.82156   0.86432   0.23965   0.00000  Uiso   1.00
C52    C     0.77238   0.78718   0.62247   0.00000  Uiso   1.00
C53    C     0.36452   0.31991   0.27004   0.00000  Uiso   1.00
C54    C     0.77807   0.23573   0.61720   0.00000  Uiso   1.00
C55    C     0.32050   0.62994   0.26115   0.00000  Uiso   1.00
C56    C     0.22465   0.20953   0.62456   0.00000  Uiso   1.00
C57    C     0.27207   0.22835   0.74952   0.00000  Uiso   1.00
C58    C     0.63550   0.67989   0.25977   0.00000  Uiso   1.00
C59    C     0.19492   0.77512   0.62980   0.00000  Uiso   1.00
C60    C     0.67762   0.34888   0.28194   0.00000  Uiso   1.00
C61    C     0.22365   0.78694   0.37027   0.00000  Uiso   1.00
C62    C     0.64436   0.32336   0.75818   0.00000  Uiso   1.00
C63    C     0.20864   0.22333   0.37336   0.00000  Uiso   1.00
C64    C     0.67827   0.63831   0.73619   0.00000  Uiso   1.00
C65    C     0.78201   0.20000   0.37684   0.00000  Uiso   1.00
C66    C     0.36528   0.67962   0.72232   0.00000  Uiso   1.00
C67    C     0.78563   0.77051   0.37802   0.00000  Uiso   1.00
C68    C     0.72959   0.77117   0.25007   0.00000  Uiso   1.00
C69    C     0.32150   0.36223   0.72961   0.00000  Uiso   1.00
C70    C     0.16722   0.39584   0.12043   0.00000  Uiso   1.00
C71    C     0.14204   0.41162   0.06058   0.00000  Uiso   1.00
C72    C     0.89767   0.69702   0.87426   0.00000  Uiso   1.00
C73    C     0.95119   0.69949   0.90871   0.00000  Uiso   1.00
C74    C     0.40040   0.83169   0.12150   0.00000  Uiso   1.00
C75    C     0.41816   0.85600   0.06190   0.00000  Uiso   1.00
C76    C     0.71219   0.08568   0.85811   0.00000  Uiso   1.00
C77    C     0.71578   0.02766   0.88198   0.00000  Uiso   1.00
C78    C     0.84115   0.61401   0.11552   0.00000  Uiso   1.00
C79    C     0.99999   0.49994   0.47327   0.00000  Uiso   1.00
C80    C     0.86929   0.60392   0.05575   0.00000  Uiso   1.00
C81    C     0.10543   0.31783   0.87800   0.00000  Uiso   1.00
C82    C     0.12661   0.27449   0.92110   0.00000  Uiso   1.00
C83    C     0.68734   0.11187   0.11557   0.00000  Uiso   1.00
C84    C     0.66311   0.09233   0.05658   0.00000  Uiso   1.00
C85    C     0.32467   0.89007   0.88221   0.00000  Uiso   1.00
C86    C     0.28441   0.86670   0.92759   0.00000  Uiso   1.00
C87    C     0.84058   0.38874   0.88047   0.00000  Uiso   1.00
C88    C     0.84460   0.38839   0.94848   0.00000  Uiso   1.00
C89    C     0.10345   0.69211   0.12182   0.00000  Uiso   1.00
C90    C     0.99999   0.49993   0.52673   0.00000  Uiso   1.00
C91    C     0.04976   0.69447   0.08769   0.00000  Uiso   1.00
C92    C     0.61168   0.83922   0.88322   0.00000  Uiso   1.00
C93    C     0.60036   0.86689   0.94299   0.00000  Uiso   1.00
C94    C     0.30860   0.10680   0.12162   0.00000  Uiso   1.00
C95    C     0.30674   0.05464   0.08472   0.00000  Uiso   1.00
C96    C     0.17073   0.59723   0.87784   0.00000  Uiso   1.00
C97    C     0.14576   0.57959   0.93717   0.00000  Uiso   1.00
C98    C     0.89259   0.31798   0.12191   0.00000  Uiso   1.00
C99    C     0.87138   0.27403   0.07946   0.00000  Uiso   1.00
C100   C     0.39277   0.16495   0.88102   0.00000  Uiso   1.00
C101   C     0.49997   0.00001   0.47327   0.00000  Uiso   1.00
C102   C     0.40627   0.13891   0.94108   0.00000  Uiso   1.00
C103   C     0.69866   0.89764   0.12651   0.00000  Uiso   1.00
C104   C     0.69809   0.95120   0.09221   0.00000  Uiso   1.00
C105   C     0.66279   0.89087   0.61793   0.00000  Uiso   1.00
C106   C     0.63661   0.90338   0.55767   0.00000  Uiso   1.00
C107   C     0.39406   0.18218   0.37824   0.00000  Uiso   1.00
C108   C     0.37337   0.22583   0.42130   0.00000  Uiso   1.00
C109   C     0.88455   0.34391   0.61505   0.00000  Uiso   1.00
C110   C     0.89203   0.37077   0.55416   0.00000  Uiso   1.00
C111   C     0.19017   0.60375   0.37428   0.00000  Uiso   1.00
C112   C     0.77101   0.72943   0.74950   0.00000  Uiso   1.00
C113   C     0.49998   0.99998   0.52673   0.00000  Uiso   1.00
C114   C     0.23784   0.62298   0.41290   0.00000  Uiso   1.00
C115   C     0.33409   0.10569   0.61977   0.00000  Uiso   1.00
C116   C     0.35990   0.09048   0.56006   0.00000  Uiso   1.00
C117   C     0.60044   0.81252   0.37442   0.00000  Uiso   1.00
C118   C     0.61945   0.76705   0.41607   0.00000  Uiso   1.00
C119   C     0.18199   0.61363   0.61310   0.00000  Uiso   1.00
C120   C     0.15324   0.59129   0.55788   0.00000  Uiso   1.00
C121   C     0.81134   0.39442   0.38023   0.00000  Uiso   1.00
C122   C     0.80836   0.44783   0.41488   0.00000  Uiso   1.00
C123   C     0.32956   0.89486   0.37654   0.00000  Uiso   1.00
C124   C     0.50001   0.99994   0.97327   0.00000  Uiso   1.00
C125   C     0.35615   0.91395   0.43447   0.00000  Uiso   1.00
C126   C     0.58711   0.21171   0.64161   0.00000  Uiso   1.00
C127   C     0.52905   0.21622   0.61801   0.00000  Uiso   1.00
C128   C     0.10646   0.33404   0.38028   0.00000  Uiso   1.00
C129   C     0.09198   0.36019   0.44005   0.00000  Uiso   1.00
C130   C     0.80314   0.60152   0.62570   0.00000  Uiso   1.00
C131   C     0.80091   0.54758   0.59200   0.00000  Uiso   1.00
C132   C     0.66983   0.09670   0.37824   0.00000  Uiso   1.00
C133   C     0.64535   0.07904   0.43779   0.00000  Uiso   1.00
C134   C     0.38911   0.82279   0.61913   0.00000  Uiso   1.00
C135   C     0.50001   0.99996   0.02673   0.00000  Uiso   1.00
C136   C     0.36536   0.78100   0.57566   0.00000  Uiso   1.00
C137   C     0.88580   0.65841   0.38469   0.00000  Uiso   1.00
C138   C     0.89540   0.62994   0.44433   0.00000  Uiso   1.00
C139   C     0.19315   0.39405   0.62269   0.00000  Uiso   1.00
C140   C     0.19277   0.44671   0.58673   0.00000  Uiso   1.00
C141   C     0.99996   0.50002   0.97327   0.00000  Uiso   1.00
C142   C     0.99998   0.50000   0.02673   0.00000  Uiso   1.00
C143   C    -0.00001   0.49999   0.09009   0.00000  Uiso   1.00
C144   C     0.99996   0.50001   0.90992   0.00000  Uiso   1.00
C145   C     0.50000  -0.00000   0.09008   0.00000  Uiso   1.00
C146   C     0.50000   0.99996   0.90992   0.00000  Uiso   1.00
C147   C     0.50000   0.99999   0.59008   0.00000  Uiso   1.00
C148   C     0.27358   0.77021   0.24560   0.00000  Uiso   1.00
C149   C     0.49998   0.00001   0.40992   0.00000  Uiso   1.00
C150   C    -0.00000   0.49996   0.59008   0.00000  Uiso   1.00
C151   C    -0.00000   0.49998   0.40992   0.00000  Uiso   1.00
C152   C     0.10545   0.60536   0.24991   0.00000  Uiso   1.00
C153   C     0.89480   0.39496   0.75008   0.00000  Uiso   1.00
C154   C     0.60548   0.89477   0.25025   0.00000  Uiso   1.00
C155   C     0.39493   0.10503   0.74997   0.00000  Uiso   1.00
C156   C     0.89454   0.39465   0.24991   0.00000  Uiso   1.00
C157   C     0.10497   0.60513   0.74979   0.00000  Uiso   1.00
C158   C     0.39450   0.10528   0.25021   0.00000  Uiso   1.00
C159   C     0.73035   0.22779   0.74920   0.00000  Uiso   1.00
C160   C     0.60512   0.89495   0.74998   0.00000  Uiso   1.00
C161   C     0.89464   0.60535   0.75000   0.00000  Uiso   1.00
C162   C     0.10509   0.39498   0.24994   0.00000  Uiso   1.00
C163   C     0.39464   0.89453   0.75007   0.00000  Uiso   1.00
C164   C     0.60507   0.10509   0.24987   0.00000  Uiso   1.00
C165   C     0.10553   0.39477   0.75027   0.00000  Uiso   1.00
C166   C     0.89490   0.60507   0.24997   0.00000  Uiso   1.00
C167   C     0.60537   0.10526   0.74998   0.00000  Uiso   1.00
C168   C     0.39503   0.89489   0.24980   0.00000  Uiso   1.00
C169   C     0.20757   0.29239   0.19428   0.00000  Uiso   1.00
C170   C     0.77211   0.72864   0.24998   0.00000  Uiso   1.00
C171   C     0.82185   0.73966   0.77659   0.00000  Uiso   1.00
C172   C     0.29432   0.79172   0.19136   0.00000  Uiso   1.00
C173   C     0.74244   0.17472   0.76908   0.00000  Uiso   1.00
C174   C     0.79566   0.71138   0.19526   0.00000  Uiso   1.00
C175   C     0.17959   0.26142   0.77883   0.00000  Uiso   1.00
C176   C     0.71056   0.20653   0.19944   0.00000  Uiso   1.00
C177   C     0.26470   0.81635   0.78553   0.00000  Uiso   1.00
C178   C     0.79861   0.28508   0.80345   0.00000  Uiso   1.00
C179   C     0.18088   0.73723   0.21670   0.00000  Uiso   1.00
C180   C     0.71035   0.79457   0.80450   0.00000  Uiso   1.00
C181   C     0.22950   0.27087   0.74951   0.00000  Uiso   1.00
C182   C     0.26158   0.17958   0.21964   0.00000  Uiso   1.00
C183   C     0.21244   0.70188   0.80729   0.00000  Uiso   1.00
C184   C     0.82253   0.25981   0.22321   0.00000  Uiso   1.00
C185   C     0.29174   0.20735   0.80455   0.00000  Uiso   1.00
C186   C     0.74018   0.82245   0.22431   0.00000  Uiso   1.00
C187   C     0.70590   0.79033   0.69478   0.00000  Uiso   1.00
C188   C     0.32060   0.23876   0.27878   0.00000  Uiso   1.00
C189   C     0.78765   0.29634   0.69496   0.00000  Uiso   1.00
C190   C     0.24133   0.67706   0.27260   0.00000  Uiso   1.00
C191   C     0.29314   0.20844   0.69463   0.00000  Uiso   1.00
C192   C     0.73186   0.22435   0.25488   0.00000  Uiso   1.00
C193   C     0.67849   0.76052   0.27625   0.00000  Uiso   1.00
C194   C     0.20892   0.70729   0.69773   0.00000  Uiso   1.00
C195   C     0.76453   0.31684   0.28597   0.00000  Uiso   1.00
C196   C     0.29300   0.79008   0.30130   0.00000  Uiso   1.00
C197   C     0.67733   0.24081   0.72968   0.00000  Uiso   1.00
C198   C     0.20821   0.29253   0.30422   0.00000  Uiso   1.00
C199   C     0.76070   0.67856   0.72249   0.00000  Uiso   1.00
C200   C     0.71177   0.20208   0.30906   0.00000  Uiso   1.00
C201   C     0.32132   0.76099   0.71963   0.00000  Uiso   1.00
C202   C     0.78926   0.70499   0.30470   0.00000  Uiso   1.00
C203   C     0.27313   0.76796   0.75288   0.00000  Uiso   1.00
C204   C     0.23898   0.32102   0.72075   0.00000  Uiso   1.00
C205   C     0.16632   0.33181   0.19473   0.00000  Uiso   1.00
C206   C     0.86039   0.69763   0.78107   0.00000  Uiso   1.00
C207   C     0.33378   0.83296   0.19294   0.00000  Uiso   1.00
C208   C     0.70069   0.13570   0.77309   0.00000  Uiso   1.00
C209   C     0.83698   0.67205   0.19556   0.00000  Uiso   1.00
C210   C     0.14172   0.30387   0.78455   0.00000  Uiso   1.00
C211   C     0.67158   0.16471   0.19786   0.00000  Uiso   1.00
C212   C     0.30628   0.85544   0.78885   0.00000  Uiso   1.00
C213   C     0.83799   0.32639   0.80381   0.00000  Uiso   1.00
C214   C     0.77318   0.26997   0.74907   0.00000  Uiso   1.00
C215   C     0.14142   0.69582   0.21463   0.00000  Uiso   1.00
C216   C     0.67110   0.83599   0.80437   0.00000  Uiso   1.00
C217   C     0.30356   0.14089   0.21609   0.00000  Uiso   1.00
C218   C     0.16993   0.66368   0.80632   0.00000  Uiso   1.00
C219   C     0.85925   0.30313   0.21654   0.00000  Uiso   1.00
C220   C     0.33083   0.16580   0.80449   0.00000  Uiso   1.00
C221   C     0.69811   0.86096   0.21991   0.00000  Uiso   1.00
C222   C     0.66463   0.82974   0.69515   0.00000  Uiso   1.00
C223   C     0.35837   0.19623   0.28453   0.00000  Uiso   1.00
C224   C     0.82717   0.33758   0.69545   0.00000  Uiso   1.00
H1     H     0.30870   0.26448   0.14260   0.00000  Uiso   1.00
H2     H     0.83045   0.16440   0.70457   0.00000  Uiso   1.00
H3     H     0.16019   0.45047   0.04451   0.00000  Uiso   1.00
H4     H     0.14991   0.37924   0.02686   0.00000  Uiso   1.00
H5     H     0.87945   0.65582   0.88142   0.00000  Uiso   1.00
H6     H     0.86970   0.72849   0.89292   0.00000  Uiso   1.00
H7     H     0.97007   0.74042   0.90358   0.00000  Uiso   1.00
H8     H     0.94359   0.69174   0.95702   0.00000  Uiso   1.00
H9     H     0.97980   0.66806   0.89147   0.00000  Uiso   1.00
H10    H     0.39552   0.78696   0.11534   0.00000  Uiso   1.00
H11    H     0.43339   0.83925   0.15472   0.00000  Uiso   1.00
H12    H     0.42214   0.90095   0.06594   0.00000  Uiso   1.00
H13    H     0.80119   0.09874   0.72590   0.00000  Uiso   1.00
H14    H     0.45818   0.83869   0.04843   0.00000  Uiso   1.00
H15    H     0.38763   0.84632   0.02673   0.00000  Uiso   1.00
H16    H     0.67386   0.10431   0.87564   0.00000  Uiso   1.00
H17    H     0.74775   0.10909   0.87545   0.00000  Uiso   1.00
H18    H     0.75378   0.00792   0.86577   0.00000  Uiso   1.00
H19    H     0.71614   0.02819   0.93171   0.00000  Uiso   1.00
H20    H     0.68007   0.00352   0.86652   0.00000  Uiso   1.00
H21    H     0.79690   0.61961   0.10674   0.00000  Uiso   1.00
H22    H     0.84687   0.57726   0.14406   0.00000  Uiso   1.00
H23    H     0.91382   0.59860   0.06266   0.00000  Uiso   1.00
H24    H     0.86316   0.12260   0.75949   0.00000  Uiso   1.00
H25    H     0.85256   0.56647   0.03456   0.00000  Uiso   1.00
H26    H     0.86242   0.63906   0.02528   0.00000  Uiso   1.00
H27    H     0.06564   0.33261   0.89541   0.00000  Uiso   1.00
H28    H     0.13340   0.35383   0.87821   0.00000  Uiso   1.00
H29    H     0.16936   0.26374   0.91001   0.00000  Uiso   1.00
H30    H     0.12563   0.29048   0.96765   0.00000  Uiso   1.00
H31    H     0.10070   0.23737   0.91860   0.00000  Uiso   1.00
H32    H     0.69533   0.07563   0.14434   0.00000  Uiso   1.00
H33    H     0.72680   0.13237   0.10555   0.00000  Uiso   1.00
H34    H     0.65566   0.12763   0.02650   0.00000  Uiso   1.00
H35    H     0.69722   0.74210   0.13947   0.00000  Uiso   1.00
H36    H     0.69189   0.06391   0.03426   0.00000  Uiso   1.00
H37    H     0.62396   0.07079   0.06480   0.00000  Uiso   1.00
H38    H     0.33933   0.92990   0.89970   0.00000  Uiso   1.00
H39    H     0.36136   0.86322   0.87913   0.00000  Uiso   1.00
H40    H     0.27547   0.82337   0.91707   0.00000  Uiso   1.00
H41    H     0.30227   0.86868   0.97324   0.00000  Uiso   1.00
H42    H     0.24592   0.89057   0.92713   0.00000  Uiso   1.00
H43    H     0.79690   0.39495   0.86817   0.00000  Uiso   1.00
H44    H     0.86432   0.42412   0.86359   0.00000  Uiso   1.00
H45    H     0.82911   0.42756   0.96677   0.00000  Uiso   1.00
H46    H     0.72236   0.67246   0.13420   0.00000  Uiso   1.00
H47    H     0.81971   0.35446   0.96694   0.00000  Uiso   1.00
H48    H     0.88776   0.38311   0.96253   0.00000  Uiso   1.00
H49    H     0.12055   0.65021   0.11656   0.00000  Uiso   1.00
H50    H     0.13209   0.72207   0.10142   0.00000  Uiso   1.00
H51    H     0.03209   0.73608   0.09079   0.00000  Uiso   1.00
H52    H     0.05678   0.68437   0.03978   0.00000  Uiso   1.00
H53    H     0.02037   0.66466   0.10678   0.00000  Uiso   1.00
H54    H     0.61703   0.79490   0.89167   0.00000  Uiso   1.00
H55    H     0.57555   0.84523   0.85379   0.00000  Uiso   1.00
H56    H     0.59519   0.91147   0.93640   0.00000  Uiso   1.00
H57    H     0.72868   0.71828   0.07222   0.00000  Uiso   1.00
H58    H     0.56248   0.85002   0.96305   0.00000  Uiso   1.00
H59    H     0.63488   0.85980   0.97430   0.00000  Uiso   1.00
H60    H     0.35046   0.12434   0.11770   0.00000  Uiso   1.00
H61    H     0.27865   0.13610   0.10242   0.00000  Uiso   1.00
H62    H     0.26520   0.03659   0.08653   0.00000  Uiso   1.00
H63    H     0.31713   0.06378   0.03733   0.00000  Uiso   1.00
H64    H     0.33660   0.02469   0.10254   0.00000  Uiso   1.00
H65    H     0.21545   0.60172   0.88444   0.00000  Uiso   1.00
H66    H     0.16305   0.56448   0.84431   0.00000  Uiso   1.00
H67    H     0.10096   0.57474   0.93225   0.00000  Uiso   1.00
H68    H     0.15667   0.17098   0.72583   0.00000  Uiso   1.00
H69    H     0.16355   0.54003   0.95144   0.00000  Uiso   1.00
H70    H     0.15417   0.61071   0.97219   0.00000  Uiso   1.00
H71    H     0.93154   0.33377   0.10327   0.00000  Uiso   1.00
H72    H     0.86378   0.35325   0.12266   0.00000  Uiso   1.00
H73    H     0.89743   0.23707   0.08226   0.00000  Uiso   1.00
H74    H     0.82869   0.26321   0.09093   0.00000  Uiso   1.00
H75    H     0.87214   0.28943   0.03272   0.00000  Uiso   1.00
H76    H     0.38761   0.20947   0.88832   0.00000  Uiso   1.00
H77    H     0.42786   0.15820   0.85028   0.00000  Uiso   1.00
H78    H     0.41163   0.09423   0.93557   0.00000  Uiso   1.00
H79    H     0.09604   0.20029   0.76070   0.00000  Uiso   1.00
H80    H     0.44462   0.15659   0.95912   0.00000  Uiso   1.00
H81    H     0.37274   0.14654   0.97350   0.00000  Uiso   1.00
H82    H     0.65878   0.87686   0.11853   0.00000  Uiso   1.00
H83    H     0.73212   0.87179   0.10838   0.00000  Uiso   1.00
H84    H     0.66425   0.97729   0.10866   0.00000  Uiso   1.00
H85    H     0.73739   0.97303   0.09853   0.00000  Uiso   1.00
H86    H     0.69196   0.94319   0.04368   0.00000  Uiso   1.00
H87    H     0.70733   0.88579   0.61066   0.00000  Uiso   1.00
H88    H     0.65599   0.92641   0.64803   0.00000  Uiso   1.00
H89    H     0.59189   0.90848   0.56308   0.00000  Uiso   1.00
H90    H     0.12774   0.14077   0.79157   0.00000  Uiso   1.00
H91    H     0.65400   0.94163   0.53904   0.00000  Uiso   1.00
H92    H     0.64451   0.86951   0.52576   0.00000  Uiso   1.00
H93    H     0.43362   0.16690   0.39576   0.00000  Uiso   1.00
H94    H     0.36563   0.14654   0.37833   0.00000  Uiso   1.00
H95    H     0.33067   0.23689   0.41032   0.00000  Uiso   1.00
H96    H     0.37436   0.21000   0.46789   0.00000  Uiso   1.00
H97    H     0.39957   0.26273   0.41863   0.00000  Uiso   1.00
H98    H     0.88080   0.29921   0.60788   0.00000  Uiso   1.00
H99    H     0.92168   0.35201   0.64228   0.00000  Uiso   1.00
H100   H     0.89523   0.41571   0.55942   0.00000  Uiso   1.00
H101   H     0.70854   0.30925   0.15841   0.00000  Uiso   1.00
H102   H     0.92985   0.35538   0.53261   0.00000  Uiso   1.00
H103   H     0.85669   0.36111   0.52485   0.00000  Uiso   1.00
H104   H     0.17516   0.56460   0.39314   0.00000  Uiso   1.00
H105   H     0.15555   0.63317   0.37786   0.00000  Uiso   1.00
H106   H     0.24835   0.66584   0.40217   0.00000  Uiso   1.00
H107   H     0.22649   0.62124   0.46091   0.00000  Uiso   1.00
H108   H     0.27397   0.59651   0.40549   0.00000  Uiso   1.00
H109   H     0.28961   0.11119   0.61242   0.00000  Uiso   1.00
H110   H     0.34047   0.07121   0.65139   0.00000  Uiso   1.00
H111   H     0.40461   0.08532   0.56550   0.00000  Uiso   1.00
H112   H     0.28389   0.33439   0.14068   0.00000  Uiso   1.00
H113   H     0.65304   0.26493   0.13307   0.00000  Uiso   1.00
H114   H     0.34218   0.05161   0.54343   0.00000  Uiso   1.00
H115   H     0.35207   0.12302   0.52656   0.00000  Uiso   1.00
H116   H     0.56008   0.82688   0.39064   0.00000  Uiso   1.00
H117   H     0.62865   0.84818   0.37804   0.00000  Uiso   1.00
H118   H     0.66256   0.75645   0.40662   0.00000  Uiso   1.00
H119   H     0.61659   0.78092   0.46335   0.00000  Uiso   1.00
H120   H     0.59343   0.73033   0.41018   0.00000  Uiso   1.00
H121   H     0.19344   0.57858   0.64229   0.00000  Uiso   1.00
H122   H     0.21974   0.63485   0.59820   0.00000  Uiso   1.00
H123   H     0.14290   0.62513   0.52684   0.00000  Uiso   1.00
H124   H     0.70681   0.28447   0.08312   0.00000  Uiso   1.00
H125   H     0.18016   0.56182   0.53441   0.00000  Uiso   1.00
H126   H     0.11510   0.57014   0.57112   0.00000  Uiso   1.00
H127   H     0.85391   0.37867   0.38357   0.00000  Uiso   1.00
H128   H     0.78305   0.36470   0.40159   0.00000  Uiso   1.00
H129   H     0.76616   0.46421   0.41344   0.00000  Uiso   1.00
H130   H     0.82007   0.44097   0.46234   0.00000  Uiso   1.00
H131   H     0.83666   0.47822   0.39495   0.00000  Uiso   1.00
H132   H     0.28558   0.88785   0.38555   0.00000  Uiso   1.00
H133   H     0.33371   0.92813   0.34293   0.00000  Uiso   1.00
H134   H     0.33727   0.95281   0.44941   0.00000  Uiso   1.00
H135   H     0.16079   0.82026   0.74992   0.00000  Uiso   1.00
H136   H     0.35046   0.88282   0.47002   0.00000  Uiso   1.00
H137   H     0.40045   0.92068   0.42734   0.00000  Uiso   1.00
H138   H     0.60487   0.17286   0.62437   0.00000  Uiso   1.00
H139   H     0.61114   0.24662   0.62374   0.00000  Uiso   1.00
H140   H     0.51028   0.25493   0.63357   0.00000  Uiso   1.00
H141   H     0.52935   0.21569   0.56826   0.00000  Uiso   1.00
H142   H     0.50419   0.18135   0.63433   0.00000  Uiso   1.00
H143   H     0.11191   0.28960   0.38780   0.00000  Uiso   1.00
H144   H     0.07169   0.34039   0.34898   0.00000  Uiso   1.00
H145   H     0.08630   0.40480   0.43430   0.00000  Uiso   1.00
H146   H     0.19475   0.88623   0.75924   0.00000  Uiso   1.00
H147   H     0.05354   0.34225   0.45755   0.00000  Uiso   1.00
H148   H     0.12516   0.35298   0.47302   0.00000  Uiso   1.00
H149   H     0.84432   0.61975   0.61839   0.00000  Uiso   1.00
H150   H     0.77165   0.62919   0.60656   0.00000  Uiso   1.00
H151   H     0.76000   0.52868   0.59722   0.00000  Uiso   1.00
H152   H     0.80883   0.55460   0.54361   0.00000  Uiso   1.00
H153   H     0.83233   0.51923   0.60976   0.00000  Uiso   1.00
H154   H     0.71465   0.10091   0.38434   0.00000  Uiso   1.00
H155   H     0.66168   0.06404   0.34474   0.00000  Uiso   1.00
H156   H     0.66303   0.03932   0.45170   0.00000  Uiso   1.00
H157   H     0.14439   0.86356   0.81180   0.00000  Uiso   1.00
H158   H     0.65435   0.11000   0.47280   0.00000  Uiso   1.00
H159   H     0.60048   0.07450   0.43340   0.00000  Uiso   1.00
H160   H     0.42778   0.83835   0.59961   0.00000  Uiso   1.00
H161   H     0.36125   0.85867   0.62272   0.00000  Uiso   1.00
H162   H     0.39084   0.74357   0.57524   0.00000  Uiso   1.00
H163   H     0.32302   0.77036   0.58876   0.00000  Uiso   1.00
H164   H     0.36435   0.79834   0.52975   0.00000  Uiso   1.00
H165   H     0.88046   0.70265   0.39369   0.00000  Uiso   1.00
H166   H     0.92264   0.65257   0.35629   0.00000  Uiso   1.00
H167   H     0.90043   0.58541   0.43721   0.00000  Uiso   1.00
H168   H     0.70376   0.25857   0.86149   0.00000  Uiso   1.00
H169   H     0.93287   0.64631   0.46581   0.00000  Uiso   1.00
H170   H     0.86016   0.63693   0.47466   0.00000  Uiso   1.00
H171   H     0.15222   0.37457   0.61785   0.00000  Uiso   1.00
H172   H     0.22470   0.36651   0.60346   0.00000  Uiso   1.00
H173   H     0.16114   0.47469   0.60467   0.00000  Uiso   1.00
H174   H     0.23324   0.46696   0.58956   0.00000  Uiso   1.00
H175   H     0.18345   0.43776   0.53902   0.00000  Uiso   1.00
H176   H     0.73737   0.32208   0.88244   0.00000  Uiso   1.00
H177   H     0.73992   0.26401   0.93071   0.00000  Uiso   1.00
H178   H     0.16664   0.83265   0.26508   0.00000  Uiso   1.00
H179   H     0.10258   0.80200   0.24024   0.00000  Uiso   1.00
H180   H     0.28070   0.29220   0.07533   0.00000  Uiso   1.00
H181   H     0.13171   0.85858   0.20075   0.00000  Uiso   1.00
H182   H     0.73928   0.69509   0.85813   0.00000  Uiso   1.00
H183   H     0.66999   0.72099   0.86432   0.00000  Uiso   1.00
H184   H     0.71610   0.72540   0.92628   0.00000  Uiso   1.00
H185   H     0.16760   0.16174   0.26847   0.00000  Uiso   1.00
H186   H     0.19783   0.09903   0.23938   0.00000  Uiso   1.00
H187   H     0.14051   0.12976   0.20278   0.00000  Uiso   1.00
H188   H     0.28976   0.65638   0.85615   0.00000  Uiso   1.00
H189   H     0.29111   0.69781   0.92219   0.00000  Uiso   1.00
H190   H     0.31563   0.72602   0.85356   0.00000  Uiso   1.00
H191   H     0.83915   0.83093   0.72195   0.00000  Uiso   1.00
H192   H     0.84746   0.16774   0.27235   0.00000  Uiso   1.00
H193   H     0.90689   0.19972   0.23771   0.00000  Uiso   1.00
H194   H     0.87601   0.14054   0.20487   0.00000  Uiso   1.00
H195   H     0.26464   0.30856   0.85563   0.00000  Uiso   1.00
H196   H     0.33407   0.28270   0.85994   0.00000  Uiso   1.00
H197   H     0.29006   0.28031   0.92384   0.00000  Uiso   1.00
H198   H     0.82978   0.84082   0.28122   0.00000  Uiso   1.00
H199   H     0.80153   0.90381   0.25061   0.00000  Uiso   1.00
H200   H     0.86150   0.87377   0.21871   0.00000  Uiso   1.00
H201   H     0.80522   0.76082   0.64059   0.00000  Uiso   1.00
H202   H     0.90240   0.80183   0.75096   0.00000  Uiso   1.00
H203   H     0.77993   0.83039   0.63547   0.00000  Uiso   1.00
H204   H     0.77492   0.78503   0.57289   0.00000  Uiso   1.00
H205   H     0.34444   0.32929   0.22664   0.00000  Uiso   1.00
H206   H     0.40458   0.29979   0.26229   0.00000  Uiso   1.00
H207   H     0.37257   0.35926   0.29296   0.00000  Uiso   1.00
H208   H     0.75379   0.20142   0.63562   0.00000  Uiso   1.00
H209   H     0.82235   0.22787   0.62396   0.00000  Uiso   1.00
H210   H     0.77078   0.23662   0.56815   0.00000  Uiso   1.00
H211   H     0.29999   0.58951   0.25919   0.00000  Uiso   1.00
H212   H     0.36165   0.62355   0.28058   0.00000  Uiso   1.00
H213   H     0.87276   0.86101   0.78504   0.00000  Uiso   1.00
H214   H     0.32613   0.64649   0.21523   0.00000  Uiso   1.00
H215   H     0.19238   0.23672   0.64248   0.00000  Uiso   1.00
H216   H     0.21728   0.16688   0.63972   0.00000  Uiso   1.00
H217   H     0.22085   0.20980   0.57503   0.00000  Uiso   1.00
H218   H     0.65802   0.67259   0.21733   0.00000  Uiso   1.00
H219   H     0.59589   0.70036   0.25049   0.00000  Uiso   1.00
H220   H     0.62629   0.63951   0.27975   0.00000  Uiso   1.00
H221   H     0.20728   0.81058   0.65764   0.00000  Uiso   1.00
H222   H     0.15035   0.76714   0.63435   0.00000  Uiso   1.00
H223   H     0.20268   0.78615   0.58236   0.00000  Uiso   1.00
H224   H     0.26593   0.69146   0.13640   0.00000  Uiso   1.00
H225   H     0.66064   0.31845   0.25012   0.00000  Uiso   1.00
H226   H     0.69360   0.38512   0.25742   0.00000  Uiso   1.00
H227   H     0.64351   0.36308   0.31060   0.00000  Uiso   1.00
H228   H     0.19177   0.76049   0.35021   0.00000  Uiso   1.00
H229   H     0.21657   0.83015   0.35715   0.00000  Uiso   1.00
H230   H     0.21884   0.78454   0.41962   0.00000  Uiso   1.00
H231   H     0.67711   0.33268   0.79101   0.00000  Uiso   1.00
H232   H     0.60955   0.30246   0.78061   0.00000  Uiso   1.00
H233   H     0.62902   0.36281   0.74072   0.00000  Uiso   1.00
H234   H     0.23515   0.19101   0.35437   0.00000  Uiso   1.00
H235   H     0.33617   0.71558   0.13792   0.00000  Uiso   1.00
H236   H     0.16569   0.21678   0.35872   0.00000  Uiso   1.00
H237   H     0.20955   0.21870   0.42279   0.00000  Uiso   1.00
H238   H     0.66860   0.66302   0.77654   0.00000  Uiso   1.00
H239   H     0.69782   0.59914   0.74934   0.00000  Uiso   1.00
H240   H     0.63910   0.62828   0.71386   0.00000  Uiso   1.00
H241   H     0.81377   0.22740   0.35817   0.00000  Uiso   1.00
H242   H     0.78833   0.15759   0.36029   0.00000  Uiso   1.00
H243   H     0.78770   0.19924   0.42614   0.00000  Uiso   1.00
H244   H     0.34552   0.66705   0.76492   0.00000  Uiso   1.00
H245   H     0.40508   0.69986   0.73148   0.00000  Uiso   1.00
H246   H     0.29616   0.72076   0.07110   0.00000  Uiso   1.00
H247   H     0.37379   0.64204   0.69628   0.00000  Uiso   1.00
H248   H     0.75972   0.80381   0.36013   0.00000  Uiso   1.00
H249   H     0.82906   0.77791   0.36575   0.00000  Uiso   1.00
H250   H     0.78293   0.77237   0.42760   0.00000  Uiso   1.00
H251   H     0.33222   0.33937   0.77091   0.00000  Uiso   1.00
H252   H     0.30224   0.40194   0.74127   0.00000  Uiso   1.00
H253   H     0.36008   0.37124   0.70560   0.00000  Uiso   1.00
H254   H     0.21178   0.39039   0.11357   0.00000  Uiso   1.00
H255   H     0.16052   0.43001   0.15242   0.00000  Uiso   1.00
H256   H     0.09733   0.41710   0.06561   0.00000  Uiso   1.00
O1     O    -0.00000   0.50000   0.25000   0.00000  Uiso   1.00
O2     O     0.00000   0.45454   0.88202   0.00000  Uiso   1.00
O3     O     0.70713   0.90851   0.18805   0.00000  Uiso   1.00
O4     O     0.63911   0.84296   0.64168   0.00000  Uiso   1.00
O5     O     0.40371   0.20435   0.32050   0.00000  Uiso   1.00
O6     O     0.83755   0.36572   0.64283   0.00000  Uiso   1.00
O7     O     0.20719   0.59365   0.31455   0.00000  Uiso   1.00
O8     O     0.35848   0.15415   0.64123   0.00000  Uiso   1.00
O9     O     0.59345   0.79302   0.31504   0.00000  Uiso   1.00
O10    O     0.14643   0.64989   0.64298   0.00000  Uiso   1.00
O11    O     0.79635   0.40407   0.31999   0.00000  Uiso   1.00
O12    O     0.35516   0.84629   0.35718   0.00000  Uiso   1.00
O13    O     0.54546  -0.00000   0.11798   0.00000  Uiso   1.00
O14    O     0.58604   0.21283   0.70493   0.00000  Uiso   1.00
O15    O     0.15478   0.35818   0.35820   0.00000  Uiso   1.00
O16    O     0.79310   0.59193   0.68718   0.00000  Uiso   1.00
O17    O     0.64604   0.14666   0.36067   0.00000  Uiso   1.00
O18    O     0.40177   0.79839   0.67504   0.00000  Uiso   1.00
O19    O     0.83902   0.63579   0.35726   0.00000  Uiso   1.00
O20    O     0.20504   0.40621   0.68323   0.00000  Uiso   1.00
O21    O     0.45454  -0.00000   0.88202   0.00000  Uiso   1.00
O22    O     0.50000   0.95454   0.61798   0.00000  Uiso   1.00
O23    O     0.50000   0.04546   0.38202   0.00000  Uiso   1.00
O24    O     0.95454   0.50000   0.61798   0.00000  Uiso   1.00
O25    O     0.04546   0.50000   0.38202   0.00000  Uiso   1.00
O26    O     0.50000   0.04546   0.61798   0.00000  Uiso   1.00
O27    O     0.50000   0.95454   0.38202   0.00000  Uiso   1.00
O28    O     0.04546   0.50000   0.61798   0.00000  Uiso   1.00
O29    O    -0.00000   0.50000   0.75000   0.00000  Uiso   1.00
O30    O     0.95454   0.50000   0.38202   0.00000  Uiso   1.00
O31    O     0.06399   0.60947   0.21539   0.00000  Uiso   1.00
O32    O     0.93601   0.39053   0.78461   0.00000  Uiso   1.00
O33    O     0.60947   0.93601   0.21539   0.00000  Uiso   1.00
O34    O     0.39053   0.06399   0.78461   0.00000  Uiso   1.00
O35    O     0.93601   0.39053   0.21539   0.00000  Uiso   1.00
O36    O     0.06399   0.60947   0.78461   0.00000  Uiso   1.00
O37    O     0.39053   0.06399   0.21539   0.00000  Uiso   1.00
O38    O     0.60947   0.93601   0.78461   0.00000  Uiso   1.00
O39    O     0.93601   0.60947   0.78461   0.00000  Uiso   1.00
O40    O     0.50000  -0.00000   0.25000   0.00000  Uiso   1.00
O41    O     0.06399   0.39053   0.21539   0.00000  Uiso   1.00
O42    O     0.39053   0.93601   0.78461   0.00000  Uiso   1.00
O43    O     0.60947   0.06399   0.21539   0.00000  Uiso   1.00
O44    O     0.06399   0.39053   0.78461   0.00000  Uiso   1.00
O45    O     0.93601   0.60947   0.21539   0.00000  Uiso   1.00
O46    O     0.60947   0.06399   0.78461   0.00000  Uiso   1.00
O47    O     0.39053   0.93601   0.21539   0.00000  Uiso   1.00
O48    O     0.56399   0.10947   0.71539   0.00000  Uiso   1.00
O49    O     0.43601   0.89053   0.28461   0.00000  Uiso   1.00
O50    O     0.10947   0.43601   0.71539   0.00000  Uiso   1.00
O51    O     0.50000  -0.00000   0.75000   0.00000  Uiso   1.00
O52    O     0.89053   0.56399   0.28461   0.00000  Uiso   1.00
O53    O     0.43601   0.89053   0.71539   0.00000  Uiso   1.00
O54    O     0.56399   0.10947   0.28461   0.00000  Uiso   1.00
O55    O     0.89053   0.56399   0.71539   0.00000  Uiso   1.00
O56    O     0.10947   0.43601   0.28461   0.00000  Uiso   1.00
O57    O     0.43601   0.10947   0.28461   0.00000  Uiso   1.00
O58    O     0.56399   0.89053   0.71539   0.00000  Uiso   1.00
O59    O     0.89053   0.43601   0.28461   0.00000  Uiso   1.00
O60    O     0.10947   0.56399   0.71539   0.00000  Uiso   1.00
O61    O     0.56399   0.89053   0.28461   0.00000  Uiso   1.00
O62    O     0.00000   0.45454   0.11798   0.00000  Uiso   1.00
O63    O     0.43601   0.10947   0.71539   0.00000  Uiso   1.00
O64    O     0.10947   0.56399   0.28461   0.00000  Uiso   1.00
O65    O     0.89053   0.43601   0.71539   0.00000  Uiso   1.00
O66    O     0.22425   0.27171   0.13941   0.00000  Uiso   1.00
O67    O     0.83243   0.78957   0.80316   0.00000  Uiso   1.00
O68    O     0.27406   0.77577   0.13604   0.00000  Uiso   1.00
O69    O     0.79438   0.16193   0.78890   0.00000  Uiso   1.00
O70    O     0.78174   0.73510   0.14097   0.00000  Uiso   1.00
O71    O     0.16970   0.21190   0.80650   0.00000  Uiso   1.00
O72    O     0.72960   0.22799   0.14599   0.00000  Uiso   1.00
O73    O     0.00000   0.54546   0.88202   0.00000  Uiso   1.00
O74    O     0.21767   0.82387   0.81878   0.00000  Uiso   1.00
O75    O     0.78852   0.25713   0.85630   0.00000  Uiso   1.00
O76    O     0.17141   0.78600   0.18731   0.00000  Uiso   1.00
O77    O     0.73327   0.77972   0.85891   0.00000  Uiso   1.00
O78    O     0.21288   0.17013   0.19002   0.00000  Uiso   1.00
O79    O     0.23139   0.71971   0.86245   0.00000  Uiso   1.00
O80    O     0.83221   0.21104   0.19381   0.00000  Uiso   1.00
O81    O     0.27055   0.22399   0.85919   0.00000  Uiso   1.00
O82    O     0.79044   0.83342   0.19879   0.00000  Uiso   1.00
O83    O     0.72065   0.76756   0.64024   0.00000  Uiso   1.00
O84    O     0.45454  -0.00000   0.11798   0.00000  Uiso   1.00
O85    O     0.33033   0.28815   0.30690   0.00000  Uiso   1.00
O86    O     0.76044   0.28583   0.64168   0.00000  Uiso   1.00
O87    O     0.29185   0.66683   0.29795   0.00000  Uiso   1.00
O88    O     0.27686   0.22962   0.63988   0.00000  Uiso   1.00
O89    O     0.66744   0.70985   0.30071   0.00000  Uiso   1.00
O90    O     0.22681   0.72911   0.64400   0.00000  Uiso   1.00
O91    O     0.71738   0.32468   0.31895   0.00000  Uiso   1.00
O92    O     0.27621   0.76770   0.35529   0.00000  Uiso   1.00
O93    O     0.66511   0.29283   0.70978   0.00000  Uiso   1.00
O94    O     0.22915   0.27554   0.35883   0.00000  Uiso   1.00
O95    O     0.54546  -0.00000   0.88202   0.00000  Uiso   1.00
O96    O     0.71085   0.66807   0.69574   0.00000  Uiso   1.00
O97    O     0.72941   0.22057   0.36449   0.00000  Uiso   1.00
O98    O     0.33039   0.71313   0.68829   0.00000  Uiso   1.00
O99    O     0.76578   0.71921   0.35903   0.00000  Uiso   1.00
O100   O     0.28794   0.33071   0.69177   0.00000  Uiso   1.00
O101   O     0.14260   0.34717   0.14096   0.00000  Uiso   1.00
O102   O     0.90798   0.70687   0.81288   0.00000  Uiso   1.00
O103   O     0.35087   0.85620   0.13954   0.00000  Uiso   1.00
O104   O     0.71268   0.08419   0.79479   0.00000  Uiso   1.00
O105   O     0.86421   0.66075   0.14258   0.00000  Uiso   1.00
O106   O     0.00000   0.54546   0.11798   0.00000  Uiso   1.00
O107   O     0.09622   0.29554   0.82019   0.00000  Uiso   1.00
O108   O     0.65017   0.14787   0.14347   0.00000  Uiso   1.00
O109   O     0.29891   0.89988   0.82632   0.00000  Uiso   1.00
O110   O     0.86281   0.33958   0.85773   0.00000  Uiso   1.00
O111   O     0.09384   0.70474   0.18273   0.00000  Uiso   1.00
O112   O     0.65907   0.86237   0.85768   0.00000  Uiso   1.00
O113   O     0.29558   0.09451   0.18182   0.00000  Uiso   1.00
O114   O     0.14687   0.64704   0.85995   0.00000  Uiso   1.00
O115   O     0.90390   0.29596   0.17933   0.00000  Uiso   1.00
O116   O     0.34456   0.14109   0.85824   0.00000  Uiso   1.00
Zn1    Zn    0.06497   0.50000   0.29947   0.00000  Uiso   1.00
Zn2    Zn    0.43503  -0.00000   0.20053   0.00000  Uiso   1.00
Zn3    Zn    0.00000   0.43503   0.79947   0.00000  Uiso   1.00
Zn4    Zn   -0.00000   0.56497   0.20053   0.00000  Uiso   1.00
Zn5    Zn    0.43503  -0.00000   0.79947   0.00000  Uiso   1.00
Zn6    Zn    0.56497  -0.00000   0.20053   0.00000  Uiso   1.00
Zn7    Zn   -0.00000   0.56497   0.79947   0.00000  Uiso   1.00
Zn8    Zn    0.00000   0.43503   0.20053   0.00000  Uiso   1.00
Zn9    Zn    0.93503   0.50000   0.70053   0.00000  Uiso   1.00
Zn10   Zn    0.50000   0.93503   0.29947   0.00000  Uiso   1.00
Zn11   Zn    0.50000   0.06497   0.70053   0.00000  Uiso   1.00
Zn12   Zn    0.93503   0.50000   0.29947   0.00000  Uiso   1.00
Zn13   Zn    0.06497   0.50000   0.70053   0.00000  Uiso   1.00
Zn14   Zn    0.50000   0.06497   0.29947   0.00000  Uiso   1.00
Zn15   Zn    0.50000   0.93503   0.70053   0.00000  Uiso   1.00
Zn16   Zn    0.56497  -0.00000   0.79947   0.00000  Uiso   1.00
loop_
_geom_bond_atom_site_label_1
_geom_bond_atom_site_label_2
_geom_bond_distance
_geom_bond_site_symmetry_2
_ccdc_geom_bond_type
C1     C198    1.417   .     A
C1     C169    1.416   .     A
C1     C24     1.476   .     S
C2     C190    1.405   .     A
C2     C148    1.474   .     S
C2     C179    1.406   .     A
C3     C190    1.403   .     A
C3     C27     1.418   .     A
C3     O7      1.385   .     S
C4     C191    1.399   .     A
C4     O8      1.386   .     S
C4     C32     1.410   .     A
C5     C33     1.418   .     A
C5     O9      1.385   .     S
C5     C193    1.400   .     A
C6     C30     1.406   .     A
C6     C194    1.401   .     A
C6     O10     1.385   .     S
C7     O11     1.384   .     S
C7     C195    1.402   .     A
C7     C31     1.417   .     A
C8     O12     1.386   .     S
C8     C19     1.408   .     A
C8     C196    1.399   .     A
C9     C197    1.402   .     A
C9     O14     1.384   .     S
C9     C20     1.413   .     A
C10    O15     1.386   .     S
C10    C17     1.409   .     A
C10    C198    1.399   .     A
C11    C18     1.415   .     A
C11    C199    1.402   .     A
C11    O16     1.384   .     S
C12    C23     1.410   .     A
C12    O17     1.385   .     S
C12    C200    1.401   .     A
C13    C112    1.476   .     S
C13    C187    1.416   .     A
C13    C180    1.416   .     A
C14    C201    1.400   .     A
C14    C25     1.418   .     A
C14    O18     1.385   .     S
C15    C202    1.399   .     A
C15    O19     1.386   .     S
C15    C21     1.411   .     A
C16    C204    1.402   .     A
C16    C22     1.416   .     A
C16    O20     1.383   .     S
C17    C205    1.410   .     A
C17    C162    1.462   .     S
C18    C161    1.480   .     S
C18    C206    1.415   .     A
C19    C168    1.461   .     S
C19    C207    1.410   .     A
C20    C167    1.477   .     S
C20    C208    1.414   .     A
C21    C166    1.464   .     S
C21    C209    1.411   .     A
C22    C210    1.418   .     A
C22    C165    1.482   .     S
C23    C164    1.462   .     S
C23    C211    1.406   .     A
C24    C188    1.406   .     A
C24    C182    1.407   .     A
C25    C163    1.483   .     S
C25    C212    1.419   .     A
C26    C224    1.412   .     A
C26    C213    1.412   .     A
C26    C153    1.465   .     S
C27    C152    1.482   .     S
C27    C215    1.417   .     A
C28    C216    1.410   .     A
C28    C222    1.410   .     A
C28    C160    1.463   .     S
C29    C158    1.482   .     S
C29    C223    1.418   .     A
C29    C217    1.416   .     A
C30    C218    1.409   .     A
C30    C157    1.461   .     S
C31    C156    1.482   .     S
C31    C219    1.418   .     A
C32    C155    1.462   .     S
C32    C220    1.409   .     A
C33    C221    1.415   .     A
C33    C154    1.480   .     S
C34    H1      1.109   .     S
C34    H112    1.114   .     S
C34    O66     1.413   .     S
C34    H180    1.109   .     S
C35    C183    1.416   .     A
C35    C194    1.412   .     A
C35    C203    1.474   .     S
C36    H202    1.113   .     S
C36    H213    1.109   .     S
C36    O67     1.409   .     S
C36    H191    1.110   .     S
C37    O68     1.412   .     S
C37    H235    1.114   .     S
C37    H224    1.109   .     S
C37    H246    1.109   .     S
C38    H2      1.110   .     S
C38    H24     1.109   .     S
C38    O69     1.409   .     S
C38    H13     1.113   .     S
C39    H46     1.114   .     S
C39    O70     1.413   .     S
C39    H35     1.109   .     S
C39    H57     1.109   .     S
C40    H79     1.113   .     S
C40    O71     1.409   .     S
C40    H90     1.109   .     S
C40    H68     1.111   .     S
C41    O72     1.409   .     S
C41    H113    1.114   .     S
C41    H124    1.109   .     S
C41    H101    1.110   .     S
C42    H157    1.109   .     S
C42    O74     1.409   .     S
C42    H135    1.110   .     S
C42    H146    1.115   .     S
C43    O75     1.411   .     S
C43    H176    1.112   .     S
C43    H177    1.109   .     S
C43    H168    1.109   .     S
C44    H181    1.109   .     S
C44    H178    1.110   .     S
C44    O76     1.409   .     S
C44    H179    1.113   .     S
C45    H184    1.109   .     S
C45    O77     1.413   .     S
C45    H183    1.114   .     S
C45    H182    1.109   .     S
C46    C184    1.406   .     A
C46    C195    1.407   .     A
C46    C192    1.474   .     S
C47    H186    1.113   .     S
C47    H187    1.109   .     S
C47    O78     1.409   .     S
C47    H185    1.111   .     S
C48    H188    1.114   .     S
C48    H189    1.109   .     S
C48    O79     1.412   .     S
C48    H190    1.109   .     S
C49    H194    1.109   .     S
C49    H192    1.110   .     S
C49    O80     1.409   .     S
C49    H193    1.113   .     S
C50    H195    1.109   .     S
C50    H196    1.114   .     S
C50    H197    1.109   .     S
C50    O81     1.413   .     S
C51    O82     1.409   .     S
C51    H200    1.109   .     S
C51    H198    1.111   .     S
C51    H199    1.113   .     S
C52    O83     1.413   .     S
C52    H201    1.109   .     S
C52    H203    1.114   .     S
C52    H204    1.109   .     S
C53    H206    1.113   .     S
C53    H205    1.111   .     S
C53    H207    1.109   .     S
C53    O85     1.409   .     S
C54    O86     1.412   .     S
C54    H209    1.113   .     S
C54    H208    1.109   .     S
C54    H210    1.109   .     S
C55    H211    1.112   .     S
C55    H214    1.111   .     S
C55    H212    1.109   .     S
C55    O87     1.409   .     S
C56    H217    1.109   .     S
C56    O88     1.413   .     S
C56    H216    1.114   .     S
C56    H215    1.109   .     S
C57    C185    1.416   .     A
C57    C191    1.416   .     A
C57    C181    1.475   .     S
C58    O89     1.409   .     S
C58    H220    1.109   .     S
C58    H218    1.111   .     S
C58    H219    1.113   .     S
C59    H222    1.114   .     S
C59    H223    1.109   .     S
C59    H221    1.110   .     S
C59    O90     1.409   .     S
C60    H226    1.115   .     S
C60    H225    1.110   .     S
C60    O91     1.409   .     S
C60    H227    1.109   .     S
C61    H230    1.109   .     S
C61    H229    1.113   .     S
C61    H228    1.109   .     S
C61    O92     1.412   .     S
C62    H232    1.114   .     S
C62    O93     1.409   .     S
C62    H233    1.109   .     S
C62    H231    1.110   .     S
C63    H237    1.109   .     S
C63    H236    1.114   .     S
C63    H234    1.109   .     S
C63    O94     1.413   .     S
C64    H238    1.110   .     S
C64    H240    1.109   .     S
C64    O96     1.409   .     S
C64    H239    1.113   .     S
C65    H242    1.114   .     S
C65    H241    1.109   .     S
C65    H243    1.109   .     S
C65    O97     1.412   .     S
C66    H245    1.113   .     S
C66    H244    1.111   .     S
C66    H247    1.109   .     S
C66    O98     1.409   .     S
C67    O99     1.413   .     S
C67    H250    1.109   .     S
C67    H248    1.109   .     S
C67    H249    1.114   .     S
C68    C193    1.406   .     A
C68    C186    1.406   .     A
C68    C170    1.475   .     S
C69    H251    1.111   .     S
C69    H253    1.109   .     S
C69    H252    1.113   .     S
C69    O100    1.409   .     S
C70    H254    1.111   .     S
C70    O101    1.413   .     S
C70    H255    1.113   .     S
C70    C71     1.521   .     S
C71    H256    1.110   .     S
C71    H4      1.111   .     S
C71    H3      1.111   .     S
C72    H5      1.116   .     S
C72    O102    1.414   .     S
C72    C73     1.521   .     S
C72    H6      1.113   .     S
C73    H7      1.111   .     S
C73    H9      1.111   .     S
C73    H8      1.111   .     S
C74    H10     1.111   .     S
C74    O103    1.414   .     S
C74    C75     1.521   .     S
C74    H11     1.113   .     S
C75    H14     1.111   .     S
C75    H12     1.110   .     S
C75    H15     1.110   .     S
C76    H16     1.116   .     S
C76    H17     1.112   .     S
C76    O104    1.414   .     S
C76    C77     1.522   .     S
C77    H20     1.111   .     S
C77    H19     1.110   .     S
C77    H18     1.111   .     S
C78    H21     1.111   .     S
C78    C80     1.522   .     S
C78    H22     1.113   .     S
C78    O105    1.413   .     S
C79    C90     1.193   .     T
C79    C151    1.414   1_655 S
C80    H23     1.110   .     S
C80    H26     1.111   .     S
C80    H25     1.111   .     S
C81    H27     1.111   .     S
C81    H28     1.117   .     S
C81    O107    1.419   .     S
C81    C82     1.525   .     S
C82    H29     1.109   .     S
C82    H30     1.110   .     S
C82    H31     1.111   .     S
C83    H32     1.114   .     S
C83    O108    1.413   .     S
C83    H33     1.112   .     S
C83    C84     1.521   .     S
C84    H37     1.110   .     S
C84    H34     1.111   .     S
C84    H36     1.110   .     S
C85    H39     1.117   .     S
C85    C86     1.526   .     S
C85    H38     1.111   .     S
C85    O109    1.419   .     S
C86    H40     1.109   .     S
C86    H42     1.111   .     S
C86    H41     1.110   .     S
C87    H44     1.110   .     S
C87    H43     1.116   .     S
C87    C88     1.521   .     S
C87    O110    1.417   .     S
C88    H45     1.111   .     S
C88    H47     1.110   .     S
C88    H48     1.111   .     S
C89    H49     1.116   .     S
C89    O111    1.414   .     S
C89    C91     1.522   .     S
C89    H50     1.113   .     S
C90    C150    1.414   1_655 S
C91    H52     1.111   .     S
C91    H53     1.111   .     S
C91    H51     1.111   .     S
C92    H54     1.111   .     S
C92    C93     1.522   .     S
C92    O112    1.413   .     S
C92    H55     1.113   .     S
C93    H58     1.111   .     S
C93    H56     1.110   .     S
C93    H59     1.111   .     S
C94    O113    1.414   .     S
C94    H61     1.113   .     S
C94    C95     1.521   .     S
C94    H60     1.116   .     S
C95    H64     1.111   .     S
C95    H62     1.111   .     S
C95    H63     1.111   .     S
C96    H66     1.113   .     S
C96    O114    1.412   .     S
C96    H65     1.111   .     S
C96    C97     1.521   .     S
C97    H70     1.111   .     S
C97    H67     1.110   .     S
C97    H69     1.111   .     S
C98    C99     1.525   .     S
C98    H71     1.111   .     S
C98    H72     1.117   .     S
C98    O115    1.418   .     S
C99    H75     1.110   .     S
C99    H73     1.111   .     S
C99    H74     1.109   .     S
C100   H77     1.113   .     S
C100   O116    1.413   .     S
C100   C102    1.521   .     S
C100   H76     1.111   .     S
C101   C149    1.414   .     S
C101   C113    1.193   1_545 S
C102   H78     1.110   .     S
C102   H81     1.111   .     S
C102   H80     1.110   .     S
C103   O3      1.414   .     S
C103   C104    1.520   .     S
C103   H82     1.116   .     S
C103   H83     1.113   .     S
C104   H86     1.111   .     S
C104   H84     1.110   .     S
C104   H85     1.111   .     S
C105   H88     1.112   .     S
C105   H87     1.111   .     S
C105   O4      1.413   .     S
C105   C106    1.522   .     S
C106   H91     1.111   .     S
C106   H89     1.110   .     S
C106   H92     1.111   .     S
C107   H93     1.111   .     S
C107   C108    1.525   .     S
C107   H94     1.117   .     S
C107   O5      1.419   .     S
C108   H97     1.111   .     S
C108   H95     1.109   .     S
C108   H96     1.110   .     S
C109   H99     1.112   .     S
C109   O6      1.413   .     S
C109   H98     1.111   .     S
C109   C110    1.521   .     S
C110   H100    1.111   .     S
C110   H102    1.111   .     S
C110   H103    1.111   .     S
C111   C114    1.526   .     S
C111   H105    1.117   .     S
C111   H104    1.111   .     S
C111   O7      1.418   .     S
C112   C171    1.407   .     A
C112   C199    1.407   .     A
C113   C147    1.414   .     S
C113   C101    1.193   1_565 S
C114   H108    1.111   .     S
C114   H106    1.108   .     S
C114   H107    1.108   .     S
C115   O8      1.413   .     S
C115   C116    1.521   .     S
C115   H109    1.111   .     S
C115   H110    1.113   .     S
C116   H111    1.110   .     S
C116   H115    1.110   .     S
C116   H114    1.111   .     S
C117   C118    1.525   .     S
C117   H117    1.117   .     S
C117   H116    1.111   .     S
C117   O9      1.419   .     S
C118   H120    1.111   .     S
C118   H118    1.109   .     S
C118   H119    1.110   .     S
C119   H121    1.115   .     S
C119   O10     1.413   .     S
C119   C120    1.521   .     S
C119   H122    1.112   .     S
C120   H126    1.109   .     S
C120   H123    1.111   .     S
C120   H125    1.110   .     S
C121   H128    1.113   .     S
C121   O11     1.414   .     S
C121   C122    1.522   .     S
C121   H127    1.115   .     S
C122   H130    1.110   .     S
C122   H131    1.111   .     S
C122   H129    1.111   .     S
C123   H132    1.110   .     S
C123   C125    1.521   .     S
C123   H133    1.113   .     S
C123   O12     1.414   .     S
C124   C146    1.414   .     S
C124   C135    1.193   1_556 S
C125   H134    1.111   .     S
C125   H137    1.110   .     S
C125   H136    1.110   .     S
C126   C127    1.522   .     S
C126   H138    1.116   .     S
C126   H139    1.113   .     S
C126   O14     1.414   .     S
C127   H142    1.111   .     S
C127   H141    1.111   .     S
C127   H140    1.111   .     S
C128   C129    1.522   .     S
C128   H143    1.111   .     S
C128   O15     1.413   .     S
C128   H144    1.113   .     S
C129   H145    1.110   .     S
C129   H147    1.111   .     S
C129   H148    1.111   .     S
C130   O16     1.414   .     S
C130   C131    1.522   .     S
C130   H149    1.116   .     S
C130   H150    1.113   .     S
C131   H153    1.111   .     S
C131   H151    1.111   .     S
C131   H152    1.111   .     S
C132   O17     1.413   .     S
C132   H155    1.113   .     S
C132   C133    1.521   .     S
C132   H154    1.112   .     S
C133   H156    1.111   .     S
C133   H159    1.110   .     S
C133   H158    1.111   .     S
C134   O18     1.418   .     S
C134   H160    1.111   .     S
C134   H161    1.117   .     S
C134   C136    1.526   .     S
C135   C145    1.414   1_565 S
C135   C124    1.193   1_554 S
C136   H162    1.111   .     S
C136   H164    1.110   .     S
C136   H163    1.109   .     S
C137   H165    1.111   .     S
C137   H166    1.113   .     S
C137   O19     1.412   .     S
C137   C138    1.522   .     S
C138   H169    1.110   .     S
C138   H170    1.111   .     S
C138   H167    1.110   .     S
C139   C140    1.520   .     S
C139   O20     1.414   .     S
C139   H172    1.113   .     S
C139   H171    1.116   .     S
C140   H173    1.110   .     S
C140   H175    1.111   .     S
C140   H174    1.111   .     S
C141   C144    1.414   .     S
C141   C142    1.193   1_556 S
C142   C143    1.414   1_655 S
C142   C141    1.193   1_554 S
C143   C142    1.414   1_455 S
C143   O62     1.277   .     S
C143   O106    1.276   .     S
C144   O2      1.276   1_655 S
C144   O73     1.277   1_655 S
C145   C135    1.414   1_545 S
C145   O13     1.276   .     S
C145   O84     1.277   .     S
C146   O21     1.276   1_565 S
C146   O95     1.276   1_565 S
C147   O22     1.277   .     A
C147   O26     1.276   1_565 S
C148   C196    1.417   .     A
C148   C172    1.415   .     A
C149   O23     1.277   .     A
C149   O27     1.276   1_545 S
C150   C90     1.414   1_455 S
C150   O24     1.276   1_455 A
C150   O28     1.276   .     S
C151   C79     1.414   1_455 S
C151   O30     1.276   1_455 A
C151   O25     1.277   .     S
C152   O31     1.279   .     A
C152   O64     1.280   .     A
C153   O65     1.274   .     A
C153   O32     1.275   .     A
C154   O33     1.280   .     A
C154   O61     1.278   .     A
C155   O63     1.273   .     A
C155   O34     1.274   .     A
C156   O59     1.279   .     A
C156   O35     1.279   .     A
C157   O60     1.272   .     A
C157   O36     1.275   .     A
C158   O57     1.278   .     A
C158   O37     1.279   .     A
C159   C214    1.473   .     S
C159   C197    1.408   .     A
C159   C173    1.407   .     A
C160   O58     1.274   .     A
C160   O38     1.273   .     A
C161   O39     1.278   .     A
C161   O55     1.278   .     A
C162   O56     1.273   .     A
C162   O41     1.273   .     A
C163   O53     1.279   .     A
C163   O42     1.280   .     A
C164   O54     1.275   .     A
C164   O43     1.272   .     A
C165   O50     1.280   .     A
C165   O44     1.279   .     A
C166   O52     1.274   .     A
C166   O45     1.274   .     A
C167   O46     1.277   .     A
C167   O48     1.279   .     A
C168   O49     1.274   .     A
C168   O47     1.273   .     A
C169   C205    1.399   .     A
C169   O66     1.387   .     S
C170   C174    1.416   .     A
C170   C202    1.416   .     A
C171   C206    1.402   .     A
C171   O67     1.384   .     S
C172   C207    1.399   .     A
C172   O68     1.387   .     S
C173   O69     1.384   .     S
C173   C208    1.403   .     A
C174   O70     1.387   .     S
C174   C209    1.399   .     A
C175   C210    1.401   .     A
C175   O71     1.384   .     S
C175   C181    1.407   .     A
C176   O72     1.385   .     S
C176   C211    1.401   .     A
C176   C192    1.412   .     A
C177   O74     1.383   .     S
C177   C212    1.400   .     A
C177   C203    1.407   .     A
C178   C213    1.399   .     A
C178   C214    1.413   .     A
C178   O75     1.386   .     S
C179   O76     1.384   .     S
C179   C215    1.402   .     A
C180   O77     1.387   .     S
C180   C216    1.399   .     A
C181   C204    1.407   .     A
C182   O78     1.384   .     S
C182   C217    1.402   .     A
C183   O79     1.386   .     S
C183   C218    1.400   .     A
C184   O80     1.384   .     S
C184   C219    1.400   .     A
C185   C220    1.399   .     A
C185   O81     1.387   .     S
C186   C221    1.402   .     A
C186   O82     1.384   .     S
C187   C222    1.399   .     A
C187   O83     1.387   .     S
C188   O85     1.384   .     S
C188   C223    1.401   .     A
C189   C224    1.400   .     A
C189   O86     1.387   .     S
C189   C214    1.415   .     A
C190   O87     1.384   .     S
C191   O88     1.387   .     S
C192   C200    1.415   .     A
C193   O89     1.384   .     S
C194   O90     1.385   .     S
C195   O91     1.384   .     S
C196   O92     1.387   .     S
C197   O93     1.384   .     S
C198   O94     1.387   .     S
C199   O96     1.384   .     S
C200   O97     1.386   .     S
C201   C203    1.406   .     A
C201   O98     1.384   .     S
C202   O99     1.387   .     S
C204   O100    1.384   .     S
C205   O101    1.386   .     S
C206   O102    1.384   .     S
C207   O103    1.386   .     S
C208   O104    1.384   .     S
C209   O105    1.386   .     S
C210   O107    1.385   .     S
C211   O108    1.385   .     S
C212   O109    1.385   .     S
C213   O110    1.386   .     S
C215   O111    1.384   .     S
C216   O112    1.386   .     S
C217   O113    1.384   .     S
C218   O114    1.385   .     S
C219   O115    1.385   .     S
C220   O116    1.386   .     S
C221   O3      1.384   .     S
C222   O4      1.386   .     S
C223   O5      1.385   .     S
C224   O6      1.386   .     S
O1     Zn4     1.939   .     S
O1     Zn12    1.938   1_455 S
O1     Zn1     1.938   .     S
O1     Zn8     1.937   .     S
O2     Zn3     1.903   .     S
O2     C144    1.276   1_455 S
O13    Zn6     1.903   .     S
O21    Zn5     1.903   .     S
O21    C146    1.276   1_545 S
O22    Zn15    1.904   .     S
O23    Zn14    1.904   .     S
O24    Zn9     1.903   .     S
O24    C150    1.276   1_655 A
O25    Zn1     1.903   .     S
O26    Zn11    1.903   .     S
O26    C147    1.276   1_545 S
O27    Zn10    1.903   .     S
O27    C149    1.276   1_565 S
O28    Zn13    1.903   .     S
O29    Zn7     1.937   .     S
O29    Zn9     1.938   1_455 S
O29    Zn3     1.939   .     S
O29    Zn13    1.938   .     S
O30    Zn12    1.903   .     S
O30    C151    1.276   1_655 A
O31    Zn4     1.938   .     S
O32    Zn3     1.938   1_655 S
O33    Zn6     1.940   1_565 S
O34    Zn5     1.940   .     S
O35    Zn8     1.939   1_655 S
O36    Zn7     1.939   .     S
O37    Zn2     1.940   .     S
O38    Zn16    1.940   1_565 S
O39    Zn7     1.940   1_655 S
O40    Zn2     1.938   .     S
O40    Zn6     1.938   .     S
O40    Zn14    1.937   .     S
O40    Zn10    1.939   1_545 S
O41    Zn8     1.940   .     S
O42    Zn5     1.938   1_565 S
O43    Zn6     1.938   .     S
O44    Zn3     1.940   .     S
O45    Zn4     1.940   1_655 S
O46    Zn16    1.939   .     S
O47    Zn2     1.939   1_565 S
O48    Zn11    1.938   .     S
O49    Zn10    1.938   .     S
O50    Zn13    1.940   .     S
O51    Zn16    1.938   .     S
O51    Zn11    1.939   .     S
O51    Zn5     1.938   .     S
O51    Zn15    1.937   1_545 S
O52    Zn12    1.940   .     S
O53    Zn15    1.939   .     S
O54    Zn14    1.939   .     S
O55    Zn9     1.940   .     S
O56    Zn1     1.940   .     S
O57    Zn14    1.940   .     S
O58    Zn15    1.940   .     S
O59    Zn12    1.938   .     S
O60    Zn13    1.938   .     S
O61    Zn10    1.940   .     S
O62    Zn8     1.904   .     S
O63    Zn11    1.940   .     S
O64    Zn1     1.939   .     S
O65    Zn9     1.939   .     S
O73    C144    1.277   1_455 S
O73    Zn7     1.904   .     S
O84    Zn2     1.903   .     S
O95    Zn16    1.903   .     S
O95    C146    1.276   1_545 S
O106   Zn4     1.903   .     S
Zn2    O47     1.939   1_545 S
Zn3    O32     1.938   1_455 S
Zn4    O45     1.940   1_455 S
Zn5    O42     1.938   1_545 S
Zn6    O33     1.940   1_545 S
Zn7    O39     1.940   1_455 S
Zn8    O35     1.939   1_455 S
Zn9    O29     1.938   1_655 S
Zn10   O40     1.939   1_565 S
Zn12   O1      1.938   1_655 S
Zn15   O51     1.937   1_565 S
Zn16   O38     1.940   1_545 S
