data_str_m2_o2_o10_pcu_sym.91
_audit_creation_date              2020-01-03
_audit_creation_method            'Materials Studio'
_symmetry_space_group_name_H-M    'P1'
_symmetry_Int_Tables_number       1
_symmetry_cell_setting            triclinic
loop_
_symmetry_equiv_pos_as_xyz
  x,y,z
_cell_length_a                    26.3095
_cell_length_b                    30.1393
_cell_length_c                    27.7107
_cell_angle_alpha                 89.6688
_cell_angle_beta                  97.5630
_cell_angle_gamma                 90.4124
loop_
_atom_site_label
_atom_site_type_symbol
_atom_site_fract_x
_atom_site_fract_y
_atom_site_fract_z
_atom_site_U_iso_or_equiv
_atom_site_adp_type
_atom_site_occupancy
C1     C     0.16743   0.16500   0.25029   0.00000  Uiso   1.00
C2     C     0.19175   0.28359   0.44896   0.00000  Uiso   1.00
C3     C     0.16666   0.24996   0.02733   0.00000  Uiso   1.00
C4     C     0.16663   0.24997   0.47263   0.00000  Uiso   1.00
C5     C     0.06809   0.24956   0.23787   0.00000  Uiso   1.00
C6     C     0.26525   0.25021   0.26215   0.00000  Uiso   1.00
C7     C     0.01363   0.24378   0.23205   0.00000  Uiso   1.00
C8     C     0.31975   0.25571   0.26808   0.00000  Uiso   1.00
C9     C     0.19998   0.04550   0.27915   0.00000  Uiso   1.00
C10    C     0.19381   0.45563   0.22324   0.00000  Uiso   1.00
C11    C     0.20448   0.09173   0.27924   0.00000  Uiso   1.00
C12    C     0.16758   0.33513   0.24991   0.00000  Uiso   1.00
C13    C     0.19842   0.40947   0.22283   0.00000  Uiso   1.00
C14    C     0.16619   0.11676   0.25077   0.00000  Uiso   1.00
C15    C     0.16622   0.38358   0.24930   0.00000  Uiso   1.00
C16    C     0.12481   0.09544   0.22304   0.00000  Uiso   1.00
C17    C     0.13092   0.40434   0.27545   0.00000  Uiso   1.00
C18    C     0.12077   0.04937   0.22323   0.00000  Uiso   1.00
C19    C     0.12684   0.45034   0.27556   0.00000  Uiso   1.00
C20    C     0.15861   0.02439   0.25140   0.00000  Uiso   1.00
C21    C     0.15853   0.47600   0.24935   0.00000  Uiso   1.00
C22    C     0.25185   0.11269   0.30740   0.00000  Uiso   1.00
C23    C     0.20677   0.26990   0.05883   0.00000  Uiso   1.00
C24    C     0.29094   0.12563   0.27323   0.00000  Uiso   1.00
C25    C     0.00762   0.14243   0.30168   0.00000  Uiso   1.00
C26    C     0.23997   0.38985   0.19650   0.00000  Uiso   1.00
C27    C     0.28595   0.37497   0.23264   0.00000  Uiso   1.00
C28    C     0.32960   0.35867   0.20621   0.00000  Uiso   1.00
C29    C     0.14147   0.21637   0.44306   0.00000  Uiso   1.00
C30    C     0.20580   0.26988   0.10945   0.00000  Uiso   1.00
C31    C     0.14163   0.21720   0.39232   0.00000  Uiso   1.00
C32    C     0.12753   0.23011   0.09994   0.00000  Uiso   1.00
C33    C     0.19163   0.28278   0.39821   0.00000  Uiso   1.00
C34    C     0.12656   0.23004   0.04907   0.00000  Uiso   1.00
Cl35   Cl    0.32119   0.21468   0.17863   0.00000  Uiso   1.00
Cl36   Cl    0.01232   0.28442   0.32178   0.00000  Uiso   1.00
Cl37   Cl    0.06884   0.02393   0.18688   0.00000  Uiso   1.00
Cl38   Cl    0.08272   0.47486   0.30975   0.00000  Uiso   1.00
Cu39   Cu    0.16667   0.25000   0.29821   0.00000  Uiso   1.00
Cu40   Cu    0.16667   0.25001   0.20178   0.00000  Uiso   1.00
H41    H     0.22950   0.02558   0.29978   0.00000  Uiso   1.00
H42    H     0.21149   0.30870   0.38087   0.00000  Uiso   1.00
H43    H     0.09406   0.21489   0.02714   0.00000  Uiso   1.00
H44    H     0.21093   0.31087   0.46917   0.00000  Uiso   1.00
H45    H     0.00036   0.17179   0.32375   0.00000  Uiso   1.00
H46    H     0.02556   0.11596   0.32614   0.00000  Uiso   1.00
H47    H     0.03482   0.15208   0.27596   0.00000  Uiso   1.00
H48    H     0.29951   0.09631   0.25155   0.00000  Uiso   1.00
H49    H     0.27480   0.15197   0.24765   0.00000  Uiso   1.00
H50    H     0.24152   0.14202   0.32798   0.00000  Uiso   1.00
H51    H     0.27012   0.08884   0.33509   0.00000  Uiso   1.00
H52    H     0.21873   0.47617   0.20409   0.00000  Uiso   1.00
H53    H     0.31656   0.33011   0.18248   0.00000  Uiso   1.00
H54    H     0.00990   0.38575   0.18367   0.00000  Uiso   1.00
H55    H     0.02884   0.34791   0.23323   0.00000  Uiso   1.00
H56    H     0.30023   0.40327   0.25635   0.00000  Uiso   1.00
H57    H     0.27416   0.34787   0.25615   0.00000  Uiso   1.00
H58    H     0.22474   0.36203   0.17280   0.00000  Uiso   1.00
H59    H     0.25361   0.41505   0.17157   0.00000  Uiso   1.00
H60    H     0.09544   0.11477   0.20143   0.00000  Uiso   1.00
H61    H     0.10617   0.38462   0.29561   0.00000  Uiso   1.00
H62    H     0.23928   0.28502   0.04482   0.00000  Uiso   1.00
H63    H     0.12225   0.18909   0.45878   0.00000  Uiso   1.00
H64    H     0.23675   0.28569   0.13282   0.00000  Uiso   1.00
H65    H     0.12177   0.19132   0.37029   0.00000  Uiso   1.00
H66    H     0.09661   0.21427   0.11581   0.00000  Uiso   1.00
N67    N     0.16667   0.25001   0.12934   0.00000  Uiso   1.00
N68    N     0.16667   0.24999   0.37065   0.00000  Uiso   1.00
O69    O     0.16667   0.18573   0.29071   0.00000  Uiso   1.00
O70    O     0.16666   0.31428   0.20928   0.00000  Uiso   1.00
O71    O     0.16667   0.18573   0.20928   0.00000  Uiso   1.00
O72    O     0.16666   0.31427   0.29072   0.00000  Uiso   1.00
O73    O     0.09161   0.25000   0.28132   0.00000  Uiso   1.00
O74    O     0.24172   0.25001   0.21868   0.00000  Uiso   1.00
O75    O     0.09161   0.25000   0.19988   0.00000  Uiso   1.00
O76    O     0.24172   0.25000   0.30011   0.00000  Uiso   1.00
C77    C     0.50077   0.16500   0.25029   0.00000  Uiso   1.00
C78    C     0.52508   0.28359   0.44896   0.00000  Uiso   1.00
C79    C     0.49999   0.24996   0.02733   0.00000  Uiso   1.00
C80    C     0.49996   0.24997   0.47263   0.00000  Uiso   1.00
C81    C     0.40143   0.24956   0.23787   0.00000  Uiso   1.00
C82    C     0.59858   0.25021   0.26215   0.00000  Uiso   1.00
C83    C     0.34697   0.24378   0.23205   0.00000  Uiso   1.00
C84    C     0.65308   0.25571   0.26808   0.00000  Uiso   1.00
C85    C     0.53331   0.04550   0.27915   0.00000  Uiso   1.00
C86    C     0.52714   0.45563   0.22324   0.00000  Uiso   1.00
C87    C     0.53781   0.09173   0.27924   0.00000  Uiso   1.00
C88    C     0.50092   0.33513   0.24991   0.00000  Uiso   1.00
C89    C     0.53175   0.40947   0.22283   0.00000  Uiso   1.00
C90    C     0.49952   0.11676   0.25077   0.00000  Uiso   1.00
C91    C     0.49955   0.38358   0.24930   0.00000  Uiso   1.00
C92    C     0.45814   0.09544   0.22304   0.00000  Uiso   1.00
C93    C     0.46425   0.40434   0.27545   0.00000  Uiso   1.00
C94    C     0.45411   0.04937   0.22323   0.00000  Uiso   1.00
C95    C     0.46017   0.45034   0.27556   0.00000  Uiso   1.00
C96    C     0.49195   0.02439   0.25140   0.00000  Uiso   1.00
C97    C     0.49187   0.47600   0.24935   0.00000  Uiso   1.00
C98    C     0.58518   0.11269   0.30740   0.00000  Uiso   1.00
C99    C     0.54011   0.26990   0.05883   0.00000  Uiso   1.00
C100   C     0.62427   0.12563   0.27323   0.00000  Uiso   1.00
C101   C     0.34096   0.14243   0.30168   0.00000  Uiso   1.00
C102   C     0.57330   0.38985   0.19650   0.00000  Uiso   1.00
C103   C     0.61928   0.37497   0.23264   0.00000  Uiso   1.00
C104   C     0.66293   0.35867   0.20621   0.00000  Uiso   1.00
C105   C     0.47481   0.21637   0.44306   0.00000  Uiso   1.00
C106   C     0.53913   0.26988   0.10945   0.00000  Uiso   1.00
C107   C     0.47497   0.21720   0.39232   0.00000  Uiso   1.00
C108   C     0.46086   0.23011   0.09994   0.00000  Uiso   1.00
C109   C     0.52497   0.28278   0.39821   0.00000  Uiso   1.00
C110   C     0.45989   0.23004   0.04907   0.00000  Uiso   1.00
Cl111  Cl    0.65453   0.21468   0.17863   0.00000  Uiso   1.00
Cl112  Cl    0.34565   0.28442   0.32178   0.00000  Uiso   1.00
Cl113  Cl    0.40217   0.02393   0.18688   0.00000  Uiso   1.00
Cl114  Cl    0.41605   0.47486   0.30975   0.00000  Uiso   1.00
Cu115  Cu    0.50000   0.25000   0.29821   0.00000  Uiso   1.00
Cu116  Cu    0.50000   0.25001   0.20178   0.00000  Uiso   1.00
H117   H     0.56283   0.02558   0.29978   0.00000  Uiso   1.00
H118   H     0.54482   0.30870   0.38087   0.00000  Uiso   1.00
H119   H     0.42740   0.21489   0.02714   0.00000  Uiso   1.00
H120   H     0.54426   0.31087   0.46917   0.00000  Uiso   1.00
H121   H     0.33369   0.17179   0.32375   0.00000  Uiso   1.00
H122   H     0.35889   0.11596   0.32614   0.00000  Uiso   1.00
H123   H     0.36815   0.15208   0.27596   0.00000  Uiso   1.00
H124   H     0.63284   0.09631   0.25155   0.00000  Uiso   1.00
H125   H     0.60813   0.15197   0.24765   0.00000  Uiso   1.00
H126   H     0.57485   0.14202   0.32798   0.00000  Uiso   1.00
H127   H     0.60346   0.08884   0.33509   0.00000  Uiso   1.00
H128   H     0.55206   0.47617   0.20409   0.00000  Uiso   1.00
H129   H     0.64990   0.33011   0.18248   0.00000  Uiso   1.00
H130   H     0.34323   0.38575   0.18367   0.00000  Uiso   1.00
H131   H     0.36217   0.34791   0.23323   0.00000  Uiso   1.00
H132   H     0.63356   0.40327   0.25635   0.00000  Uiso   1.00
H133   H     0.60749   0.34787   0.25615   0.00000  Uiso   1.00
H134   H     0.55807   0.36203   0.17280   0.00000  Uiso   1.00
H135   H     0.58695   0.41505   0.17157   0.00000  Uiso   1.00
H136   H     0.42877   0.11477   0.20143   0.00000  Uiso   1.00
H137   H     0.43950   0.38462   0.29561   0.00000  Uiso   1.00
H138   H     0.57261   0.28502   0.04482   0.00000  Uiso   1.00
H139   H     0.45559   0.18909   0.45878   0.00000  Uiso   1.00
H140   H     0.57008   0.28569   0.13282   0.00000  Uiso   1.00
H141   H     0.45511   0.19132   0.37029   0.00000  Uiso   1.00
H142   H     0.42994   0.21427   0.11581   0.00000  Uiso   1.00
N143   N     0.50000   0.25001   0.12934   0.00000  Uiso   1.00
N144   N     0.50000   0.24999   0.37065   0.00000  Uiso   1.00
O145   O     0.50000   0.18573   0.29071   0.00000  Uiso   1.00
O146   O     0.50000   0.31428   0.20928   0.00000  Uiso   1.00
O147   O     0.50000   0.18573   0.20928   0.00000  Uiso   1.00
O148   O     0.50000   0.31427   0.29072   0.00000  Uiso   1.00
O149   O     0.42495   0.25000   0.28132   0.00000  Uiso   1.00
O150   O     0.57505   0.25001   0.21868   0.00000  Uiso   1.00
O151   O     0.42495   0.25000   0.19988   0.00000  Uiso   1.00
O152   O     0.57505   0.25000   0.30011   0.00000  Uiso   1.00
C153   C     0.83410   0.16500   0.25029   0.00000  Uiso   1.00
C154   C     0.85842   0.28359   0.44896   0.00000  Uiso   1.00
C155   C     0.83332   0.24996   0.02733   0.00000  Uiso   1.00
C156   C     0.83329   0.24997   0.47263   0.00000  Uiso   1.00
C157   C     0.73476   0.24956   0.23787   0.00000  Uiso   1.00
C158   C     0.93191   0.25021   0.26215   0.00000  Uiso   1.00
C159   C     0.68030   0.24378   0.23205   0.00000  Uiso   1.00
C160   C     0.98641   0.25571   0.26808   0.00000  Uiso   1.00
C161   C     0.86664   0.04550   0.27915   0.00000  Uiso   1.00
C162   C     0.86048   0.45563   0.22324   0.00000  Uiso   1.00
C163   C     0.87115   0.09173   0.27924   0.00000  Uiso   1.00
C164   C     0.83425   0.33513   0.24991   0.00000  Uiso   1.00
C165   C     0.86509   0.40947   0.22283   0.00000  Uiso   1.00
C166   C     0.83285   0.11676   0.25077   0.00000  Uiso   1.00
C167   C     0.83289   0.38358   0.24930   0.00000  Uiso   1.00
C168   C     0.79148   0.09544   0.22304   0.00000  Uiso   1.00
C169   C     0.79758   0.40434   0.27545   0.00000  Uiso   1.00
C170   C     0.78744   0.04937   0.22323   0.00000  Uiso   1.00
C171   C     0.79350   0.45034   0.27556   0.00000  Uiso   1.00
C172   C     0.82528   0.02439   0.25140   0.00000  Uiso   1.00
C173   C     0.82520   0.47600   0.24935   0.00000  Uiso   1.00
C174   C     0.91851   0.11269   0.30740   0.00000  Uiso   1.00
C175   C     0.87344   0.26990   0.05883   0.00000  Uiso   1.00
C176   C     0.95761   0.12563   0.27323   0.00000  Uiso   1.00
C177   C     0.67429   0.14243   0.30168   0.00000  Uiso   1.00
C178   C     0.90664   0.38985   0.19650   0.00000  Uiso   1.00
C179   C     0.95262   0.37497   0.23264   0.00000  Uiso   1.00
C180   C     0.99626   0.35867   0.20621   0.00000  Uiso   1.00
C181   C     0.80814   0.21637   0.44306   0.00000  Uiso   1.00
C182   C     0.87247   0.26988   0.10945   0.00000  Uiso   1.00
C183   C     0.80830   0.21720   0.39232   0.00000  Uiso   1.00
C184   C     0.79420   0.23011   0.09994   0.00000  Uiso   1.00
C185   C     0.85830   0.28278   0.39821   0.00000  Uiso   1.00
C186   C     0.79322   0.23004   0.04907   0.00000  Uiso   1.00
Cl187  Cl    0.98786   0.21468   0.17863   0.00000  Uiso   1.00
Cl188  Cl    0.67898   0.28442   0.32178   0.00000  Uiso   1.00
Cl189  Cl    0.73551   0.02393   0.18688   0.00000  Uiso   1.00
Cl190  Cl    0.74938   0.47486   0.30975   0.00000  Uiso   1.00
Cu191  Cu    0.83333   0.25000   0.29821   0.00000  Uiso   1.00
Cu192  Cu    0.83333   0.25001   0.20178   0.00000  Uiso   1.00
H193   H     0.89616   0.02558   0.29978   0.00000  Uiso   1.00
H194   H     0.87815   0.30870   0.38087   0.00000  Uiso   1.00
H195   H     0.76073   0.21489   0.02714   0.00000  Uiso   1.00
H196   H     0.87760   0.31087   0.46917   0.00000  Uiso   1.00
H197   H     0.66703   0.17179   0.32375   0.00000  Uiso   1.00
H198   H     0.69223   0.11596   0.32614   0.00000  Uiso   1.00
H199   H     0.70148   0.15208   0.27596   0.00000  Uiso   1.00
H200   H     0.96617   0.09631   0.25155   0.00000  Uiso   1.00
H201   H     0.94146   0.15197   0.24765   0.00000  Uiso   1.00
H202   H     0.90819   0.14202   0.32798   0.00000  Uiso   1.00
H203   H     0.93679   0.08884   0.33509   0.00000  Uiso   1.00
H204   H     0.88540   0.47617   0.20409   0.00000  Uiso   1.00
H205   H     0.98323   0.33011   0.18248   0.00000  Uiso   1.00
H206   H     0.67656   0.38575   0.18367   0.00000  Uiso   1.00
H207   H     0.69550   0.34791   0.23323   0.00000  Uiso   1.00
H208   H     0.96689   0.40327   0.25635   0.00000  Uiso   1.00
H209   H     0.94083   0.34787   0.25615   0.00000  Uiso   1.00
H210   H     0.89140   0.36203   0.17280   0.00000  Uiso   1.00
H211   H     0.92028   0.41505   0.17157   0.00000  Uiso   1.00
H212   H     0.76210   0.11477   0.20143   0.00000  Uiso   1.00
H213   H     0.77283   0.38462   0.29561   0.00000  Uiso   1.00
H214   H     0.90594   0.28502   0.04482   0.00000  Uiso   1.00
H215   H     0.78892   0.18909   0.45878   0.00000  Uiso   1.00
H216   H     0.90341   0.28569   0.13282   0.00000  Uiso   1.00
H217   H     0.78844   0.19132   0.37029   0.00000  Uiso   1.00
H218   H     0.76328   0.21427   0.11581   0.00000  Uiso   1.00
N219   N     0.83333   0.25001   0.12934   0.00000  Uiso   1.00
N220   N     0.83333   0.24999   0.37065   0.00000  Uiso   1.00
O221   O     0.83334   0.18573   0.29071   0.00000  Uiso   1.00
O222   O     0.83333   0.31428   0.20928   0.00000  Uiso   1.00
O223   O     0.83334   0.18573   0.20928   0.00000  Uiso   1.00
O224   O     0.83333   0.31427   0.29072   0.00000  Uiso   1.00
O225   O     0.75828   0.25000   0.28132   0.00000  Uiso   1.00
O226   O     0.90839   0.25001   0.21868   0.00000  Uiso   1.00
O227   O     0.75828   0.25000   0.19988   0.00000  Uiso   1.00
O228   O     0.90839   0.25000   0.30011   0.00000  Uiso   1.00
C229   C     0.16743   0.66500   0.25029   0.00000  Uiso   1.00
C230   C     0.19175   0.78359   0.44896   0.00000  Uiso   1.00
C231   C     0.16666   0.74996   0.02733   0.00000  Uiso   1.00
C232   C     0.16663   0.74997   0.47263   0.00000  Uiso   1.00
C233   C     0.06809   0.74956   0.23787   0.00000  Uiso   1.00
C234   C     0.26525   0.75021   0.26215   0.00000  Uiso   1.00
C235   C     0.01363   0.74378   0.23205   0.00000  Uiso   1.00
C236   C     0.31975   0.75571   0.26808   0.00000  Uiso   1.00
C237   C     0.19998   0.54550   0.27915   0.00000  Uiso   1.00
C238   C     0.19381   0.95563   0.22324   0.00000  Uiso   1.00
C239   C     0.20448   0.59173   0.27924   0.00000  Uiso   1.00
C240   C     0.16758   0.83513   0.24991   0.00000  Uiso   1.00
C241   C     0.19842   0.90947   0.22283   0.00000  Uiso   1.00
C242   C     0.16619   0.61676   0.25077   0.00000  Uiso   1.00
C243   C     0.16622   0.88358   0.24930   0.00000  Uiso   1.00
C244   C     0.12481   0.59544   0.22304   0.00000  Uiso   1.00
C245   C     0.13092   0.90434   0.27545   0.00000  Uiso   1.00
C246   C     0.12077   0.54937   0.22323   0.00000  Uiso   1.00
C247   C     0.12684   0.95034   0.27556   0.00000  Uiso   1.00
C248   C     0.15861   0.52439   0.25140   0.00000  Uiso   1.00
C249   C     0.15853   0.97600   0.24935   0.00000  Uiso   1.00
C250   C     0.25185   0.61269   0.30740   0.00000  Uiso   1.00
C251   C     0.20677   0.76990   0.05883   0.00000  Uiso   1.00
C252   C     0.29094   0.62563   0.27323   0.00000  Uiso   1.00
C253   C     0.00762   0.64243   0.30168   0.00000  Uiso   1.00
C254   C     0.23997   0.88985   0.19650   0.00000  Uiso   1.00
C255   C     0.28595   0.87497   0.23264   0.00000  Uiso   1.00
C256   C     0.32960   0.85867   0.20621   0.00000  Uiso   1.00
C257   C     0.14147   0.71637   0.44306   0.00000  Uiso   1.00
C258   C     0.20580   0.76988   0.10945   0.00000  Uiso   1.00
C259   C     0.14163   0.71720   0.39232   0.00000  Uiso   1.00
C260   C     0.12753   0.73011   0.09994   0.00000  Uiso   1.00
C261   C     0.19163   0.78278   0.39821   0.00000  Uiso   1.00
C262   C     0.12656   0.73004   0.04907   0.00000  Uiso   1.00
Cl263  Cl    0.32119   0.71468   0.17863   0.00000  Uiso   1.00
Cl264  Cl    0.01232   0.78442   0.32178   0.00000  Uiso   1.00
Cl265  Cl    0.06884   0.52393   0.18688   0.00000  Uiso   1.00
Cl266  Cl    0.08272   0.97486   0.30975   0.00000  Uiso   1.00
Cu267  Cu    0.16667   0.75000   0.29821   0.00000  Uiso   1.00
Cu268  Cu    0.16667   0.75001   0.20178   0.00000  Uiso   1.00
H269   H     0.22950   0.52558   0.29978   0.00000  Uiso   1.00
H270   H     0.21149   0.80870   0.38087   0.00000  Uiso   1.00
H271   H     0.09406   0.71489   0.02714   0.00000  Uiso   1.00
H272   H     0.21093   0.81087   0.46917   0.00000  Uiso   1.00
H273   H     0.00036   0.67179   0.32375   0.00000  Uiso   1.00
H274   H     0.02556   0.61596   0.32614   0.00000  Uiso   1.00
H275   H     0.03482   0.65208   0.27596   0.00000  Uiso   1.00
H276   H     0.29951   0.59631   0.25155   0.00000  Uiso   1.00
H277   H     0.27480   0.65197   0.24765   0.00000  Uiso   1.00
H278   H     0.24152   0.64202   0.32798   0.00000  Uiso   1.00
H279   H     0.27012   0.58884   0.33509   0.00000  Uiso   1.00
H280   H     0.21873   0.97617   0.20409   0.00000  Uiso   1.00
H281   H     0.31656   0.83011   0.18248   0.00000  Uiso   1.00
H282   H     0.00990   0.88575   0.18367   0.00000  Uiso   1.00
H283   H     0.02884   0.84791   0.23323   0.00000  Uiso   1.00
H284   H     0.30023   0.90327   0.25635   0.00000  Uiso   1.00
H285   H     0.27416   0.84787   0.25615   0.00000  Uiso   1.00
H286   H     0.22474   0.86203   0.17280   0.00000  Uiso   1.00
H287   H     0.25361   0.91505   0.17157   0.00000  Uiso   1.00
H288   H     0.09544   0.61477   0.20143   0.00000  Uiso   1.00
H289   H     0.10617   0.88462   0.29561   0.00000  Uiso   1.00
H290   H     0.23928   0.78502   0.04482   0.00000  Uiso   1.00
H291   H     0.12225   0.68909   0.45878   0.00000  Uiso   1.00
H292   H     0.23675   0.78569   0.13282   0.00000  Uiso   1.00
H293   H     0.12177   0.69132   0.37029   0.00000  Uiso   1.00
H294   H     0.09661   0.71427   0.11581   0.00000  Uiso   1.00
N295   N     0.16667   0.75001   0.12934   0.00000  Uiso   1.00
N296   N     0.16667   0.74999   0.37065   0.00000  Uiso   1.00
O297   O     0.16667   0.68573   0.29071   0.00000  Uiso   1.00
O298   O     0.16666   0.81428   0.20928   0.00000  Uiso   1.00
O299   O     0.16667   0.68573   0.20928   0.00000  Uiso   1.00
O300   O     0.16666   0.81427   0.29072   0.00000  Uiso   1.00
O301   O     0.09161   0.75000   0.28132   0.00000  Uiso   1.00
O302   O     0.24172   0.75001   0.21868   0.00000  Uiso   1.00
O303   O     0.09161   0.75000   0.19988   0.00000  Uiso   1.00
O304   O     0.24172   0.75000   0.30011   0.00000  Uiso   1.00
C305   C     0.50077   0.66500   0.25029   0.00000  Uiso   1.00
C306   C     0.52508   0.78359   0.44896   0.00000  Uiso   1.00
C307   C     0.49999   0.74996   0.02733   0.00000  Uiso   1.00
C308   C     0.49996   0.74997   0.47263   0.00000  Uiso   1.00
C309   C     0.40143   0.74956   0.23787   0.00000  Uiso   1.00
C310   C     0.59858   0.75021   0.26215   0.00000  Uiso   1.00
C311   C     0.34697   0.74378   0.23205   0.00000  Uiso   1.00
C312   C     0.65308   0.75571   0.26808   0.00000  Uiso   1.00
C313   C     0.53331   0.54550   0.27915   0.00000  Uiso   1.00
C314   C     0.52714   0.95563   0.22324   0.00000  Uiso   1.00
C315   C     0.53781   0.59173   0.27924   0.00000  Uiso   1.00
C316   C     0.50092   0.83513   0.24991   0.00000  Uiso   1.00
C317   C     0.53175   0.90947   0.22283   0.00000  Uiso   1.00
C318   C     0.49952   0.61676   0.25077   0.00000  Uiso   1.00
C319   C     0.49955   0.88358   0.24930   0.00000  Uiso   1.00
C320   C     0.45814   0.59544   0.22304   0.00000  Uiso   1.00
C321   C     0.46425   0.90434   0.27545   0.00000  Uiso   1.00
C322   C     0.45411   0.54937   0.22323   0.00000  Uiso   1.00
C323   C     0.46017   0.95034   0.27556   0.00000  Uiso   1.00
C324   C     0.49195   0.52439   0.25140   0.00000  Uiso   1.00
C325   C     0.49187   0.97600   0.24935   0.00000  Uiso   1.00
C326   C     0.58518   0.61269   0.30740   0.00000  Uiso   1.00
C327   C     0.54011   0.76990   0.05883   0.00000  Uiso   1.00
C328   C     0.62427   0.62563   0.27323   0.00000  Uiso   1.00
C329   C     0.34096   0.64243   0.30168   0.00000  Uiso   1.00
C330   C     0.57330   0.88985   0.19650   0.00000  Uiso   1.00
C331   C     0.61928   0.87497   0.23264   0.00000  Uiso   1.00
C332   C     0.66293   0.85867   0.20621   0.00000  Uiso   1.00
C333   C     0.47481   0.71637   0.44306   0.00000  Uiso   1.00
C334   C     0.53913   0.76988   0.10945   0.00000  Uiso   1.00
C335   C     0.47497   0.71720   0.39232   0.00000  Uiso   1.00
C336   C     0.46086   0.73011   0.09994   0.00000  Uiso   1.00
C337   C     0.52497   0.78278   0.39821   0.00000  Uiso   1.00
C338   C     0.45989   0.73004   0.04907   0.00000  Uiso   1.00
Cl339  Cl    0.65453   0.71468   0.17863   0.00000  Uiso   1.00
Cl340  Cl    0.34565   0.78442   0.32178   0.00000  Uiso   1.00
Cl341  Cl    0.40217   0.52393   0.18688   0.00000  Uiso   1.00
Cl342  Cl    0.41605   0.97486   0.30975   0.00000  Uiso   1.00
Cu343  Cu    0.50000   0.75000   0.29821   0.00000  Uiso   1.00
Cu344  Cu    0.50000   0.75001   0.20178   0.00000  Uiso   1.00
H345   H     0.56283   0.52558   0.29978   0.00000  Uiso   1.00
H346   H     0.54482   0.80870   0.38087   0.00000  Uiso   1.00
H347   H     0.42740   0.71489   0.02714   0.00000  Uiso   1.00
H348   H     0.54426   0.81087   0.46917   0.00000  Uiso   1.00
H349   H     0.33369   0.67179   0.32375   0.00000  Uiso   1.00
H350   H     0.35889   0.61596   0.32614   0.00000  Uiso   1.00
H351   H     0.36815   0.65208   0.27596   0.00000  Uiso   1.00
H352   H     0.63284   0.59631   0.25155   0.00000  Uiso   1.00
H353   H     0.60813   0.65197   0.24765   0.00000  Uiso   1.00
H354   H     0.57485   0.64202   0.32798   0.00000  Uiso   1.00
H355   H     0.60346   0.58884   0.33509   0.00000  Uiso   1.00
H356   H     0.55206   0.97617   0.20409   0.00000  Uiso   1.00
H357   H     0.64990   0.83011   0.18248   0.00000  Uiso   1.00
H358   H     0.34323   0.88575   0.18367   0.00000  Uiso   1.00
H359   H     0.36217   0.84791   0.23323   0.00000  Uiso   1.00
H360   H     0.63356   0.90327   0.25635   0.00000  Uiso   1.00
H361   H     0.60749   0.84787   0.25615   0.00000  Uiso   1.00
H362   H     0.55807   0.86203   0.17280   0.00000  Uiso   1.00
H363   H     0.58695   0.91505   0.17157   0.00000  Uiso   1.00
H364   H     0.42877   0.61477   0.20143   0.00000  Uiso   1.00
H365   H     0.43950   0.88462   0.29561   0.00000  Uiso   1.00
H366   H     0.57261   0.78502   0.04482   0.00000  Uiso   1.00
H367   H     0.45559   0.68909   0.45878   0.00000  Uiso   1.00
H368   H     0.57008   0.78569   0.13282   0.00000  Uiso   1.00
H369   H     0.45511   0.69132   0.37029   0.00000  Uiso   1.00
H370   H     0.42994   0.71427   0.11581   0.00000  Uiso   1.00
N371   N     0.50000   0.75001   0.12934   0.00000  Uiso   1.00
N372   N     0.50000   0.74999   0.37065   0.00000  Uiso   1.00
O373   O     0.50000   0.68573   0.29071   0.00000  Uiso   1.00
O374   O     0.50000   0.81428   0.20928   0.00000  Uiso   1.00
O375   O     0.50000   0.68573   0.20928   0.00000  Uiso   1.00
O376   O     0.50000   0.81427   0.29072   0.00000  Uiso   1.00
O377   O     0.42495   0.75000   0.28132   0.00000  Uiso   1.00
O378   O     0.57505   0.75001   0.21868   0.00000  Uiso   1.00
O379   O     0.42495   0.75000   0.19988   0.00000  Uiso   1.00
O380   O     0.57505   0.75000   0.30011   0.00000  Uiso   1.00
C381   C     0.83410   0.66500   0.25029   0.00000  Uiso   1.00
C382   C     0.85842   0.78359   0.44896   0.00000  Uiso   1.00
C383   C     0.83332   0.74996   0.02733   0.00000  Uiso   1.00
C384   C     0.83329   0.74997   0.47263   0.00000  Uiso   1.00
C385   C     0.73476   0.74956   0.23787   0.00000  Uiso   1.00
C386   C     0.93191   0.75021   0.26215   0.00000  Uiso   1.00
C387   C     0.68030   0.74378   0.23205   0.00000  Uiso   1.00
C388   C     0.98641   0.75571   0.26808   0.00000  Uiso   1.00
C389   C     0.86664   0.54550   0.27915   0.00000  Uiso   1.00
C390   C     0.86048   0.95563   0.22324   0.00000  Uiso   1.00
C391   C     0.87115   0.59173   0.27924   0.00000  Uiso   1.00
C392   C     0.83425   0.83513   0.24991   0.00000  Uiso   1.00
C393   C     0.86509   0.90947   0.22283   0.00000  Uiso   1.00
C394   C     0.83285   0.61676   0.25077   0.00000  Uiso   1.00
C395   C     0.83289   0.88358   0.24930   0.00000  Uiso   1.00
C396   C     0.79148   0.59544   0.22304   0.00000  Uiso   1.00
C397   C     0.79758   0.90434   0.27545   0.00000  Uiso   1.00
C398   C     0.78744   0.54937   0.22323   0.00000  Uiso   1.00
C399   C     0.79350   0.95034   0.27556   0.00000  Uiso   1.00
C400   C     0.82528   0.52439   0.25140   0.00000  Uiso   1.00
C401   C     0.82520   0.97600   0.24935   0.00000  Uiso   1.00
C402   C     0.91851   0.61269   0.30740   0.00000  Uiso   1.00
C403   C     0.87344   0.76990   0.05883   0.00000  Uiso   1.00
C404   C     0.95761   0.62563   0.27323   0.00000  Uiso   1.00
C405   C     0.67429   0.64243   0.30168   0.00000  Uiso   1.00
C406   C     0.90664   0.88985   0.19650   0.00000  Uiso   1.00
C407   C     0.95262   0.87497   0.23264   0.00000  Uiso   1.00
C408   C     0.99626   0.85867   0.20621   0.00000  Uiso   1.00
C409   C     0.80814   0.71637   0.44306   0.00000  Uiso   1.00
C410   C     0.87247   0.76988   0.10945   0.00000  Uiso   1.00
C411   C     0.80830   0.71720   0.39232   0.00000  Uiso   1.00
C412   C     0.79420   0.73011   0.09994   0.00000  Uiso   1.00
C413   C     0.85830   0.78278   0.39821   0.00000  Uiso   1.00
C414   C     0.79322   0.73004   0.04907   0.00000  Uiso   1.00
Cl415  Cl    0.98786   0.71468   0.17863   0.00000  Uiso   1.00
Cl416  Cl    0.67898   0.78442   0.32178   0.00000  Uiso   1.00
Cl417  Cl    0.73551   0.52393   0.18688   0.00000  Uiso   1.00
Cl418  Cl    0.74938   0.97486   0.30975   0.00000  Uiso   1.00
Cu419  Cu    0.83333   0.75000   0.29821   0.00000  Uiso   1.00
Cu420  Cu    0.83333   0.75001   0.20178   0.00000  Uiso   1.00
H421   H     0.89616   0.52558   0.29978   0.00000  Uiso   1.00
H422   H     0.87815   0.80870   0.38087   0.00000  Uiso   1.00
H423   H     0.76073   0.71489   0.02714   0.00000  Uiso   1.00
H424   H     0.87760   0.81087   0.46917   0.00000  Uiso   1.00
H425   H     0.66703   0.67179   0.32375   0.00000  Uiso   1.00
H426   H     0.69223   0.61596   0.32614   0.00000  Uiso   1.00
H427   H     0.70148   0.65208   0.27596   0.00000  Uiso   1.00
H428   H     0.96617   0.59631   0.25155   0.00000  Uiso   1.00
H429   H     0.94146   0.65197   0.24765   0.00000  Uiso   1.00
H430   H     0.90819   0.64202   0.32798   0.00000  Uiso   1.00
H431   H     0.93679   0.58884   0.33509   0.00000  Uiso   1.00
H432   H     0.88540   0.97617   0.20409   0.00000  Uiso   1.00
H433   H     0.98323   0.83011   0.18248   0.00000  Uiso   1.00
H434   H     0.67656   0.88575   0.18367   0.00000  Uiso   1.00
H435   H     0.69550   0.84791   0.23323   0.00000  Uiso   1.00
H436   H     0.96689   0.90327   0.25635   0.00000  Uiso   1.00
H437   H     0.94083   0.84787   0.25615   0.00000  Uiso   1.00
H438   H     0.89140   0.86203   0.17280   0.00000  Uiso   1.00
H439   H     0.92028   0.91505   0.17157   0.00000  Uiso   1.00
H440   H     0.76210   0.61477   0.20143   0.00000  Uiso   1.00
H441   H     0.77283   0.88462   0.29561   0.00000  Uiso   1.00
H442   H     0.90594   0.78502   0.04482   0.00000  Uiso   1.00
H443   H     0.78892   0.68909   0.45878   0.00000  Uiso   1.00
H444   H     0.90341   0.78569   0.13282   0.00000  Uiso   1.00
H445   H     0.78844   0.69132   0.37029   0.00000  Uiso   1.00
H446   H     0.76328   0.71427   0.11581   0.00000  Uiso   1.00
N447   N     0.83333   0.75001   0.12934   0.00000  Uiso   1.00
N448   N     0.83333   0.74999   0.37065   0.00000  Uiso   1.00
O449   O     0.83334   0.68573   0.29071   0.00000  Uiso   1.00
O450   O     0.83333   0.81428   0.20928   0.00000  Uiso   1.00
O451   O     0.83334   0.68573   0.20928   0.00000  Uiso   1.00
O452   O     0.83333   0.81427   0.29072   0.00000  Uiso   1.00
O453   O     0.75828   0.75000   0.28132   0.00000  Uiso   1.00
O454   O     0.90839   0.75001   0.21868   0.00000  Uiso   1.00
O455   O     0.75828   0.75000   0.19988   0.00000  Uiso   1.00
O456   O     0.90839   0.75000   0.30011   0.00000  Uiso   1.00
C457   C     0.16743   0.16500   0.75029   0.00000  Uiso   1.00
C458   C     0.19175   0.28359   0.94896   0.00000  Uiso   1.00
C459   C     0.16666   0.24996   0.52733   0.00000  Uiso   1.00
C460   C     0.16663   0.24997   0.97263   0.00000  Uiso   1.00
C461   C     0.06809   0.24956   0.73787   0.00000  Uiso   1.00
C462   C     0.26525   0.25021   0.76215   0.00000  Uiso   1.00
C463   C     0.01363   0.24378   0.73205   0.00000  Uiso   1.00
C464   C     0.31975   0.25571   0.76808   0.00000  Uiso   1.00
C465   C     0.19998   0.04550   0.77915   0.00000  Uiso   1.00
C466   C     0.19381   0.45563   0.72324   0.00000  Uiso   1.00
C467   C     0.20448   0.09173   0.77924   0.00000  Uiso   1.00
C468   C     0.16758   0.33513   0.74991   0.00000  Uiso   1.00
C469   C     0.19842   0.40947   0.72283   0.00000  Uiso   1.00
C470   C     0.16619   0.11676   0.75077   0.00000  Uiso   1.00
C471   C     0.16622   0.38358   0.74930   0.00000  Uiso   1.00
C472   C     0.12481   0.09544   0.72304   0.00000  Uiso   1.00
C473   C     0.13092   0.40434   0.77545   0.00000  Uiso   1.00
C474   C     0.12077   0.04937   0.72323   0.00000  Uiso   1.00
C475   C     0.12684   0.45034   0.77556   0.00000  Uiso   1.00
C476   C     0.15861   0.02439   0.75140   0.00000  Uiso   1.00
C477   C     0.15853   0.47600   0.74935   0.00000  Uiso   1.00
C478   C     0.25185   0.11269   0.80740   0.00000  Uiso   1.00
C479   C     0.20677   0.26990   0.55883   0.00000  Uiso   1.00
C480   C     0.29094   0.12563   0.77323   0.00000  Uiso   1.00
C481   C     0.00762   0.14243   0.80168   0.00000  Uiso   1.00
C482   C     0.23997   0.38985   0.69650   0.00000  Uiso   1.00
C483   C     0.28595   0.37497   0.73264   0.00000  Uiso   1.00
C484   C     0.32960   0.35867   0.70621   0.00000  Uiso   1.00
C485   C     0.14147   0.21637   0.94306   0.00000  Uiso   1.00
C486   C     0.20580   0.26988   0.60945   0.00000  Uiso   1.00
C487   C     0.14163   0.21720   0.89232   0.00000  Uiso   1.00
C488   C     0.12753   0.23011   0.59994   0.00000  Uiso   1.00
C489   C     0.19163   0.28278   0.89821   0.00000  Uiso   1.00
C490   C     0.12656   0.23004   0.54907   0.00000  Uiso   1.00
Cl491  Cl    0.32119   0.21468   0.67863   0.00000  Uiso   1.00
Cl492  Cl    0.01232   0.28442   0.82178   0.00000  Uiso   1.00
Cl493  Cl    0.06884   0.02393   0.68688   0.00000  Uiso   1.00
Cl494  Cl    0.08272   0.47486   0.80975   0.00000  Uiso   1.00
Cu495  Cu    0.16667   0.25000   0.79821   0.00000  Uiso   1.00
Cu496  Cu    0.16667   0.25001   0.70178   0.00000  Uiso   1.00
H497   H     0.22950   0.02558   0.79978   0.00000  Uiso   1.00
H498   H     0.21149   0.30870   0.88087   0.00000  Uiso   1.00
H499   H     0.09406   0.21489   0.52714   0.00000  Uiso   1.00
H500   H     0.21093   0.31087   0.96917   0.00000  Uiso   1.00
H501   H     0.00036   0.17179   0.82375   0.00000  Uiso   1.00
H502   H     0.02556   0.11596   0.82614   0.00000  Uiso   1.00
H503   H     0.03482   0.15208   0.77596   0.00000  Uiso   1.00
H504   H     0.29951   0.09631   0.75155   0.00000  Uiso   1.00
H505   H     0.27480   0.15197   0.74765   0.00000  Uiso   1.00
H506   H     0.24152   0.14202   0.82798   0.00000  Uiso   1.00
H507   H     0.27012   0.08884   0.83509   0.00000  Uiso   1.00
H508   H     0.21873   0.47617   0.70409   0.00000  Uiso   1.00
H509   H     0.31656   0.33011   0.68248   0.00000  Uiso   1.00
H510   H     0.00990   0.38575   0.68367   0.00000  Uiso   1.00
H511   H     0.02884   0.34791   0.73323   0.00000  Uiso   1.00
H512   H     0.30023   0.40327   0.75635   0.00000  Uiso   1.00
H513   H     0.27416   0.34787   0.75615   0.00000  Uiso   1.00
H514   H     0.22474   0.36203   0.67280   0.00000  Uiso   1.00
H515   H     0.25361   0.41505   0.67157   0.00000  Uiso   1.00
H516   H     0.09544   0.11477   0.70143   0.00000  Uiso   1.00
H517   H     0.10617   0.38462   0.79561   0.00000  Uiso   1.00
H518   H     0.23928   0.28502   0.54482   0.00000  Uiso   1.00
H519   H     0.12225   0.18909   0.95878   0.00000  Uiso   1.00
H520   H     0.23675   0.28569   0.63282   0.00000  Uiso   1.00
H521   H     0.12177   0.19132   0.87029   0.00000  Uiso   1.00
H522   H     0.09661   0.21427   0.61581   0.00000  Uiso   1.00
N523   N     0.16667   0.25001   0.62934   0.00000  Uiso   1.00
N524   N     0.16667   0.24999   0.87065   0.00000  Uiso   1.00
O525   O     0.16667   0.18573   0.79071   0.00000  Uiso   1.00
O526   O     0.16666   0.31428   0.70928   0.00000  Uiso   1.00
O527   O     0.16667   0.18573   0.70928   0.00000  Uiso   1.00
O528   O     0.16666   0.31427   0.79072   0.00000  Uiso   1.00
O529   O     0.09161   0.25000   0.78132   0.00000  Uiso   1.00
O530   O     0.24172   0.25001   0.71868   0.00000  Uiso   1.00
O531   O     0.09161   0.25000   0.69988   0.00000  Uiso   1.00
O532   O     0.24172   0.25000   0.80011   0.00000  Uiso   1.00
C533   C     0.50077   0.16500   0.75029   0.00000  Uiso   1.00
C534   C     0.52508   0.28359   0.94896   0.00000  Uiso   1.00
C535   C     0.49999   0.24996   0.52733   0.00000  Uiso   1.00
C536   C     0.49996   0.24997   0.97263   0.00000  Uiso   1.00
C537   C     0.40143   0.24956   0.73787   0.00000  Uiso   1.00
C538   C     0.59858   0.25021   0.76215   0.00000  Uiso   1.00
C539   C     0.34697   0.24378   0.73205   0.00000  Uiso   1.00
C540   C     0.65308   0.25571   0.76808   0.00000  Uiso   1.00
C541   C     0.53331   0.04550   0.77915   0.00000  Uiso   1.00
C542   C     0.52714   0.45563   0.72324   0.00000  Uiso   1.00
C543   C     0.53781   0.09173   0.77924   0.00000  Uiso   1.00
C544   C     0.50092   0.33513   0.74991   0.00000  Uiso   1.00
C545   C     0.53175   0.40947   0.72283   0.00000  Uiso   1.00
C546   C     0.49952   0.11676   0.75077   0.00000  Uiso   1.00
C547   C     0.49955   0.38358   0.74930   0.00000  Uiso   1.00
C548   C     0.45814   0.09544   0.72304   0.00000  Uiso   1.00
C549   C     0.46425   0.40434   0.77545   0.00000  Uiso   1.00
C550   C     0.45411   0.04937   0.72323   0.00000  Uiso   1.00
C551   C     0.46017   0.45034   0.77556   0.00000  Uiso   1.00
C552   C     0.49195   0.02439   0.75140   0.00000  Uiso   1.00
C553   C     0.49187   0.47600   0.74935   0.00000  Uiso   1.00
C554   C     0.58518   0.11269   0.80740   0.00000  Uiso   1.00
C555   C     0.54011   0.26990   0.55883   0.00000  Uiso   1.00
C556   C     0.62427   0.12563   0.77323   0.00000  Uiso   1.00
C557   C     0.34096   0.14243   0.80168   0.00000  Uiso   1.00
C558   C     0.57330   0.38985   0.69650   0.00000  Uiso   1.00
C559   C     0.61928   0.37497   0.73264   0.00000  Uiso   1.00
C560   C     0.66293   0.35867   0.70621   0.00000  Uiso   1.00
C561   C     0.47481   0.21637   0.94306   0.00000  Uiso   1.00
C562   C     0.53913   0.26988   0.60945   0.00000  Uiso   1.00
C563   C     0.47497   0.21720   0.89232   0.00000  Uiso   1.00
C564   C     0.46086   0.23011   0.59994   0.00000  Uiso   1.00
C565   C     0.52497   0.28278   0.89821   0.00000  Uiso   1.00
C566   C     0.45989   0.23004   0.54907   0.00000  Uiso   1.00
Cl567  Cl    0.65453   0.21468   0.67863   0.00000  Uiso   1.00
Cl568  Cl    0.34565   0.28442   0.82178   0.00000  Uiso   1.00
Cl569  Cl    0.40217   0.02393   0.68688   0.00000  Uiso   1.00
Cl570  Cl    0.41605   0.47486   0.80975   0.00000  Uiso   1.00
Cu571  Cu    0.50000   0.25000   0.79821   0.00000  Uiso   1.00
Cu572  Cu    0.50000   0.25001   0.70178   0.00000  Uiso   1.00
H573   H     0.56283   0.02558   0.79978   0.00000  Uiso   1.00
H574   H     0.54482   0.30870   0.88087   0.00000  Uiso   1.00
H575   H     0.42740   0.21489   0.52714   0.00000  Uiso   1.00
H576   H     0.54426   0.31087   0.96917   0.00000  Uiso   1.00
H577   H     0.33369   0.17179   0.82375   0.00000  Uiso   1.00
H578   H     0.35889   0.11596   0.82614   0.00000  Uiso   1.00
H579   H     0.36815   0.15208   0.77596   0.00000  Uiso   1.00
H580   H     0.63284   0.09631   0.75155   0.00000  Uiso   1.00
H581   H     0.60813   0.15197   0.74765   0.00000  Uiso   1.00
H582   H     0.57485   0.14202   0.82798   0.00000  Uiso   1.00
H583   H     0.60346   0.08884   0.83509   0.00000  Uiso   1.00
H584   H     0.55206   0.47617   0.70409   0.00000  Uiso   1.00
H585   H     0.64990   0.33011   0.68248   0.00000  Uiso   1.00
H586   H     0.34323   0.38575   0.68367   0.00000  Uiso   1.00
H587   H     0.36217   0.34791   0.73323   0.00000  Uiso   1.00
H588   H     0.63356   0.40327   0.75635   0.00000  Uiso   1.00
H589   H     0.60749   0.34787   0.75615   0.00000  Uiso   1.00
H590   H     0.55807   0.36203   0.67280   0.00000  Uiso   1.00
H591   H     0.58695   0.41505   0.67157   0.00000  Uiso   1.00
H592   H     0.42877   0.11477   0.70143   0.00000  Uiso   1.00
H593   H     0.43950   0.38462   0.79561   0.00000  Uiso   1.00
H594   H     0.57261   0.28502   0.54482   0.00000  Uiso   1.00
H595   H     0.45559   0.18909   0.95878   0.00000  Uiso   1.00
H596   H     0.57008   0.28569   0.63282   0.00000  Uiso   1.00
H597   H     0.45511   0.19132   0.87029   0.00000  Uiso   1.00
H598   H     0.42994   0.21427   0.61581   0.00000  Uiso   1.00
N599   N     0.50000   0.25001   0.62934   0.00000  Uiso   1.00
N600   N     0.50000   0.24999   0.87065   0.00000  Uiso   1.00
O601   O     0.50000   0.18573   0.79071   0.00000  Uiso   1.00
O602   O     0.50000   0.31428   0.70928   0.00000  Uiso   1.00
O603   O     0.50000   0.18573   0.70928   0.00000  Uiso   1.00
O604   O     0.50000   0.31427   0.79072   0.00000  Uiso   1.00
O605   O     0.42495   0.25000   0.78132   0.00000  Uiso   1.00
O606   O     0.57505   0.25001   0.71868   0.00000  Uiso   1.00
O607   O     0.42495   0.25000   0.69988   0.00000  Uiso   1.00
O608   O     0.57505   0.25000   0.80011   0.00000  Uiso   1.00
C609   C     0.83410   0.16500   0.75029   0.00000  Uiso   1.00
C610   C     0.85842   0.28359   0.94896   0.00000  Uiso   1.00
C611   C     0.83332   0.24996   0.52733   0.00000  Uiso   1.00
C612   C     0.83329   0.24997   0.97263   0.00000  Uiso   1.00
C613   C     0.73476   0.24956   0.73787   0.00000  Uiso   1.00
C614   C     0.93191   0.25021   0.76215   0.00000  Uiso   1.00
C615   C     0.68030   0.24378   0.73205   0.00000  Uiso   1.00
C616   C     0.98641   0.25571   0.76808   0.00000  Uiso   1.00
C617   C     0.86664   0.04550   0.77915   0.00000  Uiso   1.00
C618   C     0.86048   0.45563   0.72324   0.00000  Uiso   1.00
C619   C     0.87115   0.09173   0.77924   0.00000  Uiso   1.00
C620   C     0.83425   0.33513   0.74991   0.00000  Uiso   1.00
C621   C     0.86509   0.40947   0.72283   0.00000  Uiso   1.00
C622   C     0.83285   0.11676   0.75077   0.00000  Uiso   1.00
C623   C     0.83289   0.38358   0.74930   0.00000  Uiso   1.00
C624   C     0.79148   0.09544   0.72304   0.00000  Uiso   1.00
C625   C     0.79758   0.40434   0.77545   0.00000  Uiso   1.00
C626   C     0.78744   0.04937   0.72323   0.00000  Uiso   1.00
C627   C     0.79350   0.45034   0.77556   0.00000  Uiso   1.00
C628   C     0.82528   0.02439   0.75140   0.00000  Uiso   1.00
C629   C     0.82520   0.47600   0.74935   0.00000  Uiso   1.00
C630   C     0.91851   0.11269   0.80740   0.00000  Uiso   1.00
C631   C     0.87344   0.26990   0.55883   0.00000  Uiso   1.00
C632   C     0.95761   0.12563   0.77323   0.00000  Uiso   1.00
C633   C     0.67429   0.14243   0.80168   0.00000  Uiso   1.00
C634   C     0.90664   0.38985   0.69650   0.00000  Uiso   1.00
C635   C     0.95262   0.37497   0.73264   0.00000  Uiso   1.00
C636   C     0.99626   0.35867   0.70621   0.00000  Uiso   1.00
C637   C     0.80814   0.21637   0.94306   0.00000  Uiso   1.00
C638   C     0.87247   0.26988   0.60945   0.00000  Uiso   1.00
C639   C     0.80830   0.21720   0.89232   0.00000  Uiso   1.00
C640   C     0.79420   0.23011   0.59994   0.00000  Uiso   1.00
C641   C     0.85830   0.28278   0.89821   0.00000  Uiso   1.00
C642   C     0.79322   0.23004   0.54907   0.00000  Uiso   1.00
Cl643  Cl    0.98786   0.21468   0.67863   0.00000  Uiso   1.00
Cl644  Cl    0.67898   0.28442   0.82178   0.00000  Uiso   1.00
Cl645  Cl    0.73551   0.02393   0.68688   0.00000  Uiso   1.00
Cl646  Cl    0.74938   0.47486   0.80975   0.00000  Uiso   1.00
Cu647  Cu    0.83333   0.25000   0.79821   0.00000  Uiso   1.00
Cu648  Cu    0.83333   0.25001   0.70178   0.00000  Uiso   1.00
H649   H     0.89616   0.02558   0.79978   0.00000  Uiso   1.00
H650   H     0.87815   0.30870   0.88087   0.00000  Uiso   1.00
H651   H     0.76073   0.21489   0.52714   0.00000  Uiso   1.00
H652   H     0.87760   0.31087   0.96917   0.00000  Uiso   1.00
H653   H     0.66703   0.17179   0.82375   0.00000  Uiso   1.00
H654   H     0.69223   0.11596   0.82614   0.00000  Uiso   1.00
H655   H     0.70148   0.15208   0.77596   0.00000  Uiso   1.00
H656   H     0.96617   0.09631   0.75155   0.00000  Uiso   1.00
H657   H     0.94146   0.15197   0.74765   0.00000  Uiso   1.00
H658   H     0.90819   0.14202   0.82798   0.00000  Uiso   1.00
H659   H     0.93679   0.08884   0.83509   0.00000  Uiso   1.00
H660   H     0.88540   0.47617   0.70409   0.00000  Uiso   1.00
H661   H     0.98323   0.33011   0.68248   0.00000  Uiso   1.00
H662   H     0.67656   0.38575   0.68367   0.00000  Uiso   1.00
H663   H     0.69550   0.34791   0.73323   0.00000  Uiso   1.00
H664   H     0.96689   0.40327   0.75635   0.00000  Uiso   1.00
H665   H     0.94083   0.34787   0.75615   0.00000  Uiso   1.00
H666   H     0.89140   0.36203   0.67280   0.00000  Uiso   1.00
H667   H     0.92028   0.41505   0.67157   0.00000  Uiso   1.00
H668   H     0.76210   0.11477   0.70143   0.00000  Uiso   1.00
H669   H     0.77283   0.38462   0.79561   0.00000  Uiso   1.00
H670   H     0.90594   0.28502   0.54482   0.00000  Uiso   1.00
H671   H     0.78892   0.18909   0.95878   0.00000  Uiso   1.00
H672   H     0.90341   0.28569   0.63282   0.00000  Uiso   1.00
H673   H     0.78844   0.19132   0.87029   0.00000  Uiso   1.00
H674   H     0.76328   0.21427   0.61581   0.00000  Uiso   1.00
N675   N     0.83333   0.25001   0.62934   0.00000  Uiso   1.00
N676   N     0.83333   0.24999   0.87065   0.00000  Uiso   1.00
O677   O     0.83334   0.18573   0.79071   0.00000  Uiso   1.00
O678   O     0.83333   0.31428   0.70928   0.00000  Uiso   1.00
O679   O     0.83334   0.18573   0.70928   0.00000  Uiso   1.00
O680   O     0.83333   0.31427   0.79072   0.00000  Uiso   1.00
O681   O     0.75828   0.25000   0.78132   0.00000  Uiso   1.00
O682   O     0.90839   0.25001   0.71868   0.00000  Uiso   1.00
O683   O     0.75828   0.25000   0.69988   0.00000  Uiso   1.00
O684   O     0.90839   0.25000   0.80011   0.00000  Uiso   1.00
C685   C     0.16743   0.66500   0.75029   0.00000  Uiso   1.00
C686   C     0.19175   0.78359   0.94896   0.00000  Uiso   1.00
C687   C     0.16666   0.74996   0.52733   0.00000  Uiso   1.00
C688   C     0.16663   0.74997   0.97263   0.00000  Uiso   1.00
C689   C     0.06809   0.74956   0.73787   0.00000  Uiso   1.00
C690   C     0.26525   0.75021   0.76215   0.00000  Uiso   1.00
C691   C     0.01363   0.74378   0.73205   0.00000  Uiso   1.00
C692   C     0.31975   0.75571   0.76808   0.00000  Uiso   1.00
C693   C     0.19998   0.54550   0.77915   0.00000  Uiso   1.00
C694   C     0.19381   0.95563   0.72324   0.00000  Uiso   1.00
C695   C     0.20448   0.59173   0.77924   0.00000  Uiso   1.00
C696   C     0.16758   0.83513   0.74991   0.00000  Uiso   1.00
C697   C     0.19842   0.90947   0.72283   0.00000  Uiso   1.00
C698   C     0.16619   0.61676   0.75077   0.00000  Uiso   1.00
C699   C     0.16622   0.88358   0.74930   0.00000  Uiso   1.00
C700   C     0.12481   0.59544   0.72304   0.00000  Uiso   1.00
C701   C     0.13092   0.90434   0.77545   0.00000  Uiso   1.00
C702   C     0.12077   0.54937   0.72323   0.00000  Uiso   1.00
C703   C     0.12684   0.95034   0.77556   0.00000  Uiso   1.00
C704   C     0.15861   0.52439   0.75140   0.00000  Uiso   1.00
C705   C     0.15853   0.97600   0.74935   0.00000  Uiso   1.00
C706   C     0.25185   0.61269   0.80740   0.00000  Uiso   1.00
C707   C     0.20677   0.76990   0.55883   0.00000  Uiso   1.00
C708   C     0.29094   0.62563   0.77323   0.00000  Uiso   1.00
C709   C     0.00762   0.64243   0.80168   0.00000  Uiso   1.00
C710   C     0.23997   0.88985   0.69650   0.00000  Uiso   1.00
C711   C     0.28595   0.87497   0.73264   0.00000  Uiso   1.00
C712   C     0.32960   0.85867   0.70621   0.00000  Uiso   1.00
C713   C     0.14147   0.71637   0.94306   0.00000  Uiso   1.00
C714   C     0.20580   0.76988   0.60945   0.00000  Uiso   1.00
C715   C     0.14163   0.71720   0.89232   0.00000  Uiso   1.00
C716   C     0.12753   0.73011   0.59994   0.00000  Uiso   1.00
C717   C     0.19163   0.78278   0.89821   0.00000  Uiso   1.00
C718   C     0.12656   0.73004   0.54907   0.00000  Uiso   1.00
Cl719  Cl    0.32119   0.71468   0.67863   0.00000  Uiso   1.00
Cl720  Cl    0.01232   0.78442   0.82178   0.00000  Uiso   1.00
Cl721  Cl    0.06884   0.52393   0.68688   0.00000  Uiso   1.00
Cl722  Cl    0.08272   0.97486   0.80975   0.00000  Uiso   1.00
Cu723  Cu    0.16667   0.75000   0.79821   0.00000  Uiso   1.00
Cu724  Cu    0.16667   0.75001   0.70178   0.00000  Uiso   1.00
H725   H     0.22950   0.52558   0.79978   0.00000  Uiso   1.00
H726   H     0.21149   0.80870   0.88087   0.00000  Uiso   1.00
H727   H     0.09406   0.71489   0.52714   0.00000  Uiso   1.00
H728   H     0.21093   0.81087   0.96917   0.00000  Uiso   1.00
H729   H     0.00036   0.67179   0.82375   0.00000  Uiso   1.00
H730   H     0.02556   0.61596   0.82614   0.00000  Uiso   1.00
H731   H     0.03482   0.65208   0.77596   0.00000  Uiso   1.00
H732   H     0.29951   0.59631   0.75155   0.00000  Uiso   1.00
H733   H     0.27480   0.65197   0.74765   0.00000  Uiso   1.00
H734   H     0.24152   0.64202   0.82798   0.00000  Uiso   1.00
H735   H     0.27012   0.58884   0.83509   0.00000  Uiso   1.00
H736   H     0.21873   0.97617   0.70409   0.00000  Uiso   1.00
H737   H     0.31656   0.83011   0.68248   0.00000  Uiso   1.00
H738   H     0.00990   0.88575   0.68367   0.00000  Uiso   1.00
H739   H     0.02884   0.84791   0.73323   0.00000  Uiso   1.00
H740   H     0.30023   0.90327   0.75635   0.00000  Uiso   1.00
H741   H     0.27416   0.84787   0.75615   0.00000  Uiso   1.00
H742   H     0.22474   0.86203   0.67280   0.00000  Uiso   1.00
H743   H     0.25361   0.91505   0.67157   0.00000  Uiso   1.00
H744   H     0.09544   0.61477   0.70143   0.00000  Uiso   1.00
H745   H     0.10617   0.88462   0.79561   0.00000  Uiso   1.00
H746   H     0.23928   0.78502   0.54482   0.00000  Uiso   1.00
H747   H     0.12225   0.68909   0.95878   0.00000  Uiso   1.00
H748   H     0.23675   0.78569   0.63282   0.00000  Uiso   1.00
H749   H     0.12177   0.69132   0.87029   0.00000  Uiso   1.00
H750   H     0.09661   0.71427   0.61581   0.00000  Uiso   1.00
N751   N     0.16667   0.75001   0.62934   0.00000  Uiso   1.00
N752   N     0.16667   0.74999   0.87065   0.00000  Uiso   1.00
O753   O     0.16667   0.68573   0.79071   0.00000  Uiso   1.00
O754   O     0.16666   0.81428   0.70928   0.00000  Uiso   1.00
O755   O     0.16667   0.68573   0.70928   0.00000  Uiso   1.00
O756   O     0.16666   0.81427   0.79072   0.00000  Uiso   1.00
O757   O     0.09161   0.75000   0.78132   0.00000  Uiso   1.00
O758   O     0.24172   0.75001   0.71868   0.00000  Uiso   1.00
O759   O     0.09161   0.75000   0.69988   0.00000  Uiso   1.00
O760   O     0.24172   0.75000   0.80011   0.00000  Uiso   1.00
C761   C     0.50077   0.66500   0.75029   0.00000  Uiso   1.00
C762   C     0.52508   0.78359   0.94896   0.00000  Uiso   1.00
C763   C     0.49999   0.74996   0.52733   0.00000  Uiso   1.00
C764   C     0.49996   0.74997   0.97263   0.00000  Uiso   1.00
C765   C     0.40143   0.74956   0.73787   0.00000  Uiso   1.00
C766   C     0.59858   0.75021   0.76215   0.00000  Uiso   1.00
C767   C     0.34697   0.74378   0.73205   0.00000  Uiso   1.00
C768   C     0.65308   0.75571   0.76808   0.00000  Uiso   1.00
C769   C     0.53331   0.54550   0.77915   0.00000  Uiso   1.00
C770   C     0.52714   0.95563   0.72324   0.00000  Uiso   1.00
C771   C     0.53781   0.59173   0.77924   0.00000  Uiso   1.00
C772   C     0.50092   0.83513   0.74991   0.00000  Uiso   1.00
C773   C     0.53175   0.90947   0.72283   0.00000  Uiso   1.00
C774   C     0.49952   0.61676   0.75077   0.00000  Uiso   1.00
C775   C     0.49955   0.88358   0.74930   0.00000  Uiso   1.00
C776   C     0.45814   0.59544   0.72304   0.00000  Uiso   1.00
C777   C     0.46425   0.90434   0.77545   0.00000  Uiso   1.00
C778   C     0.45411   0.54937   0.72323   0.00000  Uiso   1.00
C779   C     0.46017   0.95034   0.77556   0.00000  Uiso   1.00
C780   C     0.49195   0.52439   0.75140   0.00000  Uiso   1.00
C781   C     0.49187   0.97600   0.74935   0.00000  Uiso   1.00
C782   C     0.58518   0.61269   0.80740   0.00000  Uiso   1.00
C783   C     0.54011   0.76990   0.55883   0.00000  Uiso   1.00
C784   C     0.62427   0.62563   0.77323   0.00000  Uiso   1.00
C785   C     0.34096   0.64243   0.80168   0.00000  Uiso   1.00
C786   C     0.57330   0.88985   0.69650   0.00000  Uiso   1.00
C787   C     0.61928   0.87497   0.73264   0.00000  Uiso   1.00
C788   C     0.66293   0.85867   0.70621   0.00000  Uiso   1.00
C789   C     0.47481   0.71637   0.94306   0.00000  Uiso   1.00
C790   C     0.53913   0.76988   0.60945   0.00000  Uiso   1.00
C791   C     0.47497   0.71720   0.89232   0.00000  Uiso   1.00
C792   C     0.46086   0.73011   0.59994   0.00000  Uiso   1.00
C793   C     0.52497   0.78278   0.89821   0.00000  Uiso   1.00
C794   C     0.45989   0.73004   0.54907   0.00000  Uiso   1.00
Cl795  Cl    0.65453   0.71468   0.67863   0.00000  Uiso   1.00
Cl796  Cl    0.34565   0.78442   0.82178   0.00000  Uiso   1.00
Cl797  Cl    0.40217   0.52393   0.68688   0.00000  Uiso   1.00
Cl798  Cl    0.41605   0.97486   0.80975   0.00000  Uiso   1.00
Cu799  Cu    0.50000   0.75000   0.79821   0.00000  Uiso   1.00
Cu800  Cu    0.50000   0.75001   0.70178   0.00000  Uiso   1.00
H801   H     0.56283   0.52558   0.79978   0.00000  Uiso   1.00
H802   H     0.54482   0.80870   0.88087   0.00000  Uiso   1.00
H803   H     0.42740   0.71489   0.52714   0.00000  Uiso   1.00
H804   H     0.54426   0.81087   0.96917   0.00000  Uiso   1.00
H805   H     0.33369   0.67179   0.82375   0.00000  Uiso   1.00
H806   H     0.35889   0.61596   0.82614   0.00000  Uiso   1.00
H807   H     0.36815   0.65208   0.77596   0.00000  Uiso   1.00
H808   H     0.63284   0.59631   0.75155   0.00000  Uiso   1.00
H809   H     0.60813   0.65197   0.74765   0.00000  Uiso   1.00
H810   H     0.57485   0.64202   0.82798   0.00000  Uiso   1.00
H811   H     0.60346   0.58884   0.83509   0.00000  Uiso   1.00
H812   H     0.55206   0.97617   0.70409   0.00000  Uiso   1.00
H813   H     0.64990   0.83011   0.68248   0.00000  Uiso   1.00
H814   H     0.34323   0.88575   0.68367   0.00000  Uiso   1.00
H815   H     0.36217   0.84791   0.73323   0.00000  Uiso   1.00
H816   H     0.63356   0.90327   0.75635   0.00000  Uiso   1.00
H817   H     0.60749   0.84787   0.75615   0.00000  Uiso   1.00
H818   H     0.55807   0.86203   0.67280   0.00000  Uiso   1.00
H819   H     0.58695   0.91505   0.67157   0.00000  Uiso   1.00
H820   H     0.42877   0.61477   0.70143   0.00000  Uiso   1.00
H821   H     0.43950   0.88462   0.79561   0.00000  Uiso   1.00
H822   H     0.57261   0.78502   0.54482   0.00000  Uiso   1.00
H823   H     0.45559   0.68909   0.95878   0.00000  Uiso   1.00
H824   H     0.57008   0.78569   0.63282   0.00000  Uiso   1.00
H825   H     0.45511   0.69132   0.87029   0.00000  Uiso   1.00
H826   H     0.42994   0.71427   0.61581   0.00000  Uiso   1.00
N827   N     0.50000   0.75001   0.62934   0.00000  Uiso   1.00
N828   N     0.50000   0.74999   0.87065   0.00000  Uiso   1.00
O829   O     0.50000   0.68573   0.79071   0.00000  Uiso   1.00
O830   O     0.50000   0.81428   0.70928   0.00000  Uiso   1.00
O831   O     0.50000   0.68573   0.70928   0.00000  Uiso   1.00
O832   O     0.50000   0.81427   0.79072   0.00000  Uiso   1.00
O833   O     0.42495   0.75000   0.78132   0.00000  Uiso   1.00
O834   O     0.57505   0.75001   0.71868   0.00000  Uiso   1.00
O835   O     0.42495   0.75000   0.69988   0.00000  Uiso   1.00
O836   O     0.57505   0.75000   0.80011   0.00000  Uiso   1.00
C837   C     0.83410   0.66500   0.75029   0.00000  Uiso   1.00
C838   C     0.85842   0.78359   0.94896   0.00000  Uiso   1.00
C839   C     0.83332   0.74996   0.52733   0.00000  Uiso   1.00
C840   C     0.83329   0.74997   0.97263   0.00000  Uiso   1.00
C841   C     0.73476   0.74956   0.73787   0.00000  Uiso   1.00
C842   C     0.93191   0.75021   0.76215   0.00000  Uiso   1.00
C843   C     0.68030   0.74378   0.73205   0.00000  Uiso   1.00
C844   C     0.98641   0.75571   0.76808   0.00000  Uiso   1.00
C845   C     0.86664   0.54550   0.77915   0.00000  Uiso   1.00
C846   C     0.86048   0.95563   0.72324   0.00000  Uiso   1.00
C847   C     0.87115   0.59173   0.77924   0.00000  Uiso   1.00
C848   C     0.83425   0.83513   0.74991   0.00000  Uiso   1.00
C849   C     0.86509   0.90947   0.72283   0.00000  Uiso   1.00
C850   C     0.83285   0.61676   0.75077   0.00000  Uiso   1.00
C851   C     0.83289   0.88358   0.74930   0.00000  Uiso   1.00
C852   C     0.79148   0.59544   0.72304   0.00000  Uiso   1.00
C853   C     0.79758   0.90434   0.77545   0.00000  Uiso   1.00
C854   C     0.78744   0.54937   0.72323   0.00000  Uiso   1.00
C855   C     0.79350   0.95034   0.77556   0.00000  Uiso   1.00
C856   C     0.82528   0.52439   0.75140   0.00000  Uiso   1.00
C857   C     0.82520   0.97600   0.74935   0.00000  Uiso   1.00
C858   C     0.91851   0.61269   0.80740   0.00000  Uiso   1.00
C859   C     0.87344   0.76990   0.55883   0.00000  Uiso   1.00
C860   C     0.95761   0.62563   0.77323   0.00000  Uiso   1.00
C861   C     0.67429   0.64243   0.80168   0.00000  Uiso   1.00
C862   C     0.90664   0.88985   0.69650   0.00000  Uiso   1.00
C863   C     0.95262   0.87497   0.73264   0.00000  Uiso   1.00
C864   C     0.99626   0.85867   0.70621   0.00000  Uiso   1.00
C865   C     0.80814   0.71637   0.94306   0.00000  Uiso   1.00
C866   C     0.87247   0.76988   0.60945   0.00000  Uiso   1.00
C867   C     0.80830   0.71720   0.89232   0.00000  Uiso   1.00
C868   C     0.79420   0.73011   0.59994   0.00000  Uiso   1.00
C869   C     0.85830   0.78278   0.89821   0.00000  Uiso   1.00
C870   C     0.79322   0.73004   0.54907   0.00000  Uiso   1.00
Cl871  Cl    0.98786   0.71468   0.67863   0.00000  Uiso   1.00
Cl872  Cl    0.67898   0.78442   0.82178   0.00000  Uiso   1.00
Cl873  Cl    0.73551   0.52393   0.68688   0.00000  Uiso   1.00
Cl874  Cl    0.74938   0.97486   0.80975   0.00000  Uiso   1.00
Cu875  Cu    0.83333   0.75000   0.79821   0.00000  Uiso   1.00
Cu876  Cu    0.83333   0.75001   0.70178   0.00000  Uiso   1.00
H877   H     0.89616   0.52558   0.79978   0.00000  Uiso   1.00
H878   H     0.87815   0.80870   0.88087   0.00000  Uiso   1.00
H879   H     0.76073   0.71489   0.52714   0.00000  Uiso   1.00
H880   H     0.87760   0.81087   0.96917   0.00000  Uiso   1.00
H881   H     0.66703   0.67179   0.82375   0.00000  Uiso   1.00
H882   H     0.69223   0.61596   0.82614   0.00000  Uiso   1.00
H883   H     0.70148   0.65208   0.77596   0.00000  Uiso   1.00
H884   H     0.96617   0.59631   0.75155   0.00000  Uiso   1.00
H885   H     0.94146   0.65197   0.74765   0.00000  Uiso   1.00
H886   H     0.90819   0.64202   0.82798   0.00000  Uiso   1.00
H887   H     0.93679   0.58884   0.83509   0.00000  Uiso   1.00
H888   H     0.88540   0.97617   0.70409   0.00000  Uiso   1.00
H889   H     0.98323   0.83011   0.68248   0.00000  Uiso   1.00
H890   H     0.67656   0.88575   0.68367   0.00000  Uiso   1.00
H891   H     0.69550   0.84791   0.73323   0.00000  Uiso   1.00
H892   H     0.96689   0.90327   0.75635   0.00000  Uiso   1.00
H893   H     0.94083   0.84787   0.75615   0.00000  Uiso   1.00
H894   H     0.89140   0.86203   0.67280   0.00000  Uiso   1.00
H895   H     0.92028   0.91505   0.67157   0.00000  Uiso   1.00
H896   H     0.76210   0.61477   0.70143   0.00000  Uiso   1.00
H897   H     0.77283   0.88462   0.79561   0.00000  Uiso   1.00
H898   H     0.90594   0.78502   0.54482   0.00000  Uiso   1.00
H899   H     0.78892   0.68909   0.95878   0.00000  Uiso   1.00
H900   H     0.90341   0.78569   0.63282   0.00000  Uiso   1.00
H901   H     0.78844   0.69132   0.87029   0.00000  Uiso   1.00
H902   H     0.76328   0.71427   0.61581   0.00000  Uiso   1.00
N903   N     0.83333   0.75001   0.62934   0.00000  Uiso   1.00
N904   N     0.83333   0.74999   0.87065   0.00000  Uiso   1.00
O905   O     0.83334   0.68573   0.79071   0.00000  Uiso   1.00
O906   O     0.83333   0.81428   0.70928   0.00000  Uiso   1.00
O907   O     0.83334   0.68573   0.70928   0.00000  Uiso   1.00
O908   O     0.83333   0.81427   0.79072   0.00000  Uiso   1.00
O909   O     0.75828   0.75000   0.78132   0.00000  Uiso   1.00
O910   O     0.90839   0.75001   0.71868   0.00000  Uiso   1.00
O911   O     0.75828   0.75000   0.69988   0.00000  Uiso   1.00
O912   O     0.90839   0.75000   0.80011   0.00000  Uiso   1.00
loop_
_geom_bond_atom_site_label_1
_geom_bond_atom_site_label_2
_geom_bond_distance
_geom_bond_site_symmetry_2
_ccdc_geom_bond_type
C1     O71     1.291   .     A
C1     O69     1.288   .     A
C1     C14     1.454   .     S
C2     H44     1.081   .     S
C2     C4      1.411   .     A
C2     C33     1.406   .     A
C3     C23     1.411   .     A
C3     C34     1.411   .     A
C3     C460    1.516   1_554 S
C4     C29     1.411   .     A
C4     C459    1.516   .     S
C5     C7      1.430   .     S
C5     O75     1.289   .     A
C5     O73     1.279   .     A
C6     O74     1.280   .     A
C6     C8      1.430   .     S
C6     O76     1.289   .     A
C7     C160    1.355   1_455 S
C7     Cl187   1.778   1_455 S
C8     C83     1.355   .     S
C8     Cl112   1.780   .     S
C9     C11     1.397   .     A
C9     C20     1.399   .     A
C9     H41     1.085   .     S
C10    H52     1.085   .     S
C10    C21     1.397   .     A
C10    C13     1.398   .     A
C11    C14     1.415   .     A
C11    C22     1.516   .     S
C12    O72     1.294   .     A
C12    C15     1.461   .     S
C12    O70     1.290   .     A
C13    C15     1.419   .     A
C13    C26     1.517   .     S
C14    C16     1.401   .     A
C15    C17     1.403   .     A
C16    H60     1.084   .     S
C16    C18     1.392   .     A
C17    H61     1.084   .     S
C17    C19     1.392   .     A
C18    Cl37    1.761   .     S
C18    C20     1.403   .     A
C19    C21     1.401   .     A
C19    Cl38    1.761   .     S
C20    C249    1.460   1_545 S
C21    C248    1.460   .     S
C22    H50     1.109   .     S
C22    C24     1.534   .     S
C22    H51     1.113   .     S
C23    H62     1.081   .     S
C23    C30     1.406   .     A
C24    H48     1.112   .     S
C24    H49     1.110   .     S
C24    C101    1.527   .     S
C25    H47     1.111   .     S
C25    H45     1.111   .     S
C25    H46     1.111   .     S
C25    C176    1.527   1_455 S
C26    C27     1.533   .     S
C26    H59     1.113   .     S
C26    H58     1.108   .     S
C27    H57     1.110   .     S
C27    H56     1.112   .     S
C27    C28     1.526   .     S
C28    H53     1.111   .     S
C28    H130    1.111   .     S
C28    H131    1.110   .     S
C29    H63     1.081   .     S
C29    C31     1.407   .     A
C30    H64     1.081   .     S
C30    N67     1.364   .     A
C31    N68     1.363   .     A
C31    H65     1.082   .     S
C32    C34     1.406   .     A
C32    N67     1.364   .     A
C32    H66     1.081   .     S
C33    H42     1.081   .     S
C33    N68     1.363   .     A
C34    H43     1.081   .     S
Cl35   C83     1.778   .     S
Cl36   C160    1.780   1_455 S
Cu39   N68     2.007   .     S
Cu39   O72     1.947   .     S
Cu39   Cu40    2.672   .     S
Cu39   O69     1.949   .     S
Cu39   O76     1.968   .     S
Cu39   O73     1.968   .     S
Cu40   O71     1.947   .     S
Cu40   O70     1.949   .     S
Cu40   N67     2.007   .     S
Cu40   O75     1.968   .     S
Cu40   O74     1.968   .     S
H54    C180    1.111   1_455 S
H55    C180    1.110   1_455 S
C77    O147    1.291   .     A
C77    O145    1.288   .     A
C77    C90     1.454   .     S
C78    H120    1.081   .     S
C78    C80     1.411   .     A
C78    C109    1.406   .     A
C79    C99     1.411   .     A
C79    C110    1.411   .     A
C79    C536    1.516   1_554 S
C80    C105    1.411   .     A
C80    C535    1.516   .     S
C81    C83     1.430   .     S
C81    O151    1.289   .     A
C81    O149    1.279   .     A
C82    O150    1.280   .     A
C82    C84     1.430   .     S
C82    O152    1.289   .     A
C84    C159    1.355   .     S
C84    Cl188   1.780   .     S
C85    C87     1.397   .     A
C85    C96     1.399   .     A
C85    H117    1.085   .     S
C86    H128    1.085   .     S
C86    C97     1.397   .     A
C86    C89     1.398   .     A
C87    C90     1.415   .     A
C87    C98     1.516   .     S
C88    O148    1.294   .     A
C88    C91     1.461   .     S
C88    O146    1.290   .     A
C89    C91     1.419   .     A
C89    C102    1.517   .     S
C90    C92     1.401   .     A
C91    C93     1.403   .     A
C92    H136    1.084   .     S
C92    C94     1.392   .     A
C93    H137    1.084   .     S
C93    C95     1.392   .     A
C94    Cl113   1.761   .     S
C94    C96     1.403   .     A
C95    C97     1.401   .     A
C95    Cl114   1.761   .     S
C96    C325    1.460   1_545 S
C97    C324    1.460   .     S
C98    H126    1.109   .     S
C98    C100    1.534   .     S
C98    H127    1.113   .     S
C99    H138    1.081   .     S
C99    C106    1.406   .     A
C100   H124    1.112   .     S
C100   H125    1.110   .     S
C100   C177    1.527   .     S
C101   H123    1.111   .     S
C101   H121    1.111   .     S
C101   H122    1.111   .     S
C102   C103    1.533   .     S
C102   H135    1.113   .     S
C102   H134    1.108   .     S
C103   H133    1.110   .     S
C103   H132    1.112   .     S
C103   C104    1.526   .     S
C104   H129    1.111   .     S
C104   H206    1.111   .     S
C104   H207    1.110   .     S
C105   H139    1.081   .     S
C105   C107    1.407   .     A
C106   H140    1.081   .     S
C106   N143    1.364   .     A
C107   N144    1.363   .     A
C107   H141    1.082   .     S
C108   C110    1.406   .     A
C108   N143    1.364   .     A
C108   H142    1.081   .     S
C109   H118    1.081   .     S
C109   N144    1.363   .     A
C110   H119    1.081   .     S
Cl111  C159    1.778   .     S
Cu115  N144    2.007   .     S
Cu115  O148    1.947   .     S
Cu115  Cu116   2.672   .     S
Cu115  O145    1.949   .     S
Cu115  O152    1.968   .     S
Cu115  O149    1.968   .     S
Cu116  O147    1.947   .     S
Cu116  O146    1.949   .     S
Cu116  N143    2.007   .     S
Cu116  O151    1.968   .     S
Cu116  O150    1.968   .     S
C153   O223    1.291   .     A
C153   O221    1.288   .     A
C153   C166    1.454   .     S
C154   H196    1.081   .     S
C154   C156    1.411   .     A
C154   C185    1.406   .     A
C155   C175    1.411   .     A
C155   C186    1.411   .     A
C155   C612    1.516   1_554 S
C156   C181    1.411   .     A
C156   C611    1.516   .     S
C157   C159    1.430   .     S
C157   O227    1.289   .     A
C157   O225    1.279   .     A
C158   O226    1.280   .     A
C158   C160    1.430   .     S
C158   O228    1.289   .     A
C160   C7      1.355   1_655 S
C160   Cl36    1.780   1_655 S
C161   C163    1.397   .     A
C161   C172    1.399   .     A
C161   H193    1.085   .     S
C162   H204    1.085   .     S
C162   C173    1.397   .     A
C162   C165    1.398   .     A
C163   C166    1.415   .     A
C163   C174    1.516   .     S
C164   O224    1.294   .     A
C164   C167    1.461   .     S
C164   O222    1.290   .     A
C165   C167    1.419   .     A
C165   C178    1.517   .     S
C166   C168    1.401   .     A
C167   C169    1.403   .     A
C168   H212    1.084   .     S
C168   C170    1.392   .     A
C169   H213    1.084   .     S
C169   C171    1.392   .     A
C170   Cl189   1.761   .     S
C170   C172    1.403   .     A
C171   C173    1.401   .     A
C171   Cl190   1.761   .     S
C172   C401    1.460   1_545 S
C173   C400    1.460   .     S
C174   H202    1.109   .     S
C174   C176    1.534   .     S
C174   H203    1.113   .     S
C175   H214    1.081   .     S
C175   C182    1.406   .     A
C176   H200    1.112   .     S
C176   H201    1.110   .     S
C176   C25     1.527   1_655 S
C177   H199    1.111   .     S
C177   H197    1.111   .     S
C177   H198    1.111   .     S
C178   C179    1.533   .     S
C178   H211    1.113   .     S
C178   H210    1.108   .     S
C179   H209    1.110   .     S
C179   H208    1.112   .     S
C179   C180    1.526   .     S
C180   H205    1.111   .     S
C180   H54     1.111   1_655 S
C180   H55     1.110   1_655 S
C181   H215    1.081   .     S
C181   C183    1.407   .     A
C182   H216    1.081   .     S
C182   N219    1.364   .     A
C183   N220    1.363   .     A
C183   H217    1.082   .     S
C184   C186    1.406   .     A
C184   N219    1.364   .     A
C184   H218    1.081   .     S
C185   H194    1.081   .     S
C185   N220    1.363   .     A
C186   H195    1.081   .     S
Cl187  C7      1.778   1_655 S
Cu191  N220    2.007   .     S
Cu191  O224    1.947   .     S
Cu191  Cu192   2.672   .     S
Cu191  O221    1.949   .     S
Cu191  O228    1.968   .     S
Cu191  O225    1.968   .     S
Cu192  O223    1.947   .     S
Cu192  O222    1.949   .     S
Cu192  N219    2.007   .     S
Cu192  O227    1.968   .     S
Cu192  O226    1.968   .     S
C229   O299    1.291   .     A
C229   O297    1.288   .     A
C229   C242    1.454   .     S
C230   H272    1.081   .     S
C230   C232    1.411   .     A
C230   C261    1.406   .     A
C231   C251    1.411   .     A
C231   C262    1.411   .     A
C231   C688    1.516   1_554 S
C232   C257    1.411   .     A
C232   C687    1.516   .     S
C233   C235    1.430   .     S
C233   O303    1.289   .     A
C233   O301    1.279   .     A
C234   O302    1.280   .     A
C234   C236    1.430   .     S
C234   O304    1.289   .     A
C235   C388    1.355   1_455 S
C235   Cl415   1.778   1_455 S
C236   C311    1.355   .     S
C236   Cl340   1.780   .     S
C237   C239    1.397   .     A
C237   C248    1.399   .     A
C237   H269    1.085   .     S
C238   H280    1.085   .     S
C238   C249    1.397   .     A
C238   C241    1.398   .     A
C239   C242    1.415   .     A
C239   C250    1.516   .     S
C240   O300    1.294   .     A
C240   C243    1.461   .     S
C240   O298    1.290   .     A
C241   C243    1.419   .     A
C241   C254    1.517   .     S
C242   C244    1.401   .     A
C243   C245    1.403   .     A
C244   H288    1.084   .     S
C244   C246    1.392   .     A
C245   H289    1.084   .     S
C245   C247    1.392   .     A
C246   Cl265   1.761   .     S
C246   C248    1.403   .     A
C247   C249    1.401   .     A
C247   Cl266   1.761   .     S
C249   C20     1.460   1_565 S
C250   H278    1.109   .     S
C250   C252    1.534   .     S
C250   H279    1.113   .     S
C251   H290    1.081   .     S
C251   C258    1.406   .     A
C252   H276    1.112   .     S
C252   H277    1.110   .     S
C252   C329    1.527   .     S
C253   H275    1.111   .     S
C253   H273    1.111   .     S
C253   H274    1.111   .     S
C253   C404    1.527   1_455 S
C254   C255    1.533   .     S
C254   H287    1.113   .     S
C254   H286    1.108   .     S
C255   H285    1.110   .     S
C255   H284    1.112   .     S
C255   C256    1.526   .     S
C256   H281    1.111   .     S
C256   H358    1.111   .     S
C256   H359    1.110   .     S
C257   H291    1.081   .     S
C257   C259    1.407   .     A
C258   H292    1.081   .     S
C258   N295    1.364   .     A
C259   N296    1.363   .     A
C259   H293    1.082   .     S
C260   C262    1.406   .     A
C260   N295    1.364   .     A
C260   H294    1.081   .     S
C261   H270    1.081   .     S
C261   N296    1.363   .     A
C262   H271    1.081   .     S
Cl263  C311    1.778   .     S
Cl264  C388    1.780   1_455 S
Cu267  N296    2.007   .     S
Cu267  O300    1.947   .     S
Cu267  Cu268   2.672   .     S
Cu267  O297    1.949   .     S
Cu267  O304    1.968   .     S
Cu267  O301    1.968   .     S
Cu268  O299    1.947   .     S
Cu268  O298    1.949   .     S
Cu268  N295    2.007   .     S
Cu268  O303    1.968   .     S
Cu268  O302    1.968   .     S
H282   C408    1.111   1_455 S
H283   C408    1.110   1_455 S
C305   O375    1.291   .     A
C305   O373    1.288   .     A
C305   C318    1.454   .     S
C306   H348    1.081   .     S
C306   C308    1.411   .     A
C306   C337    1.406   .     A
C307   C327    1.411   .     A
C307   C338    1.411   .     A
C307   C764    1.516   1_554 S
C308   C333    1.411   .     A
C308   C763    1.516   .     S
C309   C311    1.430   .     S
C309   O379    1.289   .     A
C309   O377    1.279   .     A
C310   O378    1.280   .     A
C310   C312    1.430   .     S
C310   O380    1.289   .     A
C312   C387    1.355   .     S
C312   Cl416   1.780   .     S
C313   C315    1.397   .     A
C313   C324    1.399   .     A
C313   H345    1.085   .     S
C314   H356    1.085   .     S
C314   C325    1.397   .     A
C314   C317    1.398   .     A
C315   C318    1.415   .     A
C315   C326    1.516   .     S
C316   O376    1.294   .     A
C316   C319    1.461   .     S
C316   O374    1.290   .     A
C317   C319    1.419   .     A
C317   C330    1.517   .     S
C318   C320    1.401   .     A
C319   C321    1.403   .     A
C320   H364    1.084   .     S
C320   C322    1.392   .     A
C321   H365    1.084   .     S
C321   C323    1.392   .     A
C322   Cl341   1.761   .     S
C322   C324    1.403   .     A
C323   C325    1.401   .     A
C323   Cl342   1.761   .     S
C325   C96     1.460   1_565 S
C326   H354    1.109   .     S
C326   C328    1.534   .     S
C326   H355    1.113   .     S
C327   H366    1.081   .     S
C327   C334    1.406   .     A
C328   H352    1.112   .     S
C328   H353    1.110   .     S
C328   C405    1.527   .     S
C329   H351    1.111   .     S
C329   H349    1.111   .     S
C329   H350    1.111   .     S
C330   C331    1.533   .     S
C330   H363    1.113   .     S
C330   H362    1.108   .     S
C331   H361    1.110   .     S
C331   H360    1.112   .     S
C331   C332    1.526   .     S
C332   H357    1.111   .     S
C332   H434    1.111   .     S
C332   H435    1.110   .     S
C333   H367    1.081   .     S
C333   C335    1.407   .     A
C334   H368    1.081   .     S
C334   N371    1.364   .     A
C335   N372    1.363   .     A
C335   H369    1.082   .     S
C336   C338    1.406   .     A
C336   N371    1.364   .     A
C336   H370    1.081   .     S
C337   H346    1.081   .     S
C337   N372    1.363   .     A
C338   H347    1.081   .     S
Cl339  C387    1.778   .     S
Cu343  N372    2.007   .     S
Cu343  O376    1.947   .     S
Cu343  Cu344   2.672   .     S
Cu343  O373    1.949   .     S
Cu343  O380    1.968   .     S
Cu343  O377    1.968   .     S
Cu344  O375    1.947   .     S
Cu344  O374    1.949   .     S
Cu344  N371    2.007   .     S
Cu344  O379    1.968   .     S
Cu344  O378    1.968   .     S
C381   O451    1.291   .     A
C381   O449    1.288   .     A
C381   C394    1.454   .     S
C382   H424    1.081   .     S
C382   C384    1.411   .     A
C382   C413    1.406   .     A
C383   C403    1.411   .     A
C383   C414    1.411   .     A
C383   C840    1.516   1_554 S
C384   C409    1.411   .     A
C384   C839    1.516   .     S
C385   C387    1.430   .     S
C385   O455    1.289   .     A
C385   O453    1.279   .     A
C386   O454    1.280   .     A
C386   C388    1.430   .     S
C386   O456    1.289   .     A
C388   C235    1.355   1_655 S
C388   Cl264   1.780   1_655 S
C389   C391    1.397   .     A
C389   C400    1.399   .     A
C389   H421    1.085   .     S
C390   H432    1.085   .     S
C390   C401    1.397   .     A
C390   C393    1.398   .     A
C391   C394    1.415   .     A
C391   C402    1.516   .     S
C392   O452    1.294   .     A
C392   C395    1.461   .     S
C392   O450    1.290   .     A
C393   C395    1.419   .     A
C393   C406    1.517   .     S
C394   C396    1.401   .     A
C395   C397    1.403   .     A
C396   H440    1.084   .     S
C396   C398    1.392   .     A
C397   H441    1.084   .     S
C397   C399    1.392   .     A
C398   Cl417   1.761   .     S
C398   C400    1.403   .     A
C399   C401    1.401   .     A
C399   Cl418   1.761   .     S
C401   C172    1.460   1_565 S
C402   H430    1.109   .     S
C402   C404    1.534   .     S
C402   H431    1.113   .     S
C403   H442    1.081   .     S
C403   C410    1.406   .     A
C404   H428    1.112   .     S
C404   H429    1.110   .     S
C404   C253    1.527   1_655 S
C405   H427    1.111   .     S
C405   H425    1.111   .     S
C405   H426    1.111   .     S
C406   C407    1.533   .     S
C406   H439    1.113   .     S
C406   H438    1.108   .     S
C407   H437    1.110   .     S
C407   H436    1.112   .     S
C407   C408    1.526   .     S
C408   H433    1.111   .     S
C408   H282    1.111   1_655 S
C408   H283    1.110   1_655 S
C409   H443    1.081   .     S
C409   C411    1.407   .     A
C410   H444    1.081   .     S
C410   N447    1.364   .     A
C411   N448    1.363   .     A
C411   H445    1.082   .     S
C412   C414    1.406   .     A
C412   N447    1.364   .     A
C412   H446    1.081   .     S
C413   H422    1.081   .     S
C413   N448    1.363   .     A
C414   H423    1.081   .     S
Cl415  C235    1.778   1_655 S
Cu419  N448    2.007   .     S
Cu419  O452    1.947   .     S
Cu419  Cu420   2.672   .     S
Cu419  O449    1.949   .     S
Cu419  O456    1.968   .     S
Cu419  O453    1.968   .     S
Cu420  O451    1.947   .     S
Cu420  O450    1.949   .     S
Cu420  N447    2.007   .     S
Cu420  O455    1.968   .     S
Cu420  O454    1.968   .     S
C457   O527    1.291   .     A
C457   O525    1.288   .     A
C457   C470    1.454   .     S
C458   H500    1.081   .     S
C458   C460    1.411   .     A
C458   C489    1.406   .     A
C459   C479    1.411   .     A
C459   C490    1.411   .     A
C460   C485    1.411   .     A
C460   C3      1.516   1_556 S
C461   C463    1.430   .     S
C461   O531    1.289   .     A
C461   O529    1.279   .     A
C462   O530    1.280   .     A
C462   C464    1.430   .     S
C462   O532    1.289   .     A
C463   C616    1.355   1_455 S
C463   Cl643   1.778   1_455 S
C464   C539    1.355   .     S
C464   Cl568   1.780   .     S
C465   C467    1.397   .     A
C465   C476    1.399   .     A
C465   H497    1.085   .     S
C466   H508    1.085   .     S
C466   C477    1.397   .     A
C466   C469    1.398   .     A
C467   C470    1.415   .     A
C467   C478    1.516   .     S
C468   O528    1.294   .     A
C468   C471    1.461   .     S
C468   O526    1.290   .     A
C469   C471    1.419   .     A
C469   C482    1.517   .     S
C470   C472    1.401   .     A
C471   C473    1.403   .     A
C472   H516    1.084   .     S
C472   C474    1.392   .     A
C473   H517    1.084   .     S
C473   C475    1.392   .     A
C474   Cl493   1.761   .     S
C474   C476    1.403   .     A
C475   C477    1.401   .     A
C475   Cl494   1.761   .     S
C476   C705    1.460   1_545 S
C477   C704    1.460   .     S
C478   H506    1.109   .     S
C478   C480    1.534   .     S
C478   H507    1.113   .     S
C479   H518    1.081   .     S
C479   C486    1.406   .     A
C480   H504    1.112   .     S
C480   H505    1.110   .     S
C480   C557    1.527   .     S
C481   H503    1.111   .     S
C481   H501    1.111   .     S
C481   H502    1.111   .     S
C481   C632    1.527   1_455 S
C482   C483    1.533   .     S
C482   H515    1.113   .     S
C482   H514    1.108   .     S
C483   H513    1.110   .     S
C483   H512    1.112   .     S
C483   C484    1.526   .     S
C484   H509    1.111   .     S
C484   H586    1.111   .     S
C484   H587    1.110   .     S
C485   H519    1.081   .     S
C485   C487    1.407   .     A
C486   H520    1.081   .     S
C486   N523    1.364   .     A
C487   N524    1.363   .     A
C487   H521    1.082   .     S
C488   C490    1.406   .     A
C488   N523    1.364   .     A
C488   H522    1.081   .     S
C489   H498    1.081   .     S
C489   N524    1.363   .     A
C490   H499    1.081   .     S
Cl491  C539    1.778   .     S
Cl492  C616    1.780   1_455 S
Cu495  N524    2.007   .     S
Cu495  O528    1.947   .     S
Cu495  Cu496   2.672   .     S
Cu495  O525    1.949   .     S
Cu495  O532    1.968   .     S
Cu495  O529    1.968   .     S
Cu496  O527    1.947   .     S
Cu496  O526    1.949   .     S
Cu496  N523    2.007   .     S
Cu496  O531    1.968   .     S
Cu496  O530    1.968   .     S
H510   C636    1.111   1_455 S
H511   C636    1.110   1_455 S
C533   O603    1.291   .     A
C533   O601    1.288   .     A
C533   C546    1.454   .     S
C534   H576    1.081   .     S
C534   C536    1.411   .     A
C534   C565    1.406   .     A
C535   C555    1.411   .     A
C535   C566    1.411   .     A
C536   C561    1.411   .     A
C536   C79     1.516   1_556 S
C537   C539    1.430   .     S
C537   O607    1.289   .     A
C537   O605    1.279   .     A
C538   O606    1.280   .     A
C538   C540    1.430   .     S
C538   O608    1.289   .     A
C540   C615    1.355   .     S
C540   Cl644   1.780   .     S
C541   C543    1.397   .     A
C541   C552    1.399   .     A
C541   H573    1.085   .     S
C542   H584    1.085   .     S
C542   C553    1.397   .     A
C542   C545    1.398   .     A
C543   C546    1.415   .     A
C543   C554    1.516   .     S
C544   O604    1.294   .     A
C544   C547    1.461   .     S
C544   O602    1.290   .     A
C545   C547    1.419   .     A
C545   C558    1.517   .     S
C546   C548    1.401   .     A
C547   C549    1.403   .     A
C548   H592    1.084   .     S
C548   C550    1.392   .     A
C549   H593    1.084   .     S
C549   C551    1.392   .     A
C550   Cl569   1.761   .     S
C550   C552    1.403   .     A
C551   C553    1.401   .     A
C551   Cl570   1.761   .     S
C552   C781    1.460   1_545 S
C553   C780    1.460   .     S
C554   H582    1.109   .     S
C554   C556    1.534   .     S
C554   H583    1.113   .     S
C555   H594    1.081   .     S
C555   C562    1.406   .     A
C556   H580    1.112   .     S
C556   H581    1.110   .     S
C556   C633    1.527   .     S
C557   H579    1.111   .     S
C557   H577    1.111   .     S
C557   H578    1.111   .     S
C558   C559    1.533   .     S
C558   H591    1.113   .     S
C558   H590    1.108   .     S
C559   H589    1.110   .     S
C559   H588    1.112   .     S
C559   C560    1.526   .     S
C560   H585    1.111   .     S
C560   H662    1.111   .     S
C560   H663    1.110   .     S
C561   H595    1.081   .     S
C561   C563    1.407   .     A
C562   H596    1.081   .     S
C562   N599    1.364   .     A
C563   N600    1.363   .     A
C563   H597    1.082   .     S
C564   C566    1.406   .     A
C564   N599    1.364   .     A
C564   H598    1.081   .     S
C565   H574    1.081   .     S
C565   N600    1.363   .     A
C566   H575    1.081   .     S
Cl567  C615    1.778   .     S
Cu571  N600    2.007   .     S
Cu571  O604    1.947   .     S
Cu571  Cu572   2.672   .     S
Cu571  O601    1.949   .     S
Cu571  O608    1.968   .     S
Cu571  O605    1.968   .     S
Cu572  O603    1.947   .     S
Cu572  O602    1.949   .     S
Cu572  N599    2.007   .     S
Cu572  O607    1.968   .     S
Cu572  O606    1.968   .     S
C609   O679    1.291   .     A
C609   O677    1.288   .     A
C609   C622    1.454   .     S
C610   H652    1.081   .     S
C610   C612    1.411   .     A
C610   C641    1.406   .     A
C611   C631    1.411   .     A
C611   C642    1.411   .     A
C612   C637    1.411   .     A
C612   C155    1.516   1_556 S
C613   C615    1.430   .     S
C613   O683    1.289   .     A
C613   O681    1.279   .     A
C614   O682    1.280   .     A
C614   C616    1.430   .     S
C614   O684    1.289   .     A
C616   C463    1.355   1_655 S
C616   Cl492   1.780   1_655 S
C617   C619    1.397   .     A
C617   C628    1.399   .     A
C617   H649    1.085   .     S
C618   H660    1.085   .     S
C618   C629    1.397   .     A
C618   C621    1.398   .     A
C619   C622    1.415   .     A
C619   C630    1.516   .     S
C620   O680    1.294   .     A
C620   C623    1.461   .     S
C620   O678    1.290   .     A
C621   C623    1.419   .     A
C621   C634    1.517   .     S
C622   C624    1.401   .     A
C623   C625    1.403   .     A
C624   H668    1.084   .     S
C624   C626    1.392   .     A
C625   H669    1.084   .     S
C625   C627    1.392   .     A
C626   Cl645   1.761   .     S
C626   C628    1.403   .     A
C627   C629    1.401   .     A
C627   Cl646   1.761   .     S
C628   C857    1.460   1_545 S
C629   C856    1.460   .     S
C630   H658    1.109   .     S
C630   C632    1.534   .     S
C630   H659    1.113   .     S
C631   H670    1.081   .     S
C631   C638    1.406   .     A
C632   H656    1.112   .     S
C632   H657    1.110   .     S
C632   C481    1.527   1_655 S
C633   H655    1.111   .     S
C633   H653    1.111   .     S
C633   H654    1.111   .     S
C634   C635    1.533   .     S
C634   H667    1.113   .     S
C634   H666    1.108   .     S
C635   H665    1.110   .     S
C635   H664    1.112   .     S
C635   C636    1.526   .     S
C636   H661    1.111   .     S
C636   H510    1.111   1_655 S
C636   H511    1.110   1_655 S
C637   H671    1.081   .     S
C637   C639    1.407   .     A
C638   H672    1.081   .     S
C638   N675    1.364   .     A
C639   N676    1.363   .     A
C639   H673    1.082   .     S
C640   C642    1.406   .     A
C640   N675    1.364   .     A
C640   H674    1.081   .     S
C641   H650    1.081   .     S
C641   N676    1.363   .     A
C642   H651    1.081   .     S
Cl643  C463    1.778   1_655 S
Cu647  N676    2.007   .     S
Cu647  O680    1.947   .     S
Cu647  Cu648   2.672   .     S
Cu647  O677    1.949   .     S
Cu647  O684    1.968   .     S
Cu647  O681    1.968   .     S
Cu648  O679    1.947   .     S
Cu648  O678    1.949   .     S
Cu648  N675    2.007   .     S
Cu648  O683    1.968   .     S
Cu648  O682    1.968   .     S
C685   O755    1.291   .     A
C685   O753    1.288   .     A
C685   C698    1.454   .     S
C686   H728    1.081   .     S
C686   C688    1.411   .     A
C686   C717    1.406   .     A
C687   C707    1.411   .     A
C687   C718    1.411   .     A
C688   C713    1.411   .     A
C688   C231    1.516   1_556 S
C689   C691    1.430   .     S
C689   O759    1.289   .     A
C689   O757    1.279   .     A
C690   O758    1.280   .     A
C690   C692    1.430   .     S
C690   O760    1.289   .     A
C691   C844    1.355   1_455 S
C691   Cl871   1.778   1_455 S
C692   C767    1.355   .     S
C692   Cl796   1.780   .     S
C693   C695    1.397   .     A
C693   C704    1.399   .     A
C693   H725    1.085   .     S
C694   H736    1.085   .     S
C694   C705    1.397   .     A
C694   C697    1.398   .     A
C695   C698    1.415   .     A
C695   C706    1.516   .     S
C696   O756    1.294   .     A
C696   C699    1.461   .     S
C696   O754    1.290   .     A
C697   C699    1.419   .     A
C697   C710    1.517   .     S
C698   C700    1.401   .     A
C699   C701    1.403   .     A
C700   H744    1.084   .     S
C700   C702    1.392   .     A
C701   H745    1.084   .     S
C701   C703    1.392   .     A
C702   Cl721   1.761   .     S
C702   C704    1.403   .     A
C703   C705    1.401   .     A
C703   Cl722   1.761   .     S
C705   C476    1.460   1_565 S
C706   H734    1.109   .     S
C706   C708    1.534   .     S
C706   H735    1.113   .     S
C707   H746    1.081   .     S
C707   C714    1.406   .     A
C708   H732    1.112   .     S
C708   H733    1.110   .     S
C708   C785    1.527   .     S
C709   H731    1.111   .     S
C709   H729    1.111   .     S
C709   H730    1.111   .     S
C709   C860    1.527   1_455 S
C710   C711    1.533   .     S
C710   H743    1.113   .     S
C710   H742    1.108   .     S
C711   H741    1.110   .     S
C711   H740    1.112   .     S
C711   C712    1.526   .     S
C712   H737    1.111   .     S
C712   H814    1.111   .     S
C712   H815    1.110   .     S
C713   H747    1.081   .     S
C713   C715    1.407   .     A
C714   H748    1.081   .     S
C714   N751    1.364   .     A
C715   N752    1.363   .     A
C715   H749    1.082   .     S
C716   C718    1.406   .     A
C716   N751    1.364   .     A
C716   H750    1.081   .     S
C717   H726    1.081   .     S
C717   N752    1.363   .     A
C718   H727    1.081   .     S
Cl719  C767    1.778   .     S
Cl720  C844    1.780   1_455 S
Cu723  N752    2.007   .     S
Cu723  O756    1.947   .     S
Cu723  Cu724   2.672   .     S
Cu723  O753    1.949   .     S
Cu723  O760    1.968   .     S
Cu723  O757    1.968   .     S
Cu724  O755    1.947   .     S
Cu724  O754    1.949   .     S
Cu724  N751    2.007   .     S
Cu724  O759    1.968   .     S
Cu724  O758    1.968   .     S
H738   C864    1.111   1_455 S
H739   C864    1.110   1_455 S
C761   O831    1.291   .     A
C761   O829    1.288   .     A
C761   C774    1.454   .     S
C762   H804    1.081   .     S
C762   C764    1.411   .     A
C762   C793    1.406   .     A
C763   C783    1.411   .     A
C763   C794    1.411   .     A
C764   C789    1.411   .     A
C764   C307    1.516   1_556 S
C765   C767    1.430   .     S
C765   O835    1.289   .     A
C765   O833    1.279   .     A
C766   O834    1.280   .     A
C766   C768    1.430   .     S
C766   O836    1.289   .     A
C768   C843    1.355   .     S
C768   Cl872   1.780   .     S
C769   C771    1.397   .     A
C769   C780    1.399   .     A
C769   H801    1.085   .     S
C770   H812    1.085   .     S
C770   C781    1.397   .     A
C770   C773    1.398   .     A
C771   C774    1.415   .     A
C771   C782    1.516   .     S
C772   O832    1.294   .     A
C772   C775    1.461   .     S
C772   O830    1.290   .     A
C773   C775    1.419   .     A
C773   C786    1.517   .     S
C774   C776    1.401   .     A
C775   C777    1.403   .     A
C776   H820    1.084   .     S
C776   C778    1.392   .     A
C777   H821    1.084   .     S
C777   C779    1.392   .     A
C778   Cl797   1.761   .     S
C778   C780    1.403   .     A
C779   C781    1.401   .     A
C779   Cl798   1.761   .     S
C781   C552    1.460   1_565 S
C782   H810    1.109   .     S
C782   C784    1.534   .     S
C782   H811    1.113   .     S
C783   H822    1.081   .     S
C783   C790    1.406   .     A
C784   H808    1.112   .     S
C784   H809    1.110   .     S
C784   C861    1.527   .     S
C785   H807    1.111   .     S
C785   H805    1.111   .     S
C785   H806    1.111   .     S
C786   C787    1.533   .     S
C786   H819    1.113   .     S
C786   H818    1.108   .     S
C787   H817    1.110   .     S
C787   H816    1.112   .     S
C787   C788    1.526   .     S
C788   H813    1.111   .     S
C788   H890    1.111   .     S
C788   H891    1.110   .     S
C789   H823    1.081   .     S
C789   C791    1.407   .     A
C790   H824    1.081   .     S
C790   N827    1.364   .     A
C791   N828    1.363   .     A
C791   H825    1.082   .     S
C792   C794    1.406   .     A
C792   N827    1.364   .     A
C792   H826    1.081   .     S
C793   H802    1.081   .     S
C793   N828    1.363   .     A
C794   H803    1.081   .     S
Cl795  C843    1.778   .     S
Cu799  N828    2.007   .     S
Cu799  O832    1.947   .     S
Cu799  Cu800   2.672   .     S
Cu799  O829    1.949   .     S
Cu799  O836    1.968   .     S
Cu799  O833    1.968   .     S
Cu800  O831    1.947   .     S
Cu800  O830    1.949   .     S
Cu800  N827    2.007   .     S
Cu800  O835    1.968   .     S
Cu800  O834    1.968   .     S
C837   O907    1.291   .     A
C837   O905    1.288   .     A
C837   C850    1.454   .     S
C838   H880    1.081   .     S
C838   C840    1.411   .     A
C838   C869    1.406   .     A
C839   C859    1.411   .     A
C839   C870    1.411   .     A
C840   C865    1.411   .     A
C840   C383    1.516   1_556 S
C841   C843    1.430   .     S
C841   O911    1.289   .     A
C841   O909    1.279   .     A
C842   O910    1.280   .     A
C842   C844    1.430   .     S
C842   O912    1.289   .     A
C844   C691    1.355   1_655 S
C844   Cl720   1.780   1_655 S
C845   C847    1.397   .     A
C845   C856    1.399   .     A
C845   H877    1.085   .     S
C846   H888    1.085   .     S
C846   C857    1.397   .     A
C846   C849    1.398   .     A
C847   C850    1.415   .     A
C847   C858    1.516   .     S
C848   O908    1.294   .     A
C848   C851    1.461   .     S
C848   O906    1.290   .     A
C849   C851    1.419   .     A
C849   C862    1.517   .     S
C850   C852    1.401   .     A
C851   C853    1.403   .     A
C852   H896    1.084   .     S
C852   C854    1.392   .     A
C853   H897    1.084   .     S
C853   C855    1.392   .     A
C854   Cl873   1.761   .     S
C854   C856    1.403   .     A
C855   C857    1.401   .     A
C855   Cl874   1.761   .     S
C857   C628    1.460   1_565 S
C858   H886    1.109   .     S
C858   C860    1.534   .     S
C858   H887    1.113   .     S
C859   H898    1.081   .     S
C859   C866    1.406   .     A
C860   H884    1.112   .     S
C860   H885    1.110   .     S
C860   C709    1.527   1_655 S
C861   H883    1.111   .     S
C861   H881    1.111   .     S
C861   H882    1.111   .     S
C862   C863    1.533   .     S
C862   H895    1.113   .     S
C862   H894    1.108   .     S
C863   H893    1.110   .     S
C863   H892    1.112   .     S
C863   C864    1.526   .     S
C864   H889    1.111   .     S
C864   H738    1.111   1_655 S
C864   H739    1.110   1_655 S
C865   H899    1.081   .     S
C865   C867    1.407   .     A
C866   H900    1.081   .     S
C866   N903    1.364   .     A
C867   N904    1.363   .     A
C867   H901    1.082   .     S
C868   C870    1.406   .     A
C868   N903    1.364   .     A
C868   H902    1.081   .     S
C869   H878    1.081   .     S
C869   N904    1.363   .     A
C870   H879    1.081   .     S
Cl871  C691    1.778   1_655 S
Cu875  N904    2.007   .     S
Cu875  O908    1.947   .     S
Cu875  Cu876   2.672   .     S
Cu875  O905    1.949   .     S
Cu875  O912    1.968   .     S
Cu875  O909    1.968   .     S
Cu876  O907    1.947   .     S
Cu876  O906    1.949   .     S
Cu876  N903    2.007   .     S
Cu876  O911    1.968   .     S
Cu876  O910    1.968   .     S
