data_str_m3_o1_o5_pcu_sym.89
_audit_creation_date              2020-01-03
_audit_creation_method            'Materials Studio'
_symmetry_space_group_name_H-M    'P1'
_symmetry_Int_Tables_number       1
_symmetry_cell_setting            triclinic
loop_
_symmetry_equiv_pos_as_xyz
  x,y,z
_cell_length_a                    32.2059
_cell_length_b                    29.6853
_cell_length_c                    26.7932
_cell_angle_alpha                 90.0000
_cell_angle_beta                  91.2218
_cell_angle_gamma                 90.0000
loop_
_atom_site_label
_atom_site_type_symbol
_atom_site_fract_x
_atom_site_fract_y
_atom_site_fract_z
_atom_site_U_iso_or_equiv
_atom_site_adp_type
_atom_site_occupancy
C1     C     0.08667   0.16675   0.16717   0.00000  Uiso   1.00
C2     C     0.02131   0.20822   0.16690   0.00000  Uiso   1.00
C3     C     0.29084   0.16709   0.16565   0.00000  Uiso   1.00
C4     C     0.04249   0.16709   0.16768   0.00000  Uiso   1.00
C5     C     0.19183   0.02431   0.19941   0.00000  Uiso   1.00
C6     C     0.14308   0.30920   0.13244   0.00000  Uiso   1.00
C7     C     0.14150   0.02431   0.13393   0.00000  Uiso   1.00
C8     C     0.19025   0.30920   0.20089   0.00000  Uiso   1.00
C9     C     0.25828   0.03669   0.23037   0.00000  Uiso   1.00
C10    C     0.13826   0.28973   0.05063   0.00000  Uiso   1.00
C11    C     0.07505   0.03669   0.10296   0.00000  Uiso   1.00
C12    C     0.24666   0.16675   0.16616   0.00000  Uiso   1.00
C13    C     0.19508   0.28973   0.28270   0.00000  Uiso   1.00
C14    C     0.16658   0.16667   0.07291   0.00000  Uiso   1.00
C15    C     0.16675   0.16667   0.26042   0.00000  Uiso   1.00
C16    C     0.16664   0.16668   0.02179   0.00000  Uiso   1.00
C17    C     0.16669   0.16668   0.31155   0.00000  Uiso   1.00
C18    C     0.02121   0.12620   0.16809   0.00000  Uiso   1.00
C19    C     0.31203   0.20822   0.16644   0.00000  Uiso   1.00
C20    C     0.31212   0.12620   0.16524   0.00000  Uiso   1.00
H21    H     0.03716   0.09429   0.17046   0.00000  Uiso   1.00
H22    H     0.13222   0.32349   0.03422   0.00000  Uiso   1.00
H23    H     0.05597   0.06617   0.09157   0.00000  Uiso   1.00
H24    H     0.06572   0.02644   0.14116   0.00000  Uiso   1.00
H25    H     0.06737   0.00960   0.07584   0.00000  Uiso   1.00
H26    H     0.20926   0.26445   0.30834   0.00000  Uiso   1.00
H27    H     0.16101   0.28325   0.28082   0.00000  Uiso   1.00
H28    H     0.20111   0.32349   0.29912   0.00000  Uiso   1.00
H29    H     0.29587   0.24024   0.16652   0.00000  Uiso   1.00
H30    H     0.29617   0.09429   0.16287   0.00000  Uiso   1.00
H31    H     0.03746   0.24024   0.16681   0.00000  Uiso   1.00
H32    H     0.27737   0.06617   0.24176   0.00000  Uiso   1.00
H33    H     0.26762   0.02644   0.19218   0.00000  Uiso   1.00
H34    H     0.26596   0.00960   0.25750   0.00000  Uiso   1.00
H35    H     0.12408   0.26445   0.02499   0.00000  Uiso   1.00
H36    H     0.17233   0.28325   0.05251   0.00000  Uiso   1.00
N37    N     0.16667   0.28573   0.16667   0.00000  Uiso   1.00
N38    N     0.16667   0.04760   0.16667   0.00000  Uiso   1.00
O39    O     0.10559   0.20487   0.16666   0.00000  Uiso   1.00
O40    O     0.11989   0.28517   0.09768   0.00000  Uiso   1.00
O41    O     0.11734   0.04894   0.10028   0.00000  Uiso   1.00
O42    O     0.21344   0.28517   0.23565   0.00000  Uiso   1.00
O43    O     0.22774   0.12846   0.16667   0.00000  Uiso   1.00
O44    O     0.22774   0.20487   0.16667   0.00000  Uiso   1.00
O45    O     0.10559   0.12846   0.16666   0.00000  Uiso   1.00
O46    O     0.16667   0.20488   0.09511   0.00000  Uiso   1.00
O47    O     0.16666   0.12845   0.23822   0.00000  Uiso   1.00
O48    O     0.16666   0.20488   0.23822   0.00000  Uiso   1.00
O49    O     0.16667   0.12845   0.09511   0.00000  Uiso   1.00
O50    O     0.21599   0.04894   0.23305   0.00000  Uiso   1.00
Zn51   Zn    0.16667   0.21771   0.16667   0.00000  Uiso   1.00
Zn52   Zn    0.16667   0.11563   0.16667   0.00000  Uiso   1.00
C53    C     0.42001   0.16675   0.16717   0.00000  Uiso   1.00
C54    C     0.35464   0.20822   0.16690   0.00000  Uiso   1.00
C55    C     0.62417   0.16709   0.16565   0.00000  Uiso   1.00
C56    C     0.37583   0.16709   0.16768   0.00000  Uiso   1.00
C57    C     0.52516   0.02431   0.19941   0.00000  Uiso   1.00
C58    C     0.47641   0.30920   0.13244   0.00000  Uiso   1.00
C59    C     0.47483   0.02431   0.13393   0.00000  Uiso   1.00
C60    C     0.52359   0.30920   0.20089   0.00000  Uiso   1.00
C61    C     0.59162   0.03669   0.23037   0.00000  Uiso   1.00
C62    C     0.47159   0.28973   0.05063   0.00000  Uiso   1.00
C63    C     0.40838   0.03669   0.10296   0.00000  Uiso   1.00
C64    C     0.57999   0.16675   0.16616   0.00000  Uiso   1.00
C65    C     0.52841   0.28973   0.28270   0.00000  Uiso   1.00
C66    C     0.49992   0.16667   0.07291   0.00000  Uiso   1.00
C67    C     0.50008   0.16667   0.26042   0.00000  Uiso   1.00
C68    C     0.49997   0.16668   0.02179   0.00000  Uiso   1.00
C69    C     0.50003   0.16668   0.31155   0.00000  Uiso   1.00
C70    C     0.35455   0.12620   0.16809   0.00000  Uiso   1.00
C71    C     0.64536   0.20822   0.16644   0.00000  Uiso   1.00
C72    C     0.64545   0.12620   0.16524   0.00000  Uiso   1.00
H73    H     0.37049   0.09429   0.17046   0.00000  Uiso   1.00
H74    H     0.46556   0.32349   0.03422   0.00000  Uiso   1.00
H75    H     0.38930   0.06617   0.09157   0.00000  Uiso   1.00
H76    H     0.39905   0.02644   0.14116   0.00000  Uiso   1.00
H77    H     0.40070   0.00960   0.07584   0.00000  Uiso   1.00
H78    H     0.54259   0.26445   0.30834   0.00000  Uiso   1.00
H79    H     0.49434   0.28325   0.28082   0.00000  Uiso   1.00
H80    H     0.53444   0.32349   0.29912   0.00000  Uiso   1.00
H81    H     0.62920   0.24024   0.16652   0.00000  Uiso   1.00
H82    H     0.62951   0.09429   0.16287   0.00000  Uiso   1.00
H83    H     0.37080   0.24024   0.16681   0.00000  Uiso   1.00
H84    H     0.61070   0.06617   0.24176   0.00000  Uiso   1.00
H85    H     0.60095   0.02644   0.19218   0.00000  Uiso   1.00
H86    H     0.59930   0.00960   0.25750   0.00000  Uiso   1.00
H87    H     0.45741   0.26445   0.02499   0.00000  Uiso   1.00
H88    H     0.50566   0.28325   0.05251   0.00000  Uiso   1.00
N89    N     0.50000   0.28573   0.16667   0.00000  Uiso   1.00
N90    N     0.50000   0.04760   0.16667   0.00000  Uiso   1.00
O91    O     0.43892   0.20487   0.16666   0.00000  Uiso   1.00
O92    O     0.45323   0.28517   0.09768   0.00000  Uiso   1.00
O93    O     0.45067   0.04894   0.10028   0.00000  Uiso   1.00
O94    O     0.54677   0.28517   0.23565   0.00000  Uiso   1.00
O95    O     0.56108   0.12846   0.16667   0.00000  Uiso   1.00
O96    O     0.56108   0.20487   0.16667   0.00000  Uiso   1.00
O97    O     0.43892   0.12846   0.16666   0.00000  Uiso   1.00
O98    O     0.50000   0.20488   0.09511   0.00000  Uiso   1.00
O99    O     0.50000   0.12845   0.23822   0.00000  Uiso   1.00
O100   O     0.50000   0.20488   0.23822   0.00000  Uiso   1.00
O101   O     0.50000   0.12845   0.09511   0.00000  Uiso   1.00
O102   O     0.54933   0.04894   0.23305   0.00000  Uiso   1.00
Zn103  Zn    0.50000   0.21771   0.16667   0.00000  Uiso   1.00
Zn104  Zn    0.50000   0.11563   0.16667   0.00000  Uiso   1.00
C105   C     0.75334   0.16675   0.16717   0.00000  Uiso   1.00
C106   C     0.68797   0.20822   0.16690   0.00000  Uiso   1.00
C107   C     0.95751   0.16709   0.16565   0.00000  Uiso   1.00
C108   C     0.70916   0.16709   0.16768   0.00000  Uiso   1.00
C109   C     0.85850   0.02431   0.19941   0.00000  Uiso   1.00
C110   C     0.80975   0.30920   0.13244   0.00000  Uiso   1.00
C111   C     0.80817   0.02431   0.13393   0.00000  Uiso   1.00
C112   C     0.85692   0.30920   0.20089   0.00000  Uiso   1.00
C113   C     0.92495   0.03669   0.23037   0.00000  Uiso   1.00
C114   C     0.80492   0.28973   0.05063   0.00000  Uiso   1.00
C115   C     0.74172   0.03669   0.10296   0.00000  Uiso   1.00
C116   C     0.91333   0.16675   0.16616   0.00000  Uiso   1.00
C117   C     0.86174   0.28973   0.28270   0.00000  Uiso   1.00
C118   C     0.83325   0.16667   0.07291   0.00000  Uiso   1.00
C119   C     0.83342   0.16667   0.26042   0.00000  Uiso   1.00
C120   C     0.83331   0.16668   0.02179   0.00000  Uiso   1.00
C121   C     0.83336   0.16668   0.31155   0.00000  Uiso   1.00
C122   C     0.68788   0.12620   0.16809   0.00000  Uiso   1.00
C123   C     0.97869   0.20822   0.16644   0.00000  Uiso   1.00
C124   C     0.97879   0.12620   0.16524   0.00000  Uiso   1.00
H125   H     0.70383   0.09429   0.17046   0.00000  Uiso   1.00
H126   H     0.79889   0.32349   0.03422   0.00000  Uiso   1.00
H127   H     0.72263   0.06617   0.09157   0.00000  Uiso   1.00
H128   H     0.73238   0.02644   0.14116   0.00000  Uiso   1.00
H129   H     0.73403   0.00960   0.07584   0.00000  Uiso   1.00
H130   H     0.87592   0.26445   0.30834   0.00000  Uiso   1.00
H131   H     0.82767   0.28325   0.28082   0.00000  Uiso   1.00
H132   H     0.86778   0.32349   0.29912   0.00000  Uiso   1.00
H133   H     0.96254   0.24024   0.16652   0.00000  Uiso   1.00
H134   H     0.96284   0.09429   0.16287   0.00000  Uiso   1.00
H135   H     0.70413   0.24024   0.16681   0.00000  Uiso   1.00
H136   H     0.94403   0.06617   0.24176   0.00000  Uiso   1.00
H137   H     0.93428   0.02644   0.19218   0.00000  Uiso   1.00
H138   H     0.93263   0.00960   0.25750   0.00000  Uiso   1.00
H139   H     0.79074   0.26445   0.02499   0.00000  Uiso   1.00
H140   H     0.83899   0.28325   0.05251   0.00000  Uiso   1.00
N141   N     0.83333   0.28573   0.16667   0.00000  Uiso   1.00
N142   N     0.83333   0.04760   0.16667   0.00000  Uiso   1.00
O143   O     0.77226   0.20487   0.16666   0.00000  Uiso   1.00
O144   O     0.78656   0.28517   0.09768   0.00000  Uiso   1.00
O145   O     0.78401   0.04894   0.10028   0.00000  Uiso   1.00
O146   O     0.88011   0.28517   0.23565   0.00000  Uiso   1.00
O147   O     0.89441   0.12846   0.16667   0.00000  Uiso   1.00
O148   O     0.89441   0.20487   0.16667   0.00000  Uiso   1.00
O149   O     0.77226   0.12846   0.16666   0.00000  Uiso   1.00
O150   O     0.83334   0.20488   0.09511   0.00000  Uiso   1.00
O151   O     0.83333   0.12845   0.23822   0.00000  Uiso   1.00
O152   O     0.83333   0.20488   0.23822   0.00000  Uiso   1.00
O153   O     0.83334   0.12845   0.09511   0.00000  Uiso   1.00
O154   O     0.88266   0.04894   0.23305   0.00000  Uiso   1.00
Zn155  Zn    0.83333   0.21771   0.16667   0.00000  Uiso   1.00
Zn156  Zn    0.83333   0.11563   0.16667   0.00000  Uiso   1.00
C157   C     0.08667   0.50008   0.16717   0.00000  Uiso   1.00
C158   C     0.02131   0.54156   0.16690   0.00000  Uiso   1.00
C159   C     0.29084   0.50042   0.16565   0.00000  Uiso   1.00
C160   C     0.04249   0.50042   0.16768   0.00000  Uiso   1.00
C161   C     0.19183   0.35764   0.19941   0.00000  Uiso   1.00
C162   C     0.14308   0.64253   0.13244   0.00000  Uiso   1.00
C163   C     0.14150   0.35764   0.13393   0.00000  Uiso   1.00
C164   C     0.19025   0.64253   0.20089   0.00000  Uiso   1.00
C165   C     0.25828   0.37002   0.23037   0.00000  Uiso   1.00
C166   C     0.13826   0.62306   0.05063   0.00000  Uiso   1.00
C167   C     0.07505   0.37002   0.10296   0.00000  Uiso   1.00
C168   C     0.24666   0.50008   0.16616   0.00000  Uiso   1.00
C169   C     0.19508   0.62306   0.28270   0.00000  Uiso   1.00
C170   C     0.16658   0.50000   0.07291   0.00000  Uiso   1.00
C171   C     0.16675   0.50000   0.26042   0.00000  Uiso   1.00
C172   C     0.16664   0.50001   0.02179   0.00000  Uiso   1.00
C173   C     0.16669   0.50001   0.31155   0.00000  Uiso   1.00
C174   C     0.02121   0.45954   0.16809   0.00000  Uiso   1.00
C175   C     0.31203   0.54156   0.16644   0.00000  Uiso   1.00
C176   C     0.31212   0.45954   0.16524   0.00000  Uiso   1.00
H177   H     0.03716   0.42763   0.17046   0.00000  Uiso   1.00
H178   H     0.13222   0.65682   0.03422   0.00000  Uiso   1.00
H179   H     0.05597   0.39950   0.09157   0.00000  Uiso   1.00
H180   H     0.06572   0.35977   0.14116   0.00000  Uiso   1.00
H181   H     0.06737   0.34293   0.07584   0.00000  Uiso   1.00
H182   H     0.20926   0.59778   0.30834   0.00000  Uiso   1.00
H183   H     0.16101   0.61658   0.28082   0.00000  Uiso   1.00
H184   H     0.20111   0.65682   0.29912   0.00000  Uiso   1.00
H185   H     0.29587   0.57358   0.16652   0.00000  Uiso   1.00
H186   H     0.29617   0.42763   0.16287   0.00000  Uiso   1.00
H187   H     0.03746   0.57358   0.16681   0.00000  Uiso   1.00
H188   H     0.27737   0.39950   0.24176   0.00000  Uiso   1.00
H189   H     0.26762   0.35977   0.19218   0.00000  Uiso   1.00
H190   H     0.26596   0.34293   0.25750   0.00000  Uiso   1.00
H191   H     0.12408   0.59778   0.02499   0.00000  Uiso   1.00
H192   H     0.17233   0.61658   0.05251   0.00000  Uiso   1.00
N193   N     0.16667   0.61907   0.16667   0.00000  Uiso   1.00
N194   N     0.16667   0.38093   0.16667   0.00000  Uiso   1.00
O195   O     0.10559   0.53821   0.16666   0.00000  Uiso   1.00
O196   O     0.11989   0.61850   0.09768   0.00000  Uiso   1.00
O197   O     0.11734   0.38227   0.10028   0.00000  Uiso   1.00
O198   O     0.21344   0.61850   0.23565   0.00000  Uiso   1.00
O199   O     0.22774   0.46179   0.16667   0.00000  Uiso   1.00
O200   O     0.22774   0.53821   0.16667   0.00000  Uiso   1.00
O201   O     0.10559   0.46179   0.16666   0.00000  Uiso   1.00
O202   O     0.16667   0.53821   0.09511   0.00000  Uiso   1.00
O203   O     0.16666   0.46179   0.23822   0.00000  Uiso   1.00
O204   O     0.16666   0.53821   0.23822   0.00000  Uiso   1.00
O205   O     0.16667   0.46179   0.09511   0.00000  Uiso   1.00
O206   O     0.21599   0.38227   0.23305   0.00000  Uiso   1.00
Zn207  Zn    0.16667   0.55104   0.16667   0.00000  Uiso   1.00
Zn208  Zn    0.16667   0.44896   0.16667   0.00000  Uiso   1.00
C209   C     0.42001   0.50008   0.16717   0.00000  Uiso   1.00
C210   C     0.35464   0.54156   0.16690   0.00000  Uiso   1.00
C211   C     0.62417   0.50042   0.16565   0.00000  Uiso   1.00
C212   C     0.37583   0.50042   0.16768   0.00000  Uiso   1.00
C213   C     0.52516   0.35764   0.19941   0.00000  Uiso   1.00
C214   C     0.47641   0.64253   0.13244   0.00000  Uiso   1.00
C215   C     0.47483   0.35764   0.13393   0.00000  Uiso   1.00
C216   C     0.52359   0.64253   0.20089   0.00000  Uiso   1.00
C217   C     0.59162   0.37002   0.23037   0.00000  Uiso   1.00
C218   C     0.47159   0.62306   0.05063   0.00000  Uiso   1.00
C219   C     0.40838   0.37002   0.10296   0.00000  Uiso   1.00
C220   C     0.57999   0.50008   0.16616   0.00000  Uiso   1.00
C221   C     0.52841   0.62306   0.28270   0.00000  Uiso   1.00
C222   C     0.49992   0.50000   0.07291   0.00000  Uiso   1.00
C223   C     0.50008   0.50000   0.26042   0.00000  Uiso   1.00
C224   C     0.49997   0.50001   0.02179   0.00000  Uiso   1.00
C225   C     0.50003   0.50001   0.31155   0.00000  Uiso   1.00
C226   C     0.35455   0.45954   0.16809   0.00000  Uiso   1.00
C227   C     0.64536   0.54156   0.16644   0.00000  Uiso   1.00
C228   C     0.64545   0.45954   0.16524   0.00000  Uiso   1.00
H229   H     0.37049   0.42763   0.17046   0.00000  Uiso   1.00
H230   H     0.46556   0.65682   0.03422   0.00000  Uiso   1.00
H231   H     0.38930   0.39950   0.09157   0.00000  Uiso   1.00
H232   H     0.39905   0.35977   0.14116   0.00000  Uiso   1.00
H233   H     0.40070   0.34293   0.07584   0.00000  Uiso   1.00
H234   H     0.54259   0.59778   0.30834   0.00000  Uiso   1.00
H235   H     0.49434   0.61658   0.28082   0.00000  Uiso   1.00
H236   H     0.53444   0.65682   0.29912   0.00000  Uiso   1.00
H237   H     0.62920   0.57358   0.16652   0.00000  Uiso   1.00
H238   H     0.62951   0.42763   0.16287   0.00000  Uiso   1.00
H239   H     0.37080   0.57358   0.16681   0.00000  Uiso   1.00
H240   H     0.61070   0.39950   0.24176   0.00000  Uiso   1.00
H241   H     0.60095   0.35977   0.19218   0.00000  Uiso   1.00
H242   H     0.59930   0.34293   0.25750   0.00000  Uiso   1.00
H243   H     0.45741   0.59778   0.02499   0.00000  Uiso   1.00
H244   H     0.50566   0.61658   0.05251   0.00000  Uiso   1.00
N245   N     0.50000   0.61907   0.16667   0.00000  Uiso   1.00
N246   N     0.50000   0.38093   0.16667   0.00000  Uiso   1.00
O247   O     0.43892   0.53821   0.16666   0.00000  Uiso   1.00
O248   O     0.45323   0.61850   0.09768   0.00000  Uiso   1.00
O249   O     0.45067   0.38227   0.10028   0.00000  Uiso   1.00
O250   O     0.54677   0.61850   0.23565   0.00000  Uiso   1.00
O251   O     0.56108   0.46179   0.16667   0.00000  Uiso   1.00
O252   O     0.56108   0.53821   0.16667   0.00000  Uiso   1.00
O253   O     0.43892   0.46179   0.16666   0.00000  Uiso   1.00
O254   O     0.50000   0.53821   0.09511   0.00000  Uiso   1.00
O255   O     0.50000   0.46179   0.23822   0.00000  Uiso   1.00
O256   O     0.50000   0.53821   0.23822   0.00000  Uiso   1.00
O257   O     0.50000   0.46179   0.09511   0.00000  Uiso   1.00
O258   O     0.54933   0.38227   0.23305   0.00000  Uiso   1.00
Zn259  Zn    0.50000   0.55104   0.16667   0.00000  Uiso   1.00
Zn260  Zn    0.50000   0.44896   0.16667   0.00000  Uiso   1.00
C261   C     0.75334   0.50008   0.16717   0.00000  Uiso   1.00
C262   C     0.68797   0.54156   0.16690   0.00000  Uiso   1.00
C263   C     0.95751   0.50042   0.16565   0.00000  Uiso   1.00
C264   C     0.70916   0.50042   0.16768   0.00000  Uiso   1.00
C265   C     0.85850   0.35764   0.19941   0.00000  Uiso   1.00
C266   C     0.80975   0.64253   0.13244   0.00000  Uiso   1.00
C267   C     0.80817   0.35764   0.13393   0.00000  Uiso   1.00
C268   C     0.85692   0.64253   0.20089   0.00000  Uiso   1.00
C269   C     0.92495   0.37002   0.23037   0.00000  Uiso   1.00
C270   C     0.80492   0.62306   0.05063   0.00000  Uiso   1.00
C271   C     0.74172   0.37002   0.10296   0.00000  Uiso   1.00
C272   C     0.91333   0.50008   0.16616   0.00000  Uiso   1.00
C273   C     0.86174   0.62306   0.28270   0.00000  Uiso   1.00
C274   C     0.83325   0.50000   0.07291   0.00000  Uiso   1.00
C275   C     0.83342   0.50000   0.26042   0.00000  Uiso   1.00
C276   C     0.83331   0.50001   0.02179   0.00000  Uiso   1.00
C277   C     0.83336   0.50001   0.31155   0.00000  Uiso   1.00
C278   C     0.68788   0.45954   0.16809   0.00000  Uiso   1.00
C279   C     0.97869   0.54156   0.16644   0.00000  Uiso   1.00
C280   C     0.97879   0.45954   0.16524   0.00000  Uiso   1.00
H281   H     0.70383   0.42763   0.17046   0.00000  Uiso   1.00
H282   H     0.79889   0.65682   0.03422   0.00000  Uiso   1.00
H283   H     0.72263   0.39950   0.09157   0.00000  Uiso   1.00
H284   H     0.73238   0.35977   0.14116   0.00000  Uiso   1.00
H285   H     0.73403   0.34293   0.07584   0.00000  Uiso   1.00
H286   H     0.87592   0.59778   0.30834   0.00000  Uiso   1.00
H287   H     0.82767   0.61658   0.28082   0.00000  Uiso   1.00
H288   H     0.86778   0.65682   0.29912   0.00000  Uiso   1.00
H289   H     0.96254   0.57358   0.16652   0.00000  Uiso   1.00
H290   H     0.96284   0.42763   0.16287   0.00000  Uiso   1.00
H291   H     0.70413   0.57358   0.16681   0.00000  Uiso   1.00
H292   H     0.94403   0.39950   0.24176   0.00000  Uiso   1.00
H293   H     0.93428   0.35977   0.19218   0.00000  Uiso   1.00
H294   H     0.93263   0.34293   0.25750   0.00000  Uiso   1.00
H295   H     0.79074   0.59778   0.02499   0.00000  Uiso   1.00
H296   H     0.83899   0.61658   0.05251   0.00000  Uiso   1.00
N297   N     0.83333   0.61907   0.16667   0.00000  Uiso   1.00
N298   N     0.83333   0.38093   0.16667   0.00000  Uiso   1.00
O299   O     0.77226   0.53821   0.16666   0.00000  Uiso   1.00
O300   O     0.78656   0.61850   0.09768   0.00000  Uiso   1.00
O301   O     0.78401   0.38227   0.10028   0.00000  Uiso   1.00
O302   O     0.88011   0.61850   0.23565   0.00000  Uiso   1.00
O303   O     0.89441   0.46179   0.16667   0.00000  Uiso   1.00
O304   O     0.89441   0.53821   0.16667   0.00000  Uiso   1.00
O305   O     0.77226   0.46179   0.16666   0.00000  Uiso   1.00
O306   O     0.83334   0.53821   0.09511   0.00000  Uiso   1.00
O307   O     0.83333   0.46179   0.23822   0.00000  Uiso   1.00
O308   O     0.83333   0.53821   0.23822   0.00000  Uiso   1.00
O309   O     0.83334   0.46179   0.09511   0.00000  Uiso   1.00
O310   O     0.88266   0.38227   0.23305   0.00000  Uiso   1.00
Zn311  Zn    0.83333   0.55104   0.16667   0.00000  Uiso   1.00
Zn312  Zn    0.83333   0.44896   0.16667   0.00000  Uiso   1.00
C313   C     0.08667   0.83341   0.16717   0.00000  Uiso   1.00
C314   C     0.02131   0.87489   0.16690   0.00000  Uiso   1.00
C315   C     0.29084   0.83376   0.16565   0.00000  Uiso   1.00
C316   C     0.04249   0.83376   0.16768   0.00000  Uiso   1.00
C317   C     0.19183   0.69098   0.19941   0.00000  Uiso   1.00
C318   C     0.14308   0.97586   0.13244   0.00000  Uiso   1.00
C319   C     0.14150   0.69098   0.13393   0.00000  Uiso   1.00
C320   C     0.19025   0.97586   0.20089   0.00000  Uiso   1.00
C321   C     0.25828   0.70335   0.23037   0.00000  Uiso   1.00
C322   C     0.13826   0.95640   0.05063   0.00000  Uiso   1.00
C323   C     0.07505   0.70335   0.10296   0.00000  Uiso   1.00
C324   C     0.24666   0.83341   0.16616   0.00000  Uiso   1.00
C325   C     0.19508   0.95640   0.28270   0.00000  Uiso   1.00
C326   C     0.16658   0.83334   0.07291   0.00000  Uiso   1.00
C327   C     0.16675   0.83334   0.26042   0.00000  Uiso   1.00
C328   C     0.16664   0.83334   0.02179   0.00000  Uiso   1.00
C329   C     0.16669   0.83334   0.31155   0.00000  Uiso   1.00
C330   C     0.02121   0.79287   0.16809   0.00000  Uiso   1.00
C331   C     0.31203   0.87489   0.16644   0.00000  Uiso   1.00
C332   C     0.31212   0.79287   0.16524   0.00000  Uiso   1.00
H333   H     0.03716   0.76096   0.17046   0.00000  Uiso   1.00
H334   H     0.13222   0.99015   0.03422   0.00000  Uiso   1.00
H335   H     0.05597   0.73283   0.09157   0.00000  Uiso   1.00
H336   H     0.06572   0.69310   0.14116   0.00000  Uiso   1.00
H337   H     0.06737   0.67627   0.07584   0.00000  Uiso   1.00
H338   H     0.20926   0.93112   0.30834   0.00000  Uiso   1.00
H339   H     0.16101   0.94992   0.28082   0.00000  Uiso   1.00
H340   H     0.20111   0.99015   0.29912   0.00000  Uiso   1.00
H341   H     0.29587   0.90691   0.16652   0.00000  Uiso   1.00
H342   H     0.29617   0.76096   0.16287   0.00000  Uiso   1.00
H343   H     0.03746   0.90691   0.16681   0.00000  Uiso   1.00
H344   H     0.27737   0.73283   0.24176   0.00000  Uiso   1.00
H345   H     0.26762   0.69310   0.19218   0.00000  Uiso   1.00
H346   H     0.26596   0.67627   0.25750   0.00000  Uiso   1.00
H347   H     0.12408   0.93112   0.02499   0.00000  Uiso   1.00
H348   H     0.17233   0.94992   0.05251   0.00000  Uiso   1.00
N349   N     0.16667   0.95240   0.16667   0.00000  Uiso   1.00
N350   N     0.16667   0.71427   0.16667   0.00000  Uiso   1.00
O351   O     0.10559   0.87154   0.16666   0.00000  Uiso   1.00
O352   O     0.11989   0.95183   0.09768   0.00000  Uiso   1.00
O353   O     0.11734   0.71560   0.10028   0.00000  Uiso   1.00
O354   O     0.21344   0.95183   0.23565   0.00000  Uiso   1.00
O355   O     0.22774   0.79513   0.16667   0.00000  Uiso   1.00
O356   O     0.22774   0.87154   0.16667   0.00000  Uiso   1.00
O357   O     0.10559   0.79513   0.16666   0.00000  Uiso   1.00
O358   O     0.16667   0.87155   0.09511   0.00000  Uiso   1.00
O359   O     0.16666   0.79512   0.23822   0.00000  Uiso   1.00
O360   O     0.16666   0.87155   0.23822   0.00000  Uiso   1.00
O361   O     0.16667   0.79512   0.09511   0.00000  Uiso   1.00
O362   O     0.21599   0.71560   0.23305   0.00000  Uiso   1.00
Zn363  Zn    0.16667   0.88437   0.16667   0.00000  Uiso   1.00
Zn364  Zn    0.16667   0.78229   0.16667   0.00000  Uiso   1.00
C365   C     0.42001   0.83341   0.16717   0.00000  Uiso   1.00
C366   C     0.35464   0.87489   0.16690   0.00000  Uiso   1.00
C367   C     0.62417   0.83376   0.16565   0.00000  Uiso   1.00
C368   C     0.37583   0.83376   0.16768   0.00000  Uiso   1.00
C369   C     0.52516   0.69098   0.19941   0.00000  Uiso   1.00
C370   C     0.47641   0.97586   0.13244   0.00000  Uiso   1.00
C371   C     0.47483   0.69098   0.13393   0.00000  Uiso   1.00
C372   C     0.52359   0.97586   0.20089   0.00000  Uiso   1.00
C373   C     0.59162   0.70335   0.23037   0.00000  Uiso   1.00
C374   C     0.47159   0.95640   0.05063   0.00000  Uiso   1.00
C375   C     0.40838   0.70335   0.10296   0.00000  Uiso   1.00
C376   C     0.57999   0.83341   0.16616   0.00000  Uiso   1.00
C377   C     0.52841   0.95640   0.28270   0.00000  Uiso   1.00
C378   C     0.49992   0.83334   0.07291   0.00000  Uiso   1.00
C379   C     0.50008   0.83334   0.26042   0.00000  Uiso   1.00
C380   C     0.49997   0.83334   0.02179   0.00000  Uiso   1.00
C381   C     0.50003   0.83334   0.31155   0.00000  Uiso   1.00
C382   C     0.35455   0.79287   0.16809   0.00000  Uiso   1.00
C383   C     0.64536   0.87489   0.16644   0.00000  Uiso   1.00
C384   C     0.64545   0.79287   0.16524   0.00000  Uiso   1.00
H385   H     0.37049   0.76096   0.17046   0.00000  Uiso   1.00
H386   H     0.46556   0.99015   0.03422   0.00000  Uiso   1.00
H387   H     0.38930   0.73283   0.09157   0.00000  Uiso   1.00
H388   H     0.39905   0.69310   0.14116   0.00000  Uiso   1.00
H389   H     0.40070   0.67627   0.07584   0.00000  Uiso   1.00
H390   H     0.54259   0.93112   0.30834   0.00000  Uiso   1.00
H391   H     0.49434   0.94992   0.28082   0.00000  Uiso   1.00
H392   H     0.53444   0.99015   0.29912   0.00000  Uiso   1.00
H393   H     0.62920   0.90691   0.16652   0.00000  Uiso   1.00
H394   H     0.62951   0.76096   0.16287   0.00000  Uiso   1.00
H395   H     0.37080   0.90691   0.16681   0.00000  Uiso   1.00
H396   H     0.61070   0.73283   0.24176   0.00000  Uiso   1.00
H397   H     0.60095   0.69310   0.19218   0.00000  Uiso   1.00
H398   H     0.59930   0.67627   0.25750   0.00000  Uiso   1.00
H399   H     0.45741   0.93112   0.02499   0.00000  Uiso   1.00
H400   H     0.50566   0.94992   0.05251   0.00000  Uiso   1.00
N401   N     0.50000   0.95240   0.16667   0.00000  Uiso   1.00
N402   N     0.50000   0.71427   0.16667   0.00000  Uiso   1.00
O403   O     0.43892   0.87154   0.16666   0.00000  Uiso   1.00
O404   O     0.45323   0.95183   0.09768   0.00000  Uiso   1.00
O405   O     0.45067   0.71560   0.10028   0.00000  Uiso   1.00
O406   O     0.54677   0.95183   0.23565   0.00000  Uiso   1.00
O407   O     0.56108   0.79513   0.16667   0.00000  Uiso   1.00
O408   O     0.56108   0.87154   0.16667   0.00000  Uiso   1.00
O409   O     0.43892   0.79513   0.16666   0.00000  Uiso   1.00
O410   O     0.50000   0.87155   0.09511   0.00000  Uiso   1.00
O411   O     0.50000   0.79512   0.23822   0.00000  Uiso   1.00
O412   O     0.50000   0.87155   0.23822   0.00000  Uiso   1.00
O413   O     0.50000   0.79512   0.09511   0.00000  Uiso   1.00
O414   O     0.54933   0.71560   0.23305   0.00000  Uiso   1.00
Zn415  Zn    0.50000   0.88437   0.16667   0.00000  Uiso   1.00
Zn416  Zn    0.50000   0.78229   0.16667   0.00000  Uiso   1.00
C417   C     0.75334   0.83341   0.16717   0.00000  Uiso   1.00
C418   C     0.68797   0.87489   0.16690   0.00000  Uiso   1.00
C419   C     0.95751   0.83376   0.16565   0.00000  Uiso   1.00
C420   C     0.70916   0.83376   0.16768   0.00000  Uiso   1.00
C421   C     0.85850   0.69098   0.19941   0.00000  Uiso   1.00
C422   C     0.80975   0.97586   0.13244   0.00000  Uiso   1.00
C423   C     0.80817   0.69098   0.13393   0.00000  Uiso   1.00
C424   C     0.85692   0.97586   0.20089   0.00000  Uiso   1.00
C425   C     0.92495   0.70335   0.23037   0.00000  Uiso   1.00
C426   C     0.80492   0.95640   0.05063   0.00000  Uiso   1.00
C427   C     0.74172   0.70335   0.10296   0.00000  Uiso   1.00
C428   C     0.91333   0.83341   0.16616   0.00000  Uiso   1.00
C429   C     0.86174   0.95640   0.28270   0.00000  Uiso   1.00
C430   C     0.83325   0.83334   0.07291   0.00000  Uiso   1.00
C431   C     0.83342   0.83334   0.26042   0.00000  Uiso   1.00
C432   C     0.83331   0.83334   0.02179   0.00000  Uiso   1.00
C433   C     0.83336   0.83334   0.31155   0.00000  Uiso   1.00
C434   C     0.68788   0.79287   0.16809   0.00000  Uiso   1.00
C435   C     0.97869   0.87489   0.16644   0.00000  Uiso   1.00
C436   C     0.97879   0.79287   0.16524   0.00000  Uiso   1.00
H437   H     0.70383   0.76096   0.17046   0.00000  Uiso   1.00
H438   H     0.79889   0.99015   0.03422   0.00000  Uiso   1.00
H439   H     0.72263   0.73283   0.09157   0.00000  Uiso   1.00
H440   H     0.73238   0.69310   0.14116   0.00000  Uiso   1.00
H441   H     0.73403   0.67627   0.07584   0.00000  Uiso   1.00
H442   H     0.87592   0.93112   0.30834   0.00000  Uiso   1.00
H443   H     0.82767   0.94992   0.28082   0.00000  Uiso   1.00
H444   H     0.86778   0.99015   0.29912   0.00000  Uiso   1.00
H445   H     0.96254   0.90691   0.16652   0.00000  Uiso   1.00
H446   H     0.96284   0.76096   0.16287   0.00000  Uiso   1.00
H447   H     0.70413   0.90691   0.16681   0.00000  Uiso   1.00
H448   H     0.94403   0.73283   0.24176   0.00000  Uiso   1.00
H449   H     0.93428   0.69310   0.19218   0.00000  Uiso   1.00
H450   H     0.93263   0.67627   0.25750   0.00000  Uiso   1.00
H451   H     0.79074   0.93112   0.02499   0.00000  Uiso   1.00
H452   H     0.83899   0.94992   0.05251   0.00000  Uiso   1.00
N453   N     0.83333   0.95240   0.16667   0.00000  Uiso   1.00
N454   N     0.83333   0.71427   0.16667   0.00000  Uiso   1.00
O455   O     0.77226   0.87154   0.16666   0.00000  Uiso   1.00
O456   O     0.78656   0.95183   0.09768   0.00000  Uiso   1.00
O457   O     0.78401   0.71560   0.10028   0.00000  Uiso   1.00
O458   O     0.88011   0.95183   0.23565   0.00000  Uiso   1.00
O459   O     0.89441   0.79513   0.16667   0.00000  Uiso   1.00
O460   O     0.89441   0.87154   0.16667   0.00000  Uiso   1.00
O461   O     0.77226   0.79513   0.16666   0.00000  Uiso   1.00
O462   O     0.83334   0.87155   0.09511   0.00000  Uiso   1.00
O463   O     0.83333   0.79512   0.23822   0.00000  Uiso   1.00
O464   O     0.83333   0.87155   0.23822   0.00000  Uiso   1.00
O465   O     0.83334   0.79512   0.09511   0.00000  Uiso   1.00
O466   O     0.88266   0.71560   0.23305   0.00000  Uiso   1.00
Zn467  Zn    0.83333   0.88437   0.16667   0.00000  Uiso   1.00
Zn468  Zn    0.83333   0.78229   0.16667   0.00000  Uiso   1.00
C469   C     0.08667   0.16675   0.50050   0.00000  Uiso   1.00
C470   C     0.02131   0.20822   0.50023   0.00000  Uiso   1.00
C471   C     0.29084   0.16709   0.49899   0.00000  Uiso   1.00
C472   C     0.04249   0.16709   0.50101   0.00000  Uiso   1.00
C473   C     0.19183   0.02431   0.53274   0.00000  Uiso   1.00
C474   C     0.14308   0.30920   0.46577   0.00000  Uiso   1.00
C475   C     0.14150   0.02431   0.46726   0.00000  Uiso   1.00
C476   C     0.19025   0.30920   0.53423   0.00000  Uiso   1.00
C477   C     0.25828   0.03669   0.56370   0.00000  Uiso   1.00
C478   C     0.13826   0.28973   0.38397   0.00000  Uiso   1.00
C479   C     0.07505   0.03669   0.43630   0.00000  Uiso   1.00
C480   C     0.24666   0.16675   0.49950   0.00000  Uiso   1.00
C481   C     0.19508   0.28973   0.61603   0.00000  Uiso   1.00
C482   C     0.16658   0.16667   0.40624   0.00000  Uiso   1.00
C483   C     0.16675   0.16667   0.59376   0.00000  Uiso   1.00
C484   C     0.16664   0.16668   0.35512   0.00000  Uiso   1.00
C485   C     0.16669   0.16668   0.64488   0.00000  Uiso   1.00
C486   C     0.02121   0.12620   0.50143   0.00000  Uiso   1.00
C487   C     0.31203   0.20822   0.49977   0.00000  Uiso   1.00
C488   C     0.31212   0.12620   0.49857   0.00000  Uiso   1.00
H489   H     0.03716   0.09429   0.50379   0.00000  Uiso   1.00
H490   H     0.13222   0.32349   0.36755   0.00000  Uiso   1.00
H491   H     0.05597   0.06617   0.42490   0.00000  Uiso   1.00
H492   H     0.06572   0.02644   0.47449   0.00000  Uiso   1.00
H493   H     0.06737   0.00960   0.40917   0.00000  Uiso   1.00
H494   H     0.20926   0.26445   0.64167   0.00000  Uiso   1.00
H495   H     0.16101   0.28325   0.61416   0.00000  Uiso   1.00
H496   H     0.20111   0.32349   0.63245   0.00000  Uiso   1.00
H497   H     0.29587   0.24024   0.49985   0.00000  Uiso   1.00
H498   H     0.29617   0.09429   0.49621   0.00000  Uiso   1.00
H499   H     0.03746   0.24024   0.50015   0.00000  Uiso   1.00
H500   H     0.27737   0.06617   0.57510   0.00000  Uiso   1.00
H501   H     0.26762   0.02644   0.52551   0.00000  Uiso   1.00
H502   H     0.26596   0.00960   0.59083   0.00000  Uiso   1.00
H503   H     0.12408   0.26445   0.35833   0.00000  Uiso   1.00
H504   H     0.17233   0.28325   0.38584   0.00000  Uiso   1.00
N505   N     0.16667   0.28573   0.50000   0.00000  Uiso   1.00
N506   N     0.16667   0.04760   0.50000   0.00000  Uiso   1.00
O507   O     0.10559   0.20487   0.50000   0.00000  Uiso   1.00
O508   O     0.11989   0.28517   0.43101   0.00000  Uiso   1.00
O509   O     0.11734   0.04894   0.43361   0.00000  Uiso   1.00
O510   O     0.21344   0.28517   0.56899   0.00000  Uiso   1.00
O511   O     0.22774   0.12846   0.50000   0.00000  Uiso   1.00
O512   O     0.22774   0.20487   0.50000   0.00000  Uiso   1.00
O513   O     0.10559   0.12846   0.50000   0.00000  Uiso   1.00
O514   O     0.16667   0.20488   0.42845   0.00000  Uiso   1.00
O515   O     0.16666   0.12845   0.57155   0.00000  Uiso   1.00
O516   O     0.16666   0.20488   0.57155   0.00000  Uiso   1.00
O517   O     0.16667   0.12845   0.42845   0.00000  Uiso   1.00
O518   O     0.21599   0.04894   0.56639   0.00000  Uiso   1.00
Zn519  Zn    0.16667   0.21771   0.50000   0.00000  Uiso   1.00
Zn520  Zn    0.16667   0.11563   0.50000   0.00000  Uiso   1.00
C521   C     0.42001   0.16675   0.50050   0.00000  Uiso   1.00
C522   C     0.35464   0.20822   0.50023   0.00000  Uiso   1.00
C523   C     0.62417   0.16709   0.49899   0.00000  Uiso   1.00
C524   C     0.37583   0.16709   0.50101   0.00000  Uiso   1.00
C525   C     0.52516   0.02431   0.53274   0.00000  Uiso   1.00
C526   C     0.47641   0.30920   0.46577   0.00000  Uiso   1.00
C527   C     0.47483   0.02431   0.46726   0.00000  Uiso   1.00
C528   C     0.52359   0.30920   0.53423   0.00000  Uiso   1.00
C529   C     0.59162   0.03669   0.56370   0.00000  Uiso   1.00
C530   C     0.47159   0.28973   0.38397   0.00000  Uiso   1.00
C531   C     0.40838   0.03669   0.43630   0.00000  Uiso   1.00
C532   C     0.57999   0.16675   0.49950   0.00000  Uiso   1.00
C533   C     0.52841   0.28973   0.61603   0.00000  Uiso   1.00
C534   C     0.49992   0.16667   0.40624   0.00000  Uiso   1.00
C535   C     0.50008   0.16667   0.59376   0.00000  Uiso   1.00
C536   C     0.49997   0.16668   0.35512   0.00000  Uiso   1.00
C537   C     0.50003   0.16668   0.64488   0.00000  Uiso   1.00
C538   C     0.35455   0.12620   0.50143   0.00000  Uiso   1.00
C539   C     0.64536   0.20822   0.49977   0.00000  Uiso   1.00
C540   C     0.64545   0.12620   0.49857   0.00000  Uiso   1.00
H541   H     0.37049   0.09429   0.50379   0.00000  Uiso   1.00
H542   H     0.46556   0.32349   0.36755   0.00000  Uiso   1.00
H543   H     0.38930   0.06617   0.42490   0.00000  Uiso   1.00
H544   H     0.39905   0.02644   0.47449   0.00000  Uiso   1.00
H545   H     0.40070   0.00960   0.40917   0.00000  Uiso   1.00
H546   H     0.54259   0.26445   0.64167   0.00000  Uiso   1.00
H547   H     0.49434   0.28325   0.61416   0.00000  Uiso   1.00
H548   H     0.53444   0.32349   0.63245   0.00000  Uiso   1.00
H549   H     0.62920   0.24024   0.49985   0.00000  Uiso   1.00
H550   H     0.62951   0.09429   0.49621   0.00000  Uiso   1.00
H551   H     0.37080   0.24024   0.50015   0.00000  Uiso   1.00
H552   H     0.61070   0.06617   0.57510   0.00000  Uiso   1.00
H553   H     0.60095   0.02644   0.52551   0.00000  Uiso   1.00
H554   H     0.59930   0.00960   0.59083   0.00000  Uiso   1.00
H555   H     0.45741   0.26445   0.35833   0.00000  Uiso   1.00
H556   H     0.50566   0.28325   0.38584   0.00000  Uiso   1.00
N557   N     0.50000   0.28573   0.50000   0.00000  Uiso   1.00
N558   N     0.50000   0.04760   0.50000   0.00000  Uiso   1.00
O559   O     0.43892   0.20487   0.50000   0.00000  Uiso   1.00
O560   O     0.45323   0.28517   0.43101   0.00000  Uiso   1.00
O561   O     0.45067   0.04894   0.43361   0.00000  Uiso   1.00
O562   O     0.54677   0.28517   0.56899   0.00000  Uiso   1.00
O563   O     0.56108   0.12846   0.50000   0.00000  Uiso   1.00
O564   O     0.56108   0.20487   0.50000   0.00000  Uiso   1.00
O565   O     0.43892   0.12846   0.50000   0.00000  Uiso   1.00
O566   O     0.50000   0.20488   0.42845   0.00000  Uiso   1.00
O567   O     0.50000   0.12845   0.57155   0.00000  Uiso   1.00
O568   O     0.50000   0.20488   0.57155   0.00000  Uiso   1.00
O569   O     0.50000   0.12845   0.42845   0.00000  Uiso   1.00
O570   O     0.54933   0.04894   0.56639   0.00000  Uiso   1.00
Zn571  Zn    0.50000   0.21771   0.50000   0.00000  Uiso   1.00
Zn572  Zn    0.50000   0.11563   0.50000   0.00000  Uiso   1.00
C573   C     0.75334   0.16675   0.50050   0.00000  Uiso   1.00
C574   C     0.68797   0.20822   0.50023   0.00000  Uiso   1.00
C575   C     0.95751   0.16709   0.49899   0.00000  Uiso   1.00
C576   C     0.70916   0.16709   0.50101   0.00000  Uiso   1.00
C577   C     0.85850   0.02431   0.53274   0.00000  Uiso   1.00
C578   C     0.80975   0.30920   0.46577   0.00000  Uiso   1.00
C579   C     0.80817   0.02431   0.46726   0.00000  Uiso   1.00
C580   C     0.85692   0.30920   0.53423   0.00000  Uiso   1.00
C581   C     0.92495   0.03669   0.56370   0.00000  Uiso   1.00
C582   C     0.80492   0.28973   0.38397   0.00000  Uiso   1.00
C583   C     0.74172   0.03669   0.43630   0.00000  Uiso   1.00
C584   C     0.91333   0.16675   0.49950   0.00000  Uiso   1.00
C585   C     0.86174   0.28973   0.61603   0.00000  Uiso   1.00
C586   C     0.83325   0.16667   0.40624   0.00000  Uiso   1.00
C587   C     0.83342   0.16667   0.59376   0.00000  Uiso   1.00
C588   C     0.83331   0.16668   0.35512   0.00000  Uiso   1.00
C589   C     0.83336   0.16668   0.64488   0.00000  Uiso   1.00
C590   C     0.68788   0.12620   0.50143   0.00000  Uiso   1.00
C591   C     0.97869   0.20822   0.49977   0.00000  Uiso   1.00
C592   C     0.97879   0.12620   0.49857   0.00000  Uiso   1.00
H593   H     0.70383   0.09429   0.50379   0.00000  Uiso   1.00
H594   H     0.79889   0.32349   0.36755   0.00000  Uiso   1.00
H595   H     0.72263   0.06617   0.42490   0.00000  Uiso   1.00
H596   H     0.73238   0.02644   0.47449   0.00000  Uiso   1.00
H597   H     0.73403   0.00960   0.40917   0.00000  Uiso   1.00
H598   H     0.87592   0.26445   0.64167   0.00000  Uiso   1.00
H599   H     0.82767   0.28325   0.61416   0.00000  Uiso   1.00
H600   H     0.86778   0.32349   0.63245   0.00000  Uiso   1.00
H601   H     0.96254   0.24024   0.49985   0.00000  Uiso   1.00
H602   H     0.96284   0.09429   0.49621   0.00000  Uiso   1.00
H603   H     0.70413   0.24024   0.50015   0.00000  Uiso   1.00
H604   H     0.94403   0.06617   0.57510   0.00000  Uiso   1.00
H605   H     0.93428   0.02644   0.52551   0.00000  Uiso   1.00
H606   H     0.93263   0.00960   0.59083   0.00000  Uiso   1.00
H607   H     0.79074   0.26445   0.35833   0.00000  Uiso   1.00
H608   H     0.83899   0.28325   0.38584   0.00000  Uiso   1.00
N609   N     0.83333   0.28573   0.50000   0.00000  Uiso   1.00
N610   N     0.83333   0.04760   0.50000   0.00000  Uiso   1.00
O611   O     0.77226   0.20487   0.50000   0.00000  Uiso   1.00
O612   O     0.78656   0.28517   0.43101   0.00000  Uiso   1.00
O613   O     0.78401   0.04894   0.43361   0.00000  Uiso   1.00
O614   O     0.88011   0.28517   0.56899   0.00000  Uiso   1.00
O615   O     0.89441   0.12846   0.50000   0.00000  Uiso   1.00
O616   O     0.89441   0.20487   0.50000   0.00000  Uiso   1.00
O617   O     0.77226   0.12846   0.50000   0.00000  Uiso   1.00
O618   O     0.83334   0.20488   0.42845   0.00000  Uiso   1.00
O619   O     0.83333   0.12845   0.57155   0.00000  Uiso   1.00
O620   O     0.83333   0.20488   0.57155   0.00000  Uiso   1.00
O621   O     0.83334   0.12845   0.42845   0.00000  Uiso   1.00
O622   O     0.88266   0.04894   0.56639   0.00000  Uiso   1.00
Zn623  Zn    0.83333   0.21771   0.50000   0.00000  Uiso   1.00
Zn624  Zn    0.83333   0.11563   0.50000   0.00000  Uiso   1.00
C625   C     0.08667   0.50008   0.50050   0.00000  Uiso   1.00
C626   C     0.02131   0.54156   0.50023   0.00000  Uiso   1.00
C627   C     0.29084   0.50042   0.49899   0.00000  Uiso   1.00
C628   C     0.04249   0.50042   0.50101   0.00000  Uiso   1.00
C629   C     0.19183   0.35764   0.53274   0.00000  Uiso   1.00
C630   C     0.14308   0.64253   0.46577   0.00000  Uiso   1.00
C631   C     0.14150   0.35764   0.46726   0.00000  Uiso   1.00
C632   C     0.19025   0.64253   0.53423   0.00000  Uiso   1.00
C633   C     0.25828   0.37002   0.56370   0.00000  Uiso   1.00
C634   C     0.13826   0.62306   0.38397   0.00000  Uiso   1.00
C635   C     0.07505   0.37002   0.43630   0.00000  Uiso   1.00
C636   C     0.24666   0.50008   0.49950   0.00000  Uiso   1.00
C637   C     0.19508   0.62306   0.61603   0.00000  Uiso   1.00
C638   C     0.16658   0.50000   0.40624   0.00000  Uiso   1.00
C639   C     0.16675   0.50000   0.59376   0.00000  Uiso   1.00
C640   C     0.16664   0.50001   0.35512   0.00000  Uiso   1.00
C641   C     0.16669   0.50001   0.64488   0.00000  Uiso   1.00
C642   C     0.02121   0.45954   0.50143   0.00000  Uiso   1.00
C643   C     0.31203   0.54156   0.49977   0.00000  Uiso   1.00
C644   C     0.31212   0.45954   0.49857   0.00000  Uiso   1.00
H645   H     0.03716   0.42763   0.50379   0.00000  Uiso   1.00
H646   H     0.13222   0.65682   0.36755   0.00000  Uiso   1.00
H647   H     0.05597   0.39950   0.42490   0.00000  Uiso   1.00
H648   H     0.06572   0.35977   0.47449   0.00000  Uiso   1.00
H649   H     0.06737   0.34293   0.40917   0.00000  Uiso   1.00
H650   H     0.20926   0.59778   0.64167   0.00000  Uiso   1.00
H651   H     0.16101   0.61658   0.61416   0.00000  Uiso   1.00
H652   H     0.20111   0.65682   0.63245   0.00000  Uiso   1.00
H653   H     0.29587   0.57358   0.49985   0.00000  Uiso   1.00
H654   H     0.29617   0.42763   0.49621   0.00000  Uiso   1.00
H655   H     0.03746   0.57358   0.50015   0.00000  Uiso   1.00
H656   H     0.27737   0.39950   0.57510   0.00000  Uiso   1.00
H657   H     0.26762   0.35977   0.52551   0.00000  Uiso   1.00
H658   H     0.26596   0.34293   0.59083   0.00000  Uiso   1.00
H659   H     0.12408   0.59778   0.35833   0.00000  Uiso   1.00
H660   H     0.17233   0.61658   0.38584   0.00000  Uiso   1.00
N661   N     0.16667   0.61907   0.50000   0.00000  Uiso   1.00
N662   N     0.16667   0.38093   0.50000   0.00000  Uiso   1.00
O663   O     0.10559   0.53821   0.50000   0.00000  Uiso   1.00
O664   O     0.11989   0.61850   0.43101   0.00000  Uiso   1.00
O665   O     0.11734   0.38227   0.43361   0.00000  Uiso   1.00
O666   O     0.21344   0.61850   0.56899   0.00000  Uiso   1.00
O667   O     0.22774   0.46179   0.50000   0.00000  Uiso   1.00
O668   O     0.22774   0.53821   0.50000   0.00000  Uiso   1.00
O669   O     0.10559   0.46179   0.50000   0.00000  Uiso   1.00
O670   O     0.16667   0.53821   0.42845   0.00000  Uiso   1.00
O671   O     0.16666   0.46179   0.57155   0.00000  Uiso   1.00
O672   O     0.16666   0.53821   0.57155   0.00000  Uiso   1.00
O673   O     0.16667   0.46179   0.42845   0.00000  Uiso   1.00
O674   O     0.21599   0.38227   0.56639   0.00000  Uiso   1.00
Zn675  Zn    0.16667   0.55104   0.50000   0.00000  Uiso   1.00
Zn676  Zn    0.16667   0.44896   0.50000   0.00000  Uiso   1.00
C677   C     0.42001   0.50008   0.50050   0.00000  Uiso   1.00
C678   C     0.35464   0.54156   0.50023   0.00000  Uiso   1.00
C679   C     0.62417   0.50042   0.49899   0.00000  Uiso   1.00
C680   C     0.37583   0.50042   0.50101   0.00000  Uiso   1.00
C681   C     0.52516   0.35764   0.53274   0.00000  Uiso   1.00
C682   C     0.47641   0.64253   0.46577   0.00000  Uiso   1.00
C683   C     0.47483   0.35764   0.46726   0.00000  Uiso   1.00
C684   C     0.52359   0.64253   0.53423   0.00000  Uiso   1.00
C685   C     0.59162   0.37002   0.56370   0.00000  Uiso   1.00
C686   C     0.47159   0.62306   0.38397   0.00000  Uiso   1.00
C687   C     0.40838   0.37002   0.43630   0.00000  Uiso   1.00
C688   C     0.57999   0.50008   0.49950   0.00000  Uiso   1.00
C689   C     0.52841   0.62306   0.61603   0.00000  Uiso   1.00
C690   C     0.49992   0.50000   0.40624   0.00000  Uiso   1.00
C691   C     0.50008   0.50000   0.59376   0.00000  Uiso   1.00
C692   C     0.49997   0.50001   0.35512   0.00000  Uiso   1.00
C693   C     0.50003   0.50001   0.64488   0.00000  Uiso   1.00
C694   C     0.35455   0.45954   0.50143   0.00000  Uiso   1.00
C695   C     0.64536   0.54156   0.49977   0.00000  Uiso   1.00
C696   C     0.64545   0.45954   0.49857   0.00000  Uiso   1.00
H697   H     0.37049   0.42763   0.50379   0.00000  Uiso   1.00
H698   H     0.46556   0.65682   0.36755   0.00000  Uiso   1.00
H699   H     0.38930   0.39950   0.42490   0.00000  Uiso   1.00
H700   H     0.39905   0.35977   0.47449   0.00000  Uiso   1.00
H701   H     0.40070   0.34293   0.40917   0.00000  Uiso   1.00
H702   H     0.54259   0.59778   0.64167   0.00000  Uiso   1.00
H703   H     0.49434   0.61658   0.61416   0.00000  Uiso   1.00
H704   H     0.53444   0.65682   0.63245   0.00000  Uiso   1.00
H705   H     0.62920   0.57358   0.49985   0.00000  Uiso   1.00
H706   H     0.62951   0.42763   0.49621   0.00000  Uiso   1.00
H707   H     0.37080   0.57358   0.50015   0.00000  Uiso   1.00
H708   H     0.61070   0.39950   0.57510   0.00000  Uiso   1.00
H709   H     0.60095   0.35977   0.52551   0.00000  Uiso   1.00
H710   H     0.59930   0.34293   0.59083   0.00000  Uiso   1.00
H711   H     0.45741   0.59778   0.35833   0.00000  Uiso   1.00
H712   H     0.50566   0.61658   0.38584   0.00000  Uiso   1.00
N713   N     0.50000   0.61907   0.50000   0.00000  Uiso   1.00
N714   N     0.50000   0.38093   0.50000   0.00000  Uiso   1.00
O715   O     0.43892   0.53821   0.50000   0.00000  Uiso   1.00
O716   O     0.45323   0.61850   0.43101   0.00000  Uiso   1.00
O717   O     0.45067   0.38227   0.43361   0.00000  Uiso   1.00
O718   O     0.54677   0.61850   0.56899   0.00000  Uiso   1.00
O719   O     0.56108   0.46179   0.50000   0.00000  Uiso   1.00
O720   O     0.56108   0.53821   0.50000   0.00000  Uiso   1.00
O721   O     0.43892   0.46179   0.50000   0.00000  Uiso   1.00
O722   O     0.50000   0.53821   0.42845   0.00000  Uiso   1.00
O723   O     0.50000   0.46179   0.57155   0.00000  Uiso   1.00
O724   O     0.50000   0.53821   0.57155   0.00000  Uiso   1.00
O725   O     0.50000   0.46179   0.42845   0.00000  Uiso   1.00
O726   O     0.54933   0.38227   0.56639   0.00000  Uiso   1.00
Zn727  Zn    0.50000   0.55104   0.50000   0.00000  Uiso   1.00
Zn728  Zn    0.50000   0.44896   0.50000   0.00000  Uiso   1.00
C729   C     0.75334   0.50008   0.50050   0.00000  Uiso   1.00
C730   C     0.68797   0.54156   0.50023   0.00000  Uiso   1.00
C731   C     0.95751   0.50042   0.49899   0.00000  Uiso   1.00
C732   C     0.70916   0.50042   0.50101   0.00000  Uiso   1.00
C733   C     0.85850   0.35764   0.53274   0.00000  Uiso   1.00
C734   C     0.80975   0.64253   0.46577   0.00000  Uiso   1.00
C735   C     0.80817   0.35764   0.46726   0.00000  Uiso   1.00
C736   C     0.85692   0.64253   0.53423   0.00000  Uiso   1.00
C737   C     0.92495   0.37002   0.56370   0.00000  Uiso   1.00
C738   C     0.80492   0.62306   0.38397   0.00000  Uiso   1.00
C739   C     0.74172   0.37002   0.43630   0.00000  Uiso   1.00
C740   C     0.91333   0.50008   0.49950   0.00000  Uiso   1.00
C741   C     0.86174   0.62306   0.61603   0.00000  Uiso   1.00
C742   C     0.83325   0.50000   0.40624   0.00000  Uiso   1.00
C743   C     0.83342   0.50000   0.59376   0.00000  Uiso   1.00
C744   C     0.83331   0.50001   0.35512   0.00000  Uiso   1.00
C745   C     0.83336   0.50001   0.64488   0.00000  Uiso   1.00
C746   C     0.68788   0.45954   0.50143   0.00000  Uiso   1.00
C747   C     0.97869   0.54156   0.49977   0.00000  Uiso   1.00
C748   C     0.97879   0.45954   0.49857   0.00000  Uiso   1.00
H749   H     0.70383   0.42763   0.50379   0.00000  Uiso   1.00
H750   H     0.79889   0.65682   0.36755   0.00000  Uiso   1.00
H751   H     0.72263   0.39950   0.42490   0.00000  Uiso   1.00
H752   H     0.73238   0.35977   0.47449   0.00000  Uiso   1.00
H753   H     0.73403   0.34293   0.40917   0.00000  Uiso   1.00
H754   H     0.87592   0.59778   0.64167   0.00000  Uiso   1.00
H755   H     0.82767   0.61658   0.61416   0.00000  Uiso   1.00
H756   H     0.86778   0.65682   0.63245   0.00000  Uiso   1.00
H757   H     0.96254   0.57358   0.49985   0.00000  Uiso   1.00
H758   H     0.96284   0.42763   0.49621   0.00000  Uiso   1.00
H759   H     0.70413   0.57358   0.50015   0.00000  Uiso   1.00
H760   H     0.94403   0.39950   0.57510   0.00000  Uiso   1.00
H761   H     0.93428   0.35977   0.52551   0.00000  Uiso   1.00
H762   H     0.93263   0.34293   0.59083   0.00000  Uiso   1.00
H763   H     0.79074   0.59778   0.35833   0.00000  Uiso   1.00
H764   H     0.83899   0.61658   0.38584   0.00000  Uiso   1.00
N765   N     0.83333   0.61907   0.50000   0.00000  Uiso   1.00
N766   N     0.83333   0.38093   0.50000   0.00000  Uiso   1.00
O767   O     0.77226   0.53821   0.50000   0.00000  Uiso   1.00
O768   O     0.78656   0.61850   0.43101   0.00000  Uiso   1.00
O769   O     0.78401   0.38227   0.43361   0.00000  Uiso   1.00
O770   O     0.88011   0.61850   0.56899   0.00000  Uiso   1.00
O771   O     0.89441   0.46179   0.50000   0.00000  Uiso   1.00
O772   O     0.89441   0.53821   0.50000   0.00000  Uiso   1.00
O773   O     0.77226   0.46179   0.50000   0.00000  Uiso   1.00
O774   O     0.83334   0.53821   0.42845   0.00000  Uiso   1.00
O775   O     0.83333   0.46179   0.57155   0.00000  Uiso   1.00
O776   O     0.83333   0.53821   0.57155   0.00000  Uiso   1.00
O777   O     0.83334   0.46179   0.42845   0.00000  Uiso   1.00
O778   O     0.88266   0.38227   0.56639   0.00000  Uiso   1.00
Zn779  Zn    0.83333   0.55104   0.50000   0.00000  Uiso   1.00
Zn780  Zn    0.83333   0.44896   0.50000   0.00000  Uiso   1.00
C781   C     0.08667   0.83341   0.50050   0.00000  Uiso   1.00
C782   C     0.02131   0.87489   0.50023   0.00000  Uiso   1.00
C783   C     0.29084   0.83376   0.49899   0.00000  Uiso   1.00
C784   C     0.04249   0.83376   0.50101   0.00000  Uiso   1.00
C785   C     0.19183   0.69098   0.53274   0.00000  Uiso   1.00
C786   C     0.14308   0.97586   0.46577   0.00000  Uiso   1.00
C787   C     0.14150   0.69098   0.46726   0.00000  Uiso   1.00
C788   C     0.19025   0.97586   0.53423   0.00000  Uiso   1.00
C789   C     0.25828   0.70335   0.56370   0.00000  Uiso   1.00
C790   C     0.13826   0.95640   0.38397   0.00000  Uiso   1.00
C791   C     0.07505   0.70335   0.43630   0.00000  Uiso   1.00
C792   C     0.24666   0.83341   0.49950   0.00000  Uiso   1.00
C793   C     0.19508   0.95640   0.61603   0.00000  Uiso   1.00
C794   C     0.16658   0.83334   0.40624   0.00000  Uiso   1.00
C795   C     0.16675   0.83334   0.59376   0.00000  Uiso   1.00
C796   C     0.16664   0.83334   0.35512   0.00000  Uiso   1.00
C797   C     0.16669   0.83334   0.64488   0.00000  Uiso   1.00
C798   C     0.02121   0.79287   0.50143   0.00000  Uiso   1.00
C799   C     0.31203   0.87489   0.49977   0.00000  Uiso   1.00
C800   C     0.31212   0.79287   0.49857   0.00000  Uiso   1.00
H801   H     0.03716   0.76096   0.50379   0.00000  Uiso   1.00
H802   H     0.13222   0.99015   0.36755   0.00000  Uiso   1.00
H803   H     0.05597   0.73283   0.42490   0.00000  Uiso   1.00
H804   H     0.06572   0.69310   0.47449   0.00000  Uiso   1.00
H805   H     0.06737   0.67627   0.40917   0.00000  Uiso   1.00
H806   H     0.20926   0.93112   0.64167   0.00000  Uiso   1.00
H807   H     0.16101   0.94992   0.61416   0.00000  Uiso   1.00
H808   H     0.20111   0.99015   0.63245   0.00000  Uiso   1.00
H809   H     0.29587   0.90691   0.49985   0.00000  Uiso   1.00
H810   H     0.29617   0.76096   0.49621   0.00000  Uiso   1.00
H811   H     0.03746   0.90691   0.50015   0.00000  Uiso   1.00
H812   H     0.27737   0.73283   0.57510   0.00000  Uiso   1.00
H813   H     0.26762   0.69310   0.52551   0.00000  Uiso   1.00
H814   H     0.26596   0.67627   0.59083   0.00000  Uiso   1.00
H815   H     0.12408   0.93112   0.35833   0.00000  Uiso   1.00
H816   H     0.17233   0.94992   0.38584   0.00000  Uiso   1.00
N817   N     0.16667   0.95240   0.50000   0.00000  Uiso   1.00
N818   N     0.16667   0.71427   0.50000   0.00000  Uiso   1.00
O819   O     0.10559   0.87154   0.50000   0.00000  Uiso   1.00
O820   O     0.11989   0.95183   0.43101   0.00000  Uiso   1.00
O821   O     0.11734   0.71560   0.43361   0.00000  Uiso   1.00
O822   O     0.21344   0.95183   0.56899   0.00000  Uiso   1.00
O823   O     0.22774   0.79513   0.50000   0.00000  Uiso   1.00
O824   O     0.22774   0.87154   0.50000   0.00000  Uiso   1.00
O825   O     0.10559   0.79513   0.50000   0.00000  Uiso   1.00
O826   O     0.16667   0.87155   0.42845   0.00000  Uiso   1.00
O827   O     0.16666   0.79512   0.57155   0.00000  Uiso   1.00
O828   O     0.16666   0.87155   0.57155   0.00000  Uiso   1.00
O829   O     0.16667   0.79512   0.42845   0.00000  Uiso   1.00
O830   O     0.21599   0.71560   0.56639   0.00000  Uiso   1.00
Zn831  Zn    0.16667   0.88437   0.50000   0.00000  Uiso   1.00
Zn832  Zn    0.16667   0.78229   0.50000   0.00000  Uiso   1.00
C833   C     0.42001   0.83341   0.50050   0.00000  Uiso   1.00
C834   C     0.35464   0.87489   0.50023   0.00000  Uiso   1.00
C835   C     0.62417   0.83376   0.49899   0.00000  Uiso   1.00
C836   C     0.37583   0.83376   0.50101   0.00000  Uiso   1.00
C837   C     0.52516   0.69098   0.53274   0.00000  Uiso   1.00
C838   C     0.47641   0.97586   0.46577   0.00000  Uiso   1.00
C839   C     0.47483   0.69098   0.46726   0.00000  Uiso   1.00
C840   C     0.52359   0.97586   0.53423   0.00000  Uiso   1.00
C841   C     0.59162   0.70335   0.56370   0.00000  Uiso   1.00
C842   C     0.47159   0.95640   0.38397   0.00000  Uiso   1.00
C843   C     0.40838   0.70335   0.43630   0.00000  Uiso   1.00
C844   C     0.57999   0.83341   0.49950   0.00000  Uiso   1.00
C845   C     0.52841   0.95640   0.61603   0.00000  Uiso   1.00
C846   C     0.49992   0.83334   0.40624   0.00000  Uiso   1.00
C847   C     0.50008   0.83334   0.59376   0.00000  Uiso   1.00
C848   C     0.49997   0.83334   0.35512   0.00000  Uiso   1.00
C849   C     0.50003   0.83334   0.64488   0.00000  Uiso   1.00
C850   C     0.35455   0.79287   0.50143   0.00000  Uiso   1.00
C851   C     0.64536   0.87489   0.49977   0.00000  Uiso   1.00
C852   C     0.64545   0.79287   0.49857   0.00000  Uiso   1.00
H853   H     0.37049   0.76096   0.50379   0.00000  Uiso   1.00
H854   H     0.46556   0.99015   0.36755   0.00000  Uiso   1.00
H855   H     0.38930   0.73283   0.42490   0.00000  Uiso   1.00
H856   H     0.39905   0.69310   0.47449   0.00000  Uiso   1.00
H857   H     0.40070   0.67627   0.40917   0.00000  Uiso   1.00
H858   H     0.54259   0.93112   0.64167   0.00000  Uiso   1.00
H859   H     0.49434   0.94992   0.61416   0.00000  Uiso   1.00
H860   H     0.53444   0.99015   0.63245   0.00000  Uiso   1.00
H861   H     0.62920   0.90691   0.49985   0.00000  Uiso   1.00
H862   H     0.62951   0.76096   0.49621   0.00000  Uiso   1.00
H863   H     0.37080   0.90691   0.50015   0.00000  Uiso   1.00
H864   H     0.61070   0.73283   0.57510   0.00000  Uiso   1.00
H865   H     0.60095   0.69310   0.52551   0.00000  Uiso   1.00
H866   H     0.59930   0.67627   0.59083   0.00000  Uiso   1.00
H867   H     0.45741   0.93112   0.35833   0.00000  Uiso   1.00
H868   H     0.50566   0.94992   0.38584   0.00000  Uiso   1.00
N869   N     0.50000   0.95240   0.50000   0.00000  Uiso   1.00
N870   N     0.50000   0.71427   0.50000   0.00000  Uiso   1.00
O871   O     0.43892   0.87154   0.50000   0.00000  Uiso   1.00
O872   O     0.45323   0.95183   0.43101   0.00000  Uiso   1.00
O873   O     0.45067   0.71560   0.43361   0.00000  Uiso   1.00
O874   O     0.54677   0.95183   0.56899   0.00000  Uiso   1.00
O875   O     0.56108   0.79513   0.50000   0.00000  Uiso   1.00
O876   O     0.56108   0.87154   0.50000   0.00000  Uiso   1.00
O877   O     0.43892   0.79513   0.50000   0.00000  Uiso   1.00
O878   O     0.50000   0.87155   0.42845   0.00000  Uiso   1.00
O879   O     0.50000   0.79512   0.57155   0.00000  Uiso   1.00
O880   O     0.50000   0.87155   0.57155   0.00000  Uiso   1.00
O881   O     0.50000   0.79512   0.42845   0.00000  Uiso   1.00
O882   O     0.54933   0.71560   0.56639   0.00000  Uiso   1.00
Zn883  Zn    0.50000   0.88437   0.50000   0.00000  Uiso   1.00
Zn884  Zn    0.50000   0.78229   0.50000   0.00000  Uiso   1.00
C885   C     0.75334   0.83341   0.50050   0.00000  Uiso   1.00
C886   C     0.68797   0.87489   0.50023   0.00000  Uiso   1.00
C887   C     0.95751   0.83376   0.49899   0.00000  Uiso   1.00
C888   C     0.70916   0.83376   0.50101   0.00000  Uiso   1.00
C889   C     0.85850   0.69098   0.53274   0.00000  Uiso   1.00
C890   C     0.80975   0.97586   0.46577   0.00000  Uiso   1.00
C891   C     0.80817   0.69098   0.46726   0.00000  Uiso   1.00
C892   C     0.85692   0.97586   0.53423   0.00000  Uiso   1.00
C893   C     0.92495   0.70335   0.56370   0.00000  Uiso   1.00
C894   C     0.80492   0.95640   0.38397   0.00000  Uiso   1.00
C895   C     0.74172   0.70335   0.43630   0.00000  Uiso   1.00
C896   C     0.91333   0.83341   0.49950   0.00000  Uiso   1.00
C897   C     0.86174   0.95640   0.61603   0.00000  Uiso   1.00
C898   C     0.83325   0.83334   0.40624   0.00000  Uiso   1.00
C899   C     0.83342   0.83334   0.59376   0.00000  Uiso   1.00
C900   C     0.83331   0.83334   0.35512   0.00000  Uiso   1.00
C901   C     0.83336   0.83334   0.64488   0.00000  Uiso   1.00
C902   C     0.68788   0.79287   0.50143   0.00000  Uiso   1.00
C903   C     0.97869   0.87489   0.49977   0.00000  Uiso   1.00
C904   C     0.97879   0.79287   0.49857   0.00000  Uiso   1.00
H905   H     0.70383   0.76096   0.50379   0.00000  Uiso   1.00
H906   H     0.79889   0.99015   0.36755   0.00000  Uiso   1.00
H907   H     0.72263   0.73283   0.42490   0.00000  Uiso   1.00
H908   H     0.73238   0.69310   0.47449   0.00000  Uiso   1.00
H909   H     0.73403   0.67627   0.40917   0.00000  Uiso   1.00
H910   H     0.87592   0.93112   0.64167   0.00000  Uiso   1.00
H911   H     0.82767   0.94992   0.61416   0.00000  Uiso   1.00
H912   H     0.86778   0.99015   0.63245   0.00000  Uiso   1.00
H913   H     0.96254   0.90691   0.49985   0.00000  Uiso   1.00
H914   H     0.96284   0.76096   0.49621   0.00000  Uiso   1.00
H915   H     0.70413   0.90691   0.50015   0.00000  Uiso   1.00
H916   H     0.94403   0.73283   0.57510   0.00000  Uiso   1.00
H917   H     0.93428   0.69310   0.52551   0.00000  Uiso   1.00
H918   H     0.93263   0.67627   0.59083   0.00000  Uiso   1.00
H919   H     0.79074   0.93112   0.35833   0.00000  Uiso   1.00
H920   H     0.83899   0.94992   0.38584   0.00000  Uiso   1.00
N921   N     0.83333   0.95240   0.50000   0.00000  Uiso   1.00
N922   N     0.83333   0.71427   0.50000   0.00000  Uiso   1.00
O923   O     0.77226   0.87154   0.50000   0.00000  Uiso   1.00
O924   O     0.78656   0.95183   0.43101   0.00000  Uiso   1.00
O925   O     0.78401   0.71560   0.43361   0.00000  Uiso   1.00
O926   O     0.88011   0.95183   0.56899   0.00000  Uiso   1.00
O927   O     0.89441   0.79513   0.50000   0.00000  Uiso   1.00
O928   O     0.89441   0.87154   0.50000   0.00000  Uiso   1.00
O929   O     0.77226   0.79513   0.50000   0.00000  Uiso   1.00
O930   O     0.83334   0.87155   0.42845   0.00000  Uiso   1.00
O931   O     0.83333   0.79512   0.57155   0.00000  Uiso   1.00
O932   O     0.83333   0.87155   0.57155   0.00000  Uiso   1.00
O933   O     0.83334   0.79512   0.42845   0.00000  Uiso   1.00
O934   O     0.88266   0.71560   0.56639   0.00000  Uiso   1.00
Zn935  Zn    0.83333   0.88437   0.50000   0.00000  Uiso   1.00
Zn936  Zn    0.83333   0.78229   0.50000   0.00000  Uiso   1.00
C937   C     0.08667   0.16675   0.83384   0.00000  Uiso   1.00
C938   C     0.02131   0.20822   0.83356   0.00000  Uiso   1.00
C939   C     0.29084   0.16709   0.83232   0.00000  Uiso   1.00
C940   C     0.04249   0.16709   0.83434   0.00000  Uiso   1.00
C941   C     0.19183   0.02431   0.86607   0.00000  Uiso   1.00
C942   C     0.14308   0.30920   0.79911   0.00000  Uiso   1.00
C943   C     0.14150   0.02431   0.80059   0.00000  Uiso   1.00
C944   C     0.19025   0.30920   0.86756   0.00000  Uiso   1.00
C945   C     0.25828   0.03669   0.89704   0.00000  Uiso   1.00
C946   C     0.13826   0.28973   0.71730   0.00000  Uiso   1.00
C947   C     0.07505   0.03669   0.76963   0.00000  Uiso   1.00
C948   C     0.24666   0.16675   0.83283   0.00000  Uiso   1.00
C949   C     0.19508   0.28973   0.94937   0.00000  Uiso   1.00
C950   C     0.16658   0.16667   0.73958   0.00000  Uiso   1.00
C951   C     0.16675   0.16667   0.92709   0.00000  Uiso   1.00
C952   C     0.16664   0.16668   0.68845   0.00000  Uiso   1.00
C953   C     0.16669   0.16668   0.97821   0.00000  Uiso   1.00
C954   C     0.02121   0.12620   0.83476   0.00000  Uiso   1.00
C955   C     0.31203   0.20822   0.83310   0.00000  Uiso   1.00
C956   C     0.31212   0.12620   0.83191   0.00000  Uiso   1.00
H957   H     0.03716   0.09429   0.83713   0.00000  Uiso   1.00
H958   H     0.13222   0.32349   0.70088   0.00000  Uiso   1.00
H959   H     0.05597   0.06617   0.75824   0.00000  Uiso   1.00
H960   H     0.06572   0.02644   0.80782   0.00000  Uiso   1.00
H961   H     0.06737   0.00960   0.74250   0.00000  Uiso   1.00
H962   H     0.20926   0.26445   0.97501   0.00000  Uiso   1.00
H963   H     0.16101   0.28325   0.94749   0.00000  Uiso   1.00
H964   H     0.20111   0.32349   0.96578   0.00000  Uiso   1.00
H965   H     0.29587   0.24024   0.83319   0.00000  Uiso   1.00
H966   H     0.29617   0.09429   0.82954   0.00000  Uiso   1.00
H967   H     0.03746   0.24024   0.83348   0.00000  Uiso   1.00
H968   H     0.27737   0.06617   0.90843   0.00000  Uiso   1.00
H969   H     0.26762   0.02644   0.85884   0.00000  Uiso   1.00
H970   H     0.26596   0.00960   0.92416   0.00000  Uiso   1.00
H971   H     0.12408   0.26445   0.69166   0.00000  Uiso   1.00
H972   H     0.17233   0.28325   0.71918   0.00000  Uiso   1.00
N973   N     0.16667   0.28573   0.83333   0.00000  Uiso   1.00
N974   N     0.16667   0.04760   0.83333   0.00000  Uiso   1.00
O975   O     0.10559   0.20487   0.83333   0.00000  Uiso   1.00
O976   O     0.11989   0.28517   0.76435   0.00000  Uiso   1.00
O977   O     0.11734   0.04894   0.76695   0.00000  Uiso   1.00
O978   O     0.21344   0.28517   0.90232   0.00000  Uiso   1.00
O979   O     0.22774   0.12846   0.83334   0.00000  Uiso   1.00
O980   O     0.22774   0.20487   0.83334   0.00000  Uiso   1.00
O981   O     0.10559   0.12846   0.83333   0.00000  Uiso   1.00
O982   O     0.16667   0.20488   0.76178   0.00000  Uiso   1.00
O983   O     0.16666   0.12845   0.90489   0.00000  Uiso   1.00
O984   O     0.16666   0.20488   0.90489   0.00000  Uiso   1.00
O985   O     0.16667   0.12845   0.76178   0.00000  Uiso   1.00
O986   O     0.21599   0.04894   0.89972   0.00000  Uiso   1.00
Zn987  Zn    0.16667   0.21771   0.83333   0.00000  Uiso   1.00
Zn988  Zn    0.16667   0.11563   0.83333   0.00000  Uiso   1.00
C989   C     0.42001   0.16675   0.83384   0.00000  Uiso   1.00
C990   C     0.35464   0.20822   0.83356   0.00000  Uiso   1.00
C991   C     0.62417   0.16709   0.83232   0.00000  Uiso   1.00
C992   C     0.37583   0.16709   0.83434   0.00000  Uiso   1.00
C993   C     0.52516   0.02431   0.86607   0.00000  Uiso   1.00
C994   C     0.47641   0.30920   0.79911   0.00000  Uiso   1.00
C995   C     0.47483   0.02431   0.80059   0.00000  Uiso   1.00
C996   C     0.52359   0.30920   0.86756   0.00000  Uiso   1.00
C997   C     0.59162   0.03669   0.89704   0.00000  Uiso   1.00
C998   C     0.47159   0.28973   0.71730   0.00000  Uiso   1.00
C999   C     0.40838   0.03669   0.76963   0.00000  Uiso   1.00
C1000  C     0.57999   0.16675   0.83283   0.00000  Uiso   1.00
C1001  C     0.52841   0.28973   0.94937   0.00000  Uiso   1.00
C1002  C     0.49992   0.16667   0.73958   0.00000  Uiso   1.00
C1003  C     0.50008   0.16667   0.92709   0.00000  Uiso   1.00
C1004  C     0.49997   0.16668   0.68845   0.00000  Uiso   1.00
C1005  C     0.50003   0.16668   0.97821   0.00000  Uiso   1.00
C1006  C     0.35455   0.12620   0.83476   0.00000  Uiso   1.00
C1007  C     0.64536   0.20822   0.83310   0.00000  Uiso   1.00
C1008  C     0.64545   0.12620   0.83191   0.00000  Uiso   1.00
H1009  H     0.37049   0.09429   0.83713   0.00000  Uiso   1.00
H1010  H     0.46556   0.32349   0.70088   0.00000  Uiso   1.00
H1011  H     0.38930   0.06617   0.75824   0.00000  Uiso   1.00
H1012  H     0.39905   0.02644   0.80782   0.00000  Uiso   1.00
H1013  H     0.40070   0.00960   0.74250   0.00000  Uiso   1.00
H1014  H     0.54259   0.26445   0.97501   0.00000  Uiso   1.00
H1015  H     0.49434   0.28325   0.94749   0.00000  Uiso   1.00
H1016  H     0.53444   0.32349   0.96578   0.00000  Uiso   1.00
H1017  H     0.62920   0.24024   0.83319   0.00000  Uiso   1.00
H1018  H     0.62951   0.09429   0.82954   0.00000  Uiso   1.00
H1019  H     0.37080   0.24024   0.83348   0.00000  Uiso   1.00
H1020  H     0.61070   0.06617   0.90843   0.00000  Uiso   1.00
H1021  H     0.60095   0.02644   0.85884   0.00000  Uiso   1.00
H1022  H     0.59930   0.00960   0.92416   0.00000  Uiso   1.00
H1023  H     0.45741   0.26445   0.69166   0.00000  Uiso   1.00
H1024  H     0.50566   0.28325   0.71918   0.00000  Uiso   1.00
N1025  N     0.50000   0.28573   0.83333   0.00000  Uiso   1.00
N1026  N     0.50000   0.04760   0.83333   0.00000  Uiso   1.00
O1027  O     0.43892   0.20487   0.83333   0.00000  Uiso   1.00
O1028  O     0.45323   0.28517   0.76435   0.00000  Uiso   1.00
O1029  O     0.45067   0.04894   0.76695   0.00000  Uiso   1.00
O1030  O     0.54677   0.28517   0.90232   0.00000  Uiso   1.00
O1031  O     0.56108   0.12846   0.83334   0.00000  Uiso   1.00
O1032  O     0.56108   0.20487   0.83334   0.00000  Uiso   1.00
O1033  O     0.43892   0.12846   0.83333   0.00000  Uiso   1.00
O1034  O     0.50000   0.20488   0.76178   0.00000  Uiso   1.00
O1035  O     0.50000   0.12845   0.90489   0.00000  Uiso   1.00
O1036  O     0.50000   0.20488   0.90489   0.00000  Uiso   1.00
O1037  O     0.50000   0.12845   0.76178   0.00000  Uiso   1.00
O1038  O     0.54933   0.04894   0.89972   0.00000  Uiso   1.00
Zn1039 Zn    0.50000   0.21771   0.83333   0.00000  Uiso   1.00
Zn1040 Zn    0.50000   0.11563   0.83333   0.00000  Uiso   1.00
C1041  C     0.75334   0.16675   0.83384   0.00000  Uiso   1.00
C1042  C     0.68797   0.20822   0.83356   0.00000  Uiso   1.00
C1043  C     0.95751   0.16709   0.83232   0.00000  Uiso   1.00
C1044  C     0.70916   0.16709   0.83434   0.00000  Uiso   1.00
C1045  C     0.85850   0.02431   0.86607   0.00000  Uiso   1.00
C1046  C     0.80975   0.30920   0.79911   0.00000  Uiso   1.00
C1047  C     0.80817   0.02431   0.80059   0.00000  Uiso   1.00
C1048  C     0.85692   0.30920   0.86756   0.00000  Uiso   1.00
C1049  C     0.92495   0.03669   0.89704   0.00000  Uiso   1.00
C1050  C     0.80492   0.28973   0.71730   0.00000  Uiso   1.00
C1051  C     0.74172   0.03669   0.76963   0.00000  Uiso   1.00
C1052  C     0.91333   0.16675   0.83283   0.00000  Uiso   1.00
C1053  C     0.86174   0.28973   0.94937   0.00000  Uiso   1.00
C1054  C     0.83325   0.16667   0.73958   0.00000  Uiso   1.00
C1055  C     0.83342   0.16667   0.92709   0.00000  Uiso   1.00
C1056  C     0.83331   0.16668   0.68845   0.00000  Uiso   1.00
C1057  C     0.83336   0.16668   0.97821   0.00000  Uiso   1.00
C1058  C     0.68788   0.12620   0.83476   0.00000  Uiso   1.00
C1059  C     0.97869   0.20822   0.83310   0.00000  Uiso   1.00
C1060  C     0.97879   0.12620   0.83191   0.00000  Uiso   1.00
H1061  H     0.70383   0.09429   0.83713   0.00000  Uiso   1.00
H1062  H     0.79889   0.32349   0.70088   0.00000  Uiso   1.00
H1063  H     0.72263   0.06617   0.75824   0.00000  Uiso   1.00
H1064  H     0.73238   0.02644   0.80782   0.00000  Uiso   1.00
H1065  H     0.73403   0.00960   0.74250   0.00000  Uiso   1.00
H1066  H     0.87592   0.26445   0.97501   0.00000  Uiso   1.00
H1067  H     0.82767   0.28325   0.94749   0.00000  Uiso   1.00
H1068  H     0.86778   0.32349   0.96578   0.00000  Uiso   1.00
H1069  H     0.96254   0.24024   0.83319   0.00000  Uiso   1.00
H1070  H     0.96284   0.09429   0.82954   0.00000  Uiso   1.00
H1071  H     0.70413   0.24024   0.83348   0.00000  Uiso   1.00
H1072  H     0.94403   0.06617   0.90843   0.00000  Uiso   1.00
H1073  H     0.93428   0.02644   0.85884   0.00000  Uiso   1.00
H1074  H     0.93263   0.00960   0.92416   0.00000  Uiso   1.00
H1075  H     0.79074   0.26445   0.69166   0.00000  Uiso   1.00
H1076  H     0.83899   0.28325   0.71918   0.00000  Uiso   1.00
N1077  N     0.83333   0.28573   0.83333   0.00000  Uiso   1.00
N1078  N     0.83333   0.04760   0.83333   0.00000  Uiso   1.00
O1079  O     0.77226   0.20487   0.83333   0.00000  Uiso   1.00
O1080  O     0.78656   0.28517   0.76435   0.00000  Uiso   1.00
O1081  O     0.78401   0.04894   0.76695   0.00000  Uiso   1.00
O1082  O     0.88011   0.28517   0.90232   0.00000  Uiso   1.00
O1083  O     0.89441   0.12846   0.83334   0.00000  Uiso   1.00
O1084  O     0.89441   0.20487   0.83334   0.00000  Uiso   1.00
O1085  O     0.77226   0.12846   0.83333   0.00000  Uiso   1.00
O1086  O     0.83334   0.20488   0.76178   0.00000  Uiso   1.00
O1087  O     0.83333   0.12845   0.90489   0.00000  Uiso   1.00
O1088  O     0.83333   0.20488   0.90489   0.00000  Uiso   1.00
O1089  O     0.83334   0.12845   0.76178   0.00000  Uiso   1.00
O1090  O     0.88266   0.04894   0.89972   0.00000  Uiso   1.00
Zn1091 Zn    0.83333   0.21771   0.83333   0.00000  Uiso   1.00
Zn1092 Zn    0.83333   0.11563   0.83333   0.00000  Uiso   1.00
C1093  C     0.08667   0.50008   0.83384   0.00000  Uiso   1.00
C1094  C     0.02131   0.54156   0.83356   0.00000  Uiso   1.00
C1095  C     0.29084   0.50042   0.83232   0.00000  Uiso   1.00
C1096  C     0.04249   0.50042   0.83434   0.00000  Uiso   1.00
C1097  C     0.19183   0.35764   0.86607   0.00000  Uiso   1.00
C1098  C     0.14308   0.64253   0.79911   0.00000  Uiso   1.00
C1099  C     0.14150   0.35764   0.80059   0.00000  Uiso   1.00
C1100  C     0.19025   0.64253   0.86756   0.00000  Uiso   1.00
C1101  C     0.25828   0.37002   0.89704   0.00000  Uiso   1.00
C1102  C     0.13826   0.62306   0.71730   0.00000  Uiso   1.00
C1103  C     0.07505   0.37002   0.76963   0.00000  Uiso   1.00
C1104  C     0.24666   0.50008   0.83283   0.00000  Uiso   1.00
C1105  C     0.19508   0.62306   0.94937   0.00000  Uiso   1.00
C1106  C     0.16658   0.50000   0.73958   0.00000  Uiso   1.00
C1107  C     0.16675   0.50000   0.92709   0.00000  Uiso   1.00
C1108  C     0.16664   0.50001   0.68845   0.00000  Uiso   1.00
C1109  C     0.16669   0.50001   0.97821   0.00000  Uiso   1.00
C1110  C     0.02121   0.45954   0.83476   0.00000  Uiso   1.00
C1111  C     0.31203   0.54156   0.83310   0.00000  Uiso   1.00
C1112  C     0.31212   0.45954   0.83191   0.00000  Uiso   1.00
H1113  H     0.03716   0.42763   0.83713   0.00000  Uiso   1.00
H1114  H     0.13222   0.65682   0.70088   0.00000  Uiso   1.00
H1115  H     0.05597   0.39950   0.75824   0.00000  Uiso   1.00
H1116  H     0.06572   0.35977   0.80782   0.00000  Uiso   1.00
H1117  H     0.06737   0.34293   0.74250   0.00000  Uiso   1.00
H1118  H     0.20926   0.59778   0.97501   0.00000  Uiso   1.00
H1119  H     0.16101   0.61658   0.94749   0.00000  Uiso   1.00
H1120  H     0.20111   0.65682   0.96578   0.00000  Uiso   1.00
H1121  H     0.29587   0.57358   0.83319   0.00000  Uiso   1.00
H1122  H     0.29617   0.42763   0.82954   0.00000  Uiso   1.00
H1123  H     0.03746   0.57358   0.83348   0.00000  Uiso   1.00
H1124  H     0.27737   0.39950   0.90843   0.00000  Uiso   1.00
H1125  H     0.26762   0.35977   0.85884   0.00000  Uiso   1.00
H1126  H     0.26596   0.34293   0.92416   0.00000  Uiso   1.00
H1127  H     0.12408   0.59778   0.69166   0.00000  Uiso   1.00
H1128  H     0.17233   0.61658   0.71918   0.00000  Uiso   1.00
N1129  N     0.16667   0.61907   0.83333   0.00000  Uiso   1.00
N1130  N     0.16667   0.38093   0.83333   0.00000  Uiso   1.00
O1131  O     0.10559   0.53821   0.83333   0.00000  Uiso   1.00
O1132  O     0.11989   0.61850   0.76435   0.00000  Uiso   1.00
O1133  O     0.11734   0.38227   0.76695   0.00000  Uiso   1.00
O1134  O     0.21344   0.61850   0.90232   0.00000  Uiso   1.00
O1135  O     0.22774   0.46179   0.83334   0.00000  Uiso   1.00
O1136  O     0.22774   0.53821   0.83334   0.00000  Uiso   1.00
O1137  O     0.10559   0.46179   0.83333   0.00000  Uiso   1.00
O1138  O     0.16667   0.53821   0.76178   0.00000  Uiso   1.00
O1139  O     0.16666   0.46179   0.90489   0.00000  Uiso   1.00
O1140  O     0.16666   0.53821   0.90489   0.00000  Uiso   1.00
O1141  O     0.16667   0.46179   0.76178   0.00000  Uiso   1.00
O1142  O     0.21599   0.38227   0.89972   0.00000  Uiso   1.00
Zn1143 Zn    0.16667   0.55104   0.83333   0.00000  Uiso   1.00
Zn1144 Zn    0.16667   0.44896   0.83333   0.00000  Uiso   1.00
C1145  C     0.42001   0.50008   0.83384   0.00000  Uiso   1.00
C1146  C     0.35464   0.54156   0.83356   0.00000  Uiso   1.00
C1147  C     0.62417   0.50042   0.83232   0.00000  Uiso   1.00
C1148  C     0.37583   0.50042   0.83434   0.00000  Uiso   1.00
C1149  C     0.52516   0.35764   0.86607   0.00000  Uiso   1.00
C1150  C     0.47641   0.64253   0.79911   0.00000  Uiso   1.00
C1151  C     0.47483   0.35764   0.80059   0.00000  Uiso   1.00
C1152  C     0.52359   0.64253   0.86756   0.00000  Uiso   1.00
C1153  C     0.59162   0.37002   0.89704   0.00000  Uiso   1.00
C1154  C     0.47159   0.62306   0.71730   0.00000  Uiso   1.00
C1155  C     0.40838   0.37002   0.76963   0.00000  Uiso   1.00
C1156  C     0.57999   0.50008   0.83283   0.00000  Uiso   1.00
C1157  C     0.52841   0.62306   0.94937   0.00000  Uiso   1.00
C1158  C     0.49992   0.50000   0.73958   0.00000  Uiso   1.00
C1159  C     0.50008   0.50000   0.92709   0.00000  Uiso   1.00
C1160  C     0.49997   0.50001   0.68845   0.00000  Uiso   1.00
C1161  C     0.50003   0.50001   0.97821   0.00000  Uiso   1.00
C1162  C     0.35455   0.45954   0.83476   0.00000  Uiso   1.00
C1163  C     0.64536   0.54156   0.83310   0.00000  Uiso   1.00
C1164  C     0.64545   0.45954   0.83191   0.00000  Uiso   1.00
H1165  H     0.37049   0.42763   0.83713   0.00000  Uiso   1.00
H1166  H     0.46556   0.65682   0.70088   0.00000  Uiso   1.00
H1167  H     0.38930   0.39950   0.75824   0.00000  Uiso   1.00
H1168  H     0.39905   0.35977   0.80782   0.00000  Uiso   1.00
H1169  H     0.40070   0.34293   0.74250   0.00000  Uiso   1.00
H1170  H     0.54259   0.59778   0.97501   0.00000  Uiso   1.00
H1171  H     0.49434   0.61658   0.94749   0.00000  Uiso   1.00
H1172  H     0.53444   0.65682   0.96578   0.00000  Uiso   1.00
H1173  H     0.62920   0.57358   0.83319   0.00000  Uiso   1.00
H1174  H     0.62951   0.42763   0.82954   0.00000  Uiso   1.00
H1175  H     0.37080   0.57358   0.83348   0.00000  Uiso   1.00
H1176  H     0.61070   0.39950   0.90843   0.00000  Uiso   1.00
H1177  H     0.60095   0.35977   0.85884   0.00000  Uiso   1.00
H1178  H     0.59930   0.34293   0.92416   0.00000  Uiso   1.00
H1179  H     0.45741   0.59778   0.69166   0.00000  Uiso   1.00
H1180  H     0.50566   0.61658   0.71918   0.00000  Uiso   1.00
N1181  N     0.50000   0.61907   0.83333   0.00000  Uiso   1.00
N1182  N     0.50000   0.38093   0.83333   0.00000  Uiso   1.00
O1183  O     0.43892   0.53821   0.83333   0.00000  Uiso   1.00
O1184  O     0.45323   0.61850   0.76435   0.00000  Uiso   1.00
O1185  O     0.45067   0.38227   0.76695   0.00000  Uiso   1.00
O1186  O     0.54677   0.61850   0.90232   0.00000  Uiso   1.00
O1187  O     0.56108   0.46179   0.83334   0.00000  Uiso   1.00
O1188  O     0.56108   0.53821   0.83334   0.00000  Uiso   1.00
O1189  O     0.43892   0.46179   0.83333   0.00000  Uiso   1.00
O1190  O     0.50000   0.53821   0.76178   0.00000  Uiso   1.00
O1191  O     0.50000   0.46179   0.90489   0.00000  Uiso   1.00
O1192  O     0.50000   0.53821   0.90489   0.00000  Uiso   1.00
O1193  O     0.50000   0.46179   0.76178   0.00000  Uiso   1.00
O1194  O     0.54933   0.38227   0.89972   0.00000  Uiso   1.00
Zn1195 Zn    0.50000   0.55104   0.83333   0.00000  Uiso   1.00
Zn1196 Zn    0.50000   0.44896   0.83333   0.00000  Uiso   1.00
C1197  C     0.75334   0.50008   0.83384   0.00000  Uiso   1.00
C1198  C     0.68797   0.54156   0.83356   0.00000  Uiso   1.00
C1199  C     0.95751   0.50042   0.83232   0.00000  Uiso   1.00
C1200  C     0.70916   0.50042   0.83434   0.00000  Uiso   1.00
C1201  C     0.85850   0.35764   0.86607   0.00000  Uiso   1.00
C1202  C     0.80975   0.64253   0.79911   0.00000  Uiso   1.00
C1203  C     0.80817   0.35764   0.80059   0.00000  Uiso   1.00
C1204  C     0.85692   0.64253   0.86756   0.00000  Uiso   1.00
C1205  C     0.92495   0.37002   0.89704   0.00000  Uiso   1.00
C1206  C     0.80492   0.62306   0.71730   0.00000  Uiso   1.00
C1207  C     0.74172   0.37002   0.76963   0.00000  Uiso   1.00
C1208  C     0.91333   0.50008   0.83283   0.00000  Uiso   1.00
C1209  C     0.86174   0.62306   0.94937   0.00000  Uiso   1.00
C1210  C     0.83325   0.50000   0.73958   0.00000  Uiso   1.00
C1211  C     0.83342   0.50000   0.92709   0.00000  Uiso   1.00
C1212  C     0.83331   0.50001   0.68845   0.00000  Uiso   1.00
C1213  C     0.83336   0.50001   0.97821   0.00000  Uiso   1.00
C1214  C     0.68788   0.45954   0.83476   0.00000  Uiso   1.00
C1215  C     0.97869   0.54156   0.83310   0.00000  Uiso   1.00
C1216  C     0.97879   0.45954   0.83191   0.00000  Uiso   1.00
H1217  H     0.70383   0.42763   0.83713   0.00000  Uiso   1.00
H1218  H     0.79889   0.65682   0.70088   0.00000  Uiso   1.00
H1219  H     0.72263   0.39950   0.75824   0.00000  Uiso   1.00
H1220  H     0.73238   0.35977   0.80782   0.00000  Uiso   1.00
H1221  H     0.73403   0.34293   0.74250   0.00000  Uiso   1.00
H1222  H     0.87592   0.59778   0.97501   0.00000  Uiso   1.00
H1223  H     0.82767   0.61658   0.94749   0.00000  Uiso   1.00
H1224  H     0.86778   0.65682   0.96578   0.00000  Uiso   1.00
H1225  H     0.96254   0.57358   0.83319   0.00000  Uiso   1.00
H1226  H     0.96284   0.42763   0.82954   0.00000  Uiso   1.00
H1227  H     0.70413   0.57358   0.83348   0.00000  Uiso   1.00
H1228  H     0.94403   0.39950   0.90843   0.00000  Uiso   1.00
H1229  H     0.93428   0.35977   0.85884   0.00000  Uiso   1.00
H1230  H     0.93263   0.34293   0.92416   0.00000  Uiso   1.00
H1231  H     0.79074   0.59778   0.69166   0.00000  Uiso   1.00
H1232  H     0.83899   0.61658   0.71918   0.00000  Uiso   1.00
N1233  N     0.83333   0.61907   0.83333   0.00000  Uiso   1.00
N1234  N     0.83333   0.38093   0.83333   0.00000  Uiso   1.00
O1235  O     0.77226   0.53821   0.83333   0.00000  Uiso   1.00
O1236  O     0.78656   0.61850   0.76435   0.00000  Uiso   1.00
O1237  O     0.78401   0.38227   0.76695   0.00000  Uiso   1.00
O1238  O     0.88011   0.61850   0.90232   0.00000  Uiso   1.00
O1239  O     0.89441   0.46179   0.83334   0.00000  Uiso   1.00
O1240  O     0.89441   0.53821   0.83334   0.00000  Uiso   1.00
O1241  O     0.77226   0.46179   0.83333   0.00000  Uiso   1.00
O1242  O     0.83334   0.53821   0.76178   0.00000  Uiso   1.00
O1243  O     0.83333   0.46179   0.90489   0.00000  Uiso   1.00
O1244  O     0.83333   0.53821   0.90489   0.00000  Uiso   1.00
O1245  O     0.83334   0.46179   0.76178   0.00000  Uiso   1.00
O1246  O     0.88266   0.38227   0.89972   0.00000  Uiso   1.00
Zn1247 Zn    0.83333   0.55104   0.83333   0.00000  Uiso   1.00
Zn1248 Zn    0.83333   0.44896   0.83333   0.00000  Uiso   1.00
C1249  C     0.08667   0.83341   0.83384   0.00000  Uiso   1.00
C1250  C     0.02131   0.87489   0.83356   0.00000  Uiso   1.00
C1251  C     0.29084   0.83376   0.83232   0.00000  Uiso   1.00
C1252  C     0.04249   0.83376   0.83434   0.00000  Uiso   1.00
C1253  C     0.19183   0.69098   0.86607   0.00000  Uiso   1.00
C1254  C     0.14308   0.97586   0.79911   0.00000  Uiso   1.00
C1255  C     0.14150   0.69098   0.80059   0.00000  Uiso   1.00
C1256  C     0.19025   0.97586   0.86756   0.00000  Uiso   1.00
C1257  C     0.25828   0.70335   0.89704   0.00000  Uiso   1.00
C1258  C     0.13826   0.95640   0.71730   0.00000  Uiso   1.00
C1259  C     0.07505   0.70335   0.76963   0.00000  Uiso   1.00
C1260  C     0.24666   0.83341   0.83283   0.00000  Uiso   1.00
C1261  C     0.19508   0.95640   0.94937   0.00000  Uiso   1.00
C1262  C     0.16658   0.83334   0.73958   0.00000  Uiso   1.00
C1263  C     0.16675   0.83334   0.92709   0.00000  Uiso   1.00
C1264  C     0.16664   0.83334   0.68845   0.00000  Uiso   1.00
C1265  C     0.16669   0.83334   0.97821   0.00000  Uiso   1.00
C1266  C     0.02121   0.79287   0.83476   0.00000  Uiso   1.00
C1267  C     0.31203   0.87489   0.83310   0.00000  Uiso   1.00
C1268  C     0.31212   0.79287   0.83191   0.00000  Uiso   1.00
H1269  H     0.03716   0.76096   0.83713   0.00000  Uiso   1.00
H1270  H     0.13222   0.99015   0.70088   0.00000  Uiso   1.00
H1271  H     0.05597   0.73283   0.75824   0.00000  Uiso   1.00
H1272  H     0.06572   0.69310   0.80782   0.00000  Uiso   1.00
H1273  H     0.06737   0.67627   0.74250   0.00000  Uiso   1.00
H1274  H     0.20926   0.93112   0.97501   0.00000  Uiso   1.00
H1275  H     0.16101   0.94992   0.94749   0.00000  Uiso   1.00
H1276  H     0.20111   0.99015   0.96578   0.00000  Uiso   1.00
H1277  H     0.29587   0.90691   0.83319   0.00000  Uiso   1.00
H1278  H     0.29617   0.76096   0.82954   0.00000  Uiso   1.00
H1279  H     0.03746   0.90691   0.83348   0.00000  Uiso   1.00
H1280  H     0.27737   0.73283   0.90843   0.00000  Uiso   1.00
H1281  H     0.26762   0.69310   0.85884   0.00000  Uiso   1.00
H1282  H     0.26596   0.67627   0.92416   0.00000  Uiso   1.00
H1283  H     0.12408   0.93112   0.69166   0.00000  Uiso   1.00
H1284  H     0.17233   0.94992   0.71918   0.00000  Uiso   1.00
N1285  N     0.16667   0.95240   0.83333   0.00000  Uiso   1.00
N1286  N     0.16667   0.71427   0.83333   0.00000  Uiso   1.00
O1287  O     0.10559   0.87154   0.83333   0.00000  Uiso   1.00
O1288  O     0.11989   0.95183   0.76435   0.00000  Uiso   1.00
O1289  O     0.11734   0.71560   0.76695   0.00000  Uiso   1.00
O1290  O     0.21344   0.95183   0.90232   0.00000  Uiso   1.00
O1291  O     0.22774   0.79513   0.83334   0.00000  Uiso   1.00
O1292  O     0.22774   0.87154   0.83334   0.00000  Uiso   1.00
O1293  O     0.10559   0.79513   0.83333   0.00000  Uiso   1.00
O1294  O     0.16667   0.87155   0.76178   0.00000  Uiso   1.00
O1295  O     0.16666   0.79512   0.90489   0.00000  Uiso   1.00
O1296  O     0.16666   0.87155   0.90489   0.00000  Uiso   1.00
O1297  O     0.16667   0.79512   0.76178   0.00000  Uiso   1.00
O1298  O     0.21599   0.71560   0.89972   0.00000  Uiso   1.00
Zn1299 Zn    0.16667   0.88437   0.83333   0.00000  Uiso   1.00
Zn1300 Zn    0.16667   0.78229   0.83333   0.00000  Uiso   1.00
C1301  C     0.42001   0.83341   0.83384   0.00000  Uiso   1.00
C1302  C     0.35464   0.87489   0.83356   0.00000  Uiso   1.00
C1303  C     0.62417   0.83376   0.83232   0.00000  Uiso   1.00
C1304  C     0.37583   0.83376   0.83434   0.00000  Uiso   1.00
C1305  C     0.52516   0.69098   0.86607   0.00000  Uiso   1.00
C1306  C     0.47641   0.97586   0.79911   0.00000  Uiso   1.00
C1307  C     0.47483   0.69098   0.80059   0.00000  Uiso   1.00
C1308  C     0.52359   0.97586   0.86756   0.00000  Uiso   1.00
C1309  C     0.59162   0.70335   0.89704   0.00000  Uiso   1.00
C1310  C     0.47159   0.95640   0.71730   0.00000  Uiso   1.00
C1311  C     0.40838   0.70335   0.76963   0.00000  Uiso   1.00
C1312  C     0.57999   0.83341   0.83283   0.00000  Uiso   1.00
C1313  C     0.52841   0.95640   0.94937   0.00000  Uiso   1.00
C1314  C     0.49992   0.83334   0.73958   0.00000  Uiso   1.00
C1315  C     0.50008   0.83334   0.92709   0.00000  Uiso   1.00
C1316  C     0.49997   0.83334   0.68845   0.00000  Uiso   1.00
C1317  C     0.50003   0.83334   0.97821   0.00000  Uiso   1.00
C1318  C     0.35455   0.79287   0.83476   0.00000  Uiso   1.00
C1319  C     0.64536   0.87489   0.83310   0.00000  Uiso   1.00
C1320  C     0.64545   0.79287   0.83191   0.00000  Uiso   1.00
H1321  H     0.37049   0.76096   0.83713   0.00000  Uiso   1.00
H1322  H     0.46556   0.99015   0.70088   0.00000  Uiso   1.00
H1323  H     0.38930   0.73283   0.75824   0.00000  Uiso   1.00
H1324  H     0.39905   0.69310   0.80782   0.00000  Uiso   1.00
H1325  H     0.40070   0.67627   0.74250   0.00000  Uiso   1.00
H1326  H     0.54259   0.93112   0.97501   0.00000  Uiso   1.00
H1327  H     0.49434   0.94992   0.94749   0.00000  Uiso   1.00
H1328  H     0.53444   0.99015   0.96578   0.00000  Uiso   1.00
H1329  H     0.62920   0.90691   0.83319   0.00000  Uiso   1.00
H1330  H     0.62951   0.76096   0.82954   0.00000  Uiso   1.00
H1331  H     0.37080   0.90691   0.83348   0.00000  Uiso   1.00
H1332  H     0.61070   0.73283   0.90843   0.00000  Uiso   1.00
H1333  H     0.60095   0.69310   0.85884   0.00000  Uiso   1.00
H1334  H     0.59930   0.67627   0.92416   0.00000  Uiso   1.00
H1335  H     0.45741   0.93112   0.69166   0.00000  Uiso   1.00
H1336  H     0.50566   0.94992   0.71918   0.00000  Uiso   1.00
N1337  N     0.50000   0.95240   0.83333   0.00000  Uiso   1.00
N1338  N     0.50000   0.71427   0.83333   0.00000  Uiso   1.00
O1339  O     0.43892   0.87154   0.83333   0.00000  Uiso   1.00
O1340  O     0.45323   0.95183   0.76435   0.00000  Uiso   1.00
O1341  O     0.45067   0.71560   0.76695   0.00000  Uiso   1.00
O1342  O     0.54677   0.95183   0.90232   0.00000  Uiso   1.00
O1343  O     0.56108   0.79513   0.83334   0.00000  Uiso   1.00
O1344  O     0.56108   0.87154   0.83334   0.00000  Uiso   1.00
O1345  O     0.43892   0.79513   0.83333   0.00000  Uiso   1.00
O1346  O     0.50000   0.87155   0.76178   0.00000  Uiso   1.00
O1347  O     0.50000   0.79512   0.90489   0.00000  Uiso   1.00
O1348  O     0.50000   0.87155   0.90489   0.00000  Uiso   1.00
O1349  O     0.50000   0.79512   0.76178   0.00000  Uiso   1.00
O1350  O     0.54933   0.71560   0.89972   0.00000  Uiso   1.00
Zn1351 Zn    0.50000   0.88437   0.83333   0.00000  Uiso   1.00
Zn1352 Zn    0.50000   0.78229   0.83333   0.00000  Uiso   1.00
C1353  C     0.75334   0.83341   0.83384   0.00000  Uiso   1.00
C1354  C     0.68797   0.87489   0.83356   0.00000  Uiso   1.00
C1355  C     0.95751   0.83376   0.83232   0.00000  Uiso   1.00
C1356  C     0.70916   0.83376   0.83434   0.00000  Uiso   1.00
C1357  C     0.85850   0.69098   0.86607   0.00000  Uiso   1.00
C1358  C     0.80975   0.97586   0.79911   0.00000  Uiso   1.00
C1359  C     0.80817   0.69098   0.80059   0.00000  Uiso   1.00
C1360  C     0.85692   0.97586   0.86756   0.00000  Uiso   1.00
C1361  C     0.92495   0.70335   0.89704   0.00000  Uiso   1.00
C1362  C     0.80492   0.95640   0.71730   0.00000  Uiso   1.00
C1363  C     0.74172   0.70335   0.76963   0.00000  Uiso   1.00
C1364  C     0.91333   0.83341   0.83283   0.00000  Uiso   1.00
C1365  C     0.86174   0.95640   0.94937   0.00000  Uiso   1.00
C1366  C     0.83325   0.83334   0.73958   0.00000  Uiso   1.00
C1367  C     0.83342   0.83334   0.92709   0.00000  Uiso   1.00
C1368  C     0.83331   0.83334   0.68845   0.00000  Uiso   1.00
C1369  C     0.83336   0.83334   0.97821   0.00000  Uiso   1.00
C1370  C     0.68788   0.79287   0.83476   0.00000  Uiso   1.00
C1371  C     0.97869   0.87489   0.83310   0.00000  Uiso   1.00
C1372  C     0.97879   0.79287   0.83191   0.00000  Uiso   1.00
H1373  H     0.70383   0.76096   0.83713   0.00000  Uiso   1.00
H1374  H     0.79889   0.99015   0.70088   0.00000  Uiso   1.00
H1375  H     0.72263   0.73283   0.75824   0.00000  Uiso   1.00
H1376  H     0.73238   0.69310   0.80782   0.00000  Uiso   1.00
H1377  H     0.73403   0.67627   0.74250   0.00000  Uiso   1.00
H1378  H     0.87592   0.93112   0.97501   0.00000  Uiso   1.00
H1379  H     0.82767   0.94992   0.94749   0.00000  Uiso   1.00
H1380  H     0.86778   0.99015   0.96578   0.00000  Uiso   1.00
H1381  H     0.96254   0.90691   0.83319   0.00000  Uiso   1.00
H1382  H     0.96284   0.76096   0.82954   0.00000  Uiso   1.00
H1383  H     0.70413   0.90691   0.83348   0.00000  Uiso   1.00
H1384  H     0.94403   0.73283   0.90843   0.00000  Uiso   1.00
H1385  H     0.93428   0.69310   0.85884   0.00000  Uiso   1.00
H1386  H     0.93263   0.67627   0.92416   0.00000  Uiso   1.00
H1387  H     0.79074   0.93112   0.69166   0.00000  Uiso   1.00
H1388  H     0.83899   0.94992   0.71918   0.00000  Uiso   1.00
N1389  N     0.83333   0.95240   0.83333   0.00000  Uiso   1.00
N1390  N     0.83333   0.71427   0.83333   0.00000  Uiso   1.00
O1391  O     0.77226   0.87154   0.83333   0.00000  Uiso   1.00
O1392  O     0.78656   0.95183   0.76435   0.00000  Uiso   1.00
O1393  O     0.78401   0.71560   0.76695   0.00000  Uiso   1.00
O1394  O     0.88011   0.95183   0.90232   0.00000  Uiso   1.00
O1395  O     0.89441   0.79513   0.83334   0.00000  Uiso   1.00
O1396  O     0.89441   0.87154   0.83334   0.00000  Uiso   1.00
O1397  O     0.77226   0.79513   0.83333   0.00000  Uiso   1.00
O1398  O     0.83334   0.87155   0.76178   0.00000  Uiso   1.00
O1399  O     0.83333   0.79512   0.90489   0.00000  Uiso   1.00
O1400  O     0.83333   0.87155   0.90489   0.00000  Uiso   1.00
O1401  O     0.83334   0.79512   0.76178   0.00000  Uiso   1.00
O1402  O     0.88266   0.71560   0.89972   0.00000  Uiso   1.00
Zn1403 Zn    0.83333   0.88437   0.83333   0.00000  Uiso   1.00
Zn1404 Zn    0.83333   0.78229   0.83333   0.00000  Uiso   1.00
loop_
_geom_bond_atom_site_label_1
_geom_bond_atom_site_label_2
_geom_bond_distance
_geom_bond_site_symmetry_2
_ccdc_geom_bond_type
C1     C4      1.423   .     S
C1     O45     1.290   .     A
C1     O39     1.286   .     A
C2     C4      1.399   .     A
C2     H31     1.084   .     S
C2     C123    1.372   1_455 S
C3     C19     1.399   .     A
C3     C20     1.394   .     A
C3     C12     1.423   .     S
C4     C18     1.394   .     A
C5     N38     1.369   .     A
C5     O50     1.387   .     S
C5     C320    1.440   1_545 S
C6     N37     1.369   .     A
C6     O40     1.380   .     S
C6     C163    1.440   .     S
C7     N38     1.369   .     A
C7     O41     1.387   .     S
C7     C318    1.440   1_545 S
C8     O42     1.380   .     S
C8     N37     1.369   .     A
C8     C161    1.440   .     S
C9     H32     1.109   .     S
C9     H33     1.115   .     S
C9     H34     1.108   .     S
C9     O50     1.413   .     S
C10    H22     1.110   .     S
C10    H35     1.109   .     S
C10    O40     1.410   .     S
C10    H36     1.114   .     S
C11    H24     1.115   .     S
C11    H23     1.109   .     S
C11    O41     1.413   .     S
C11    H25     1.108   .     S
C12    O43     1.290   .     A
C12    O44     1.286   .     A
C13    H28     1.110   .     S
C13    O42     1.410   .     S
C13    H26     1.109   .     S
C13    H27     1.114   .     S
C14    O46     1.281   .     A
C14    C16     1.370   .     S
C14    O49     1.281   .     A
C15    O47     1.281   .     A
C15    O48     1.281   .     A
C15    C17     1.370   .     S
C16    C953    1.168   1_554 S
C17    C484    1.168   .     S
C18    H21     1.079   .     S
C18    C124    1.367   1_455 S
C19    H29     1.084   .     S
C19    C54     1.372   .     S
C20    H30     1.079   .     S
C20    C70     1.367   .     S
N37    Zn51    2.019   .     S
N38    Zn52    2.019   .     S
O39    Zn51    2.004   .     S
O43    Zn52    2.004   .     S
O44    Zn51    2.004   .     S
O45    Zn52    2.004   .     S
O46    Zn51    1.955   .     S
O47    Zn52    1.955   .     S
O48    Zn51    1.955   .     S
O49    Zn52    1.955   .     S
C53    C56     1.423   .     S
C53    O97     1.290   .     A
C53    O91     1.286   .     A
C54    C56     1.399   .     A
C54    H83     1.084   .     S
C55    C71     1.399   .     A
C55    C72     1.394   .     A
C55    C64     1.423   .     S
C56    C70     1.394   .     A
C57    N90     1.369   .     A
C57    O102    1.387   .     S
C57    C372    1.440   1_545 S
C58    N89     1.369   .     A
C58    O92     1.380   .     S
C58    C215    1.440   .     S
C59    N90     1.369   .     A
C59    O93     1.387   .     S
C59    C370    1.440   1_545 S
C60    O94     1.380   .     S
C60    N89     1.369   .     A
C60    C213    1.440   .     S
C61    H84     1.109   .     S
C61    H85     1.115   .     S
C61    H86     1.108   .     S
C61    O102    1.413   .     S
C62    H74     1.110   .     S
C62    H87     1.109   .     S
C62    O92     1.410   .     S
C62    H88     1.114   .     S
C63    H76     1.115   .     S
C63    H75     1.109   .     S
C63    O93     1.413   .     S
C63    H77     1.108   .     S
C64    O95     1.290   .     A
C64    O96     1.286   .     A
C65    H80     1.110   .     S
C65    O94     1.410   .     S
C65    H78     1.109   .     S
C65    H79     1.114   .     S
C66    O98     1.281   .     A
C66    C68     1.370   .     S
C66    O101    1.281   .     A
C67    O99     1.281   .     A
C67    O100    1.281   .     A
C67    C69     1.370   .     S
C68    C1005   1.168   1_554 S
C69    C536    1.168   .     S
C70    H73     1.079   .     S
C71    H81     1.084   .     S
C71    C106    1.372   .     S
C72    H82     1.079   .     S
C72    C122    1.367   .     S
N89    Zn103   2.019   .     S
N90    Zn104   2.019   .     S
O91    Zn103   2.004   .     S
O95    Zn104   2.004   .     S
O96    Zn103   2.004   .     S
O97    Zn104   2.004   .     S
O98    Zn103   1.955   .     S
O99    Zn104   1.955   .     S
O100   Zn103   1.955   .     S
O101   Zn104   1.955   .     S
C105   C108    1.423   .     S
C105   O149    1.290   .     A
C105   O143    1.286   .     A
C106   C108    1.399   .     A
C106   H135    1.084   .     S
C107   C123    1.399   .     A
C107   C124    1.394   .     A
C107   C116    1.423   .     S
C108   C122    1.394   .     A
C109   N142    1.369   .     A
C109   O154    1.387   .     S
C109   C424    1.440   1_545 S
C110   N141    1.369   .     A
C110   O144    1.380   .     S
C110   C267    1.440   .     S
C111   N142    1.369   .     A
C111   O145    1.387   .     S
C111   C422    1.440   1_545 S
C112   O146    1.380   .     S
C112   N141    1.369   .     A
C112   C265    1.440   .     S
C113   H136    1.109   .     S
C113   H137    1.115   .     S
C113   H138    1.108   .     S
C113   O154    1.413   .     S
C114   H126    1.110   .     S
C114   H139    1.109   .     S
C114   O144    1.410   .     S
C114   H140    1.114   .     S
C115   H128    1.115   .     S
C115   H127    1.109   .     S
C115   O145    1.413   .     S
C115   H129    1.108   .     S
C116   O147    1.290   .     A
C116   O148    1.286   .     A
C117   H132    1.110   .     S
C117   O146    1.410   .     S
C117   H130    1.109   .     S
C117   H131    1.114   .     S
C118   O150    1.281   .     A
C118   C120    1.370   .     S
C118   O153    1.281   .     A
C119   O151    1.281   .     A
C119   O152    1.281   .     A
C119   C121    1.370   .     S
C120   C1057   1.168   1_554 S
C121   C588    1.168   .     S
C122   H125    1.079   .     S
C123   H133    1.084   .     S
C123   C2      1.372   1_655 S
C124   H134    1.079   .     S
C124   C18     1.367   1_655 S
N141   Zn155   2.019   .     S
N142   Zn156   2.019   .     S
O143   Zn155   2.004   .     S
O147   Zn156   2.004   .     S
O148   Zn155   2.004   .     S
O149   Zn156   2.004   .     S
O150   Zn155   1.955   .     S
O151   Zn156   1.955   .     S
O152   Zn155   1.955   .     S
O153   Zn156   1.955   .     S
C157   C160    1.423   .     S
C157   O201    1.290   .     A
C157   O195    1.286   .     A
C158   C160    1.399   .     A
C158   H187    1.084   .     S
C158   C279    1.372   1_455 S
C159   C175    1.399   .     A
C159   C176    1.394   .     A
C159   C168    1.423   .     S
C160   C174    1.394   .     A
C161   N194    1.369   .     A
C161   O206    1.387   .     S
C162   N193    1.369   .     A
C162   O196    1.380   .     S
C162   C319    1.440   .     S
C163   N194    1.369   .     A
C163   O197    1.387   .     S
C164   O198    1.380   .     S
C164   N193    1.369   .     A
C164   C317    1.440   .     S
C165   H188    1.109   .     S
C165   H189    1.115   .     S
C165   H190    1.108   .     S
C165   O206    1.413   .     S
C166   H178    1.110   .     S
C166   H191    1.109   .     S
C166   O196    1.410   .     S
C166   H192    1.114   .     S
C167   H180    1.115   .     S
C167   H179    1.109   .     S
C167   O197    1.413   .     S
C167   H181    1.108   .     S
C168   O199    1.290   .     A
C168   O200    1.286   .     A
C169   H184    1.110   .     S
C169   O198    1.410   .     S
C169   H182    1.109   .     S
C169   H183    1.114   .     S
C170   O202    1.281   .     A
C170   C172    1.370   .     S
C170   O205    1.281   .     A
C171   O203    1.281   .     A
C171   O204    1.281   .     A
C171   C173    1.370   .     S
C172   C1109   1.168   1_554 S
C173   C640    1.168   .     S
C174   H177    1.079   .     S
C174   C280    1.367   1_455 S
C175   H185    1.084   .     S
C175   C210    1.372   .     S
C176   H186    1.079   .     S
C176   C226    1.367   .     S
N193   Zn207   2.019   .     S
N194   Zn208   2.019   .     S
O195   Zn207   2.004   .     S
O199   Zn208   2.004   .     S
O200   Zn207   2.004   .     S
O201   Zn208   2.004   .     S
O202   Zn207   1.955   .     S
O203   Zn208   1.955   .     S
O204   Zn207   1.955   .     S
O205   Zn208   1.955   .     S
C209   C212    1.423   .     S
C209   O253    1.290   .     A
C209   O247    1.286   .     A
C210   C212    1.399   .     A
C210   H239    1.084   .     S
C211   C227    1.399   .     A
C211   C228    1.394   .     A
C211   C220    1.423   .     S
C212   C226    1.394   .     A
C213   N246    1.369   .     A
C213   O258    1.387   .     S
C214   N245    1.369   .     A
C214   O248    1.380   .     S
C214   C371    1.440   .     S
C215   N246    1.369   .     A
C215   O249    1.387   .     S
C216   O250    1.380   .     S
C216   N245    1.369   .     A
C216   C369    1.440   .     S
C217   H240    1.109   .     S
C217   H241    1.115   .     S
C217   H242    1.108   .     S
C217   O258    1.413   .     S
C218   H230    1.110   .     S
C218   H243    1.109   .     S
C218   O248    1.410   .     S
C218   H244    1.114   .     S
C219   H232    1.115   .     S
C219   H231    1.109   .     S
C219   O249    1.413   .     S
C219   H233    1.108   .     S
C220   O251    1.290   .     A
C220   O252    1.286   .     A
C221   H236    1.110   .     S
C221   O250    1.410   .     S
C221   H234    1.109   .     S
C221   H235    1.114   .     S
C222   O254    1.281   .     A
C222   C224    1.370   .     S
C222   O257    1.281   .     A
C223   O255    1.281   .     A
C223   O256    1.281   .     A
C223   C225    1.370   .     S
C224   C1161   1.168   1_554 S
C225   C692    1.168   .     S
C226   H229    1.079   .     S
C227   H237    1.084   .     S
C227   C262    1.372   .     S
C228   H238    1.079   .     S
C228   C278    1.367   .     S
N245   Zn259   2.019   .     S
N246   Zn260   2.019   .     S
O247   Zn259   2.004   .     S
O251   Zn260   2.004   .     S
O252   Zn259   2.004   .     S
O253   Zn260   2.004   .     S
O254   Zn259   1.955   .     S
O255   Zn260   1.955   .     S
O256   Zn259   1.955   .     S
O257   Zn260   1.955   .     S
C261   C264    1.423   .     S
C261   O305    1.290   .     A
C261   O299    1.286   .     A
C262   C264    1.399   .     A
C262   H291    1.084   .     S
C263   C279    1.399   .     A
C263   C280    1.394   .     A
C263   C272    1.423   .     S
C264   C278    1.394   .     A
C265   N298    1.369   .     A
C265   O310    1.387   .     S
C266   N297    1.369   .     A
C266   O300    1.380   .     S
C266   C423    1.440   .     S
C267   N298    1.369   .     A
C267   O301    1.387   .     S
C268   O302    1.380   .     S
C268   N297    1.369   .     A
C268   C421    1.440   .     S
C269   H292    1.109   .     S
C269   H293    1.115   .     S
C269   H294    1.108   .     S
C269   O310    1.413   .     S
C270   H282    1.110   .     S
C270   H295    1.109   .     S
C270   O300    1.410   .     S
C270   H296    1.114   .     S
C271   H284    1.115   .     S
C271   H283    1.109   .     S
C271   O301    1.413   .     S
C271   H285    1.108   .     S
C272   O303    1.290   .     A
C272   O304    1.286   .     A
C273   H288    1.110   .     S
C273   O302    1.410   .     S
C273   H286    1.109   .     S
C273   H287    1.114   .     S
C274   O306    1.281   .     A
C274   C276    1.370   .     S
C274   O309    1.281   .     A
C275   O307    1.281   .     A
C275   O308    1.281   .     A
C275   C277    1.370   .     S
C276   C1213   1.168   1_554 S
C277   C744    1.168   .     S
C278   H281    1.079   .     S
C279   H289    1.084   .     S
C279   C158    1.372   1_655 S
C280   H290    1.079   .     S
C280   C174    1.367   1_655 S
N297   Zn311   2.019   .     S
N298   Zn312   2.019   .     S
O299   Zn311   2.004   .     S
O303   Zn312   2.004   .     S
O304   Zn311   2.004   .     S
O305   Zn312   2.004   .     S
O306   Zn311   1.955   .     S
O307   Zn312   1.955   .     S
O308   Zn311   1.955   .     S
O309   Zn312   1.955   .     S
C313   C316    1.423   .     S
C313   O357    1.290   .     A
C313   O351    1.286   .     A
C314   C316    1.399   .     A
C314   H343    1.084   .     S
C314   C435    1.372   1_455 S
C315   C331    1.399   .     A
C315   C332    1.394   .     A
C315   C324    1.423   .     S
C316   C330    1.394   .     A
C317   N350    1.369   .     A
C317   O362    1.387   .     S
C318   N349    1.369   .     A
C318   O352    1.380   .     S
C318   C7      1.440   1_565 S
C319   N350    1.369   .     A
C319   O353    1.387   .     S
C320   O354    1.380   .     S
C320   N349    1.369   .     A
C320   C5      1.440   1_565 S
C321   H344    1.109   .     S
C321   H345    1.115   .     S
C321   H346    1.108   .     S
C321   O362    1.413   .     S
C322   H334    1.110   .     S
C322   H347    1.109   .     S
C322   O352    1.410   .     S
C322   H348    1.114   .     S
C323   H336    1.115   .     S
C323   H335    1.109   .     S
C323   O353    1.413   .     S
C323   H337    1.108   .     S
C324   O355    1.290   .     A
C324   O356    1.286   .     A
C325   H340    1.110   .     S
C325   O354    1.410   .     S
C325   H338    1.109   .     S
C325   H339    1.114   .     S
C326   O358    1.281   .     A
C326   C328    1.370   .     S
C326   O361    1.281   .     A
C327   O359    1.281   .     A
C327   O360    1.281   .     A
C327   C329    1.370   .     S
C328   C1265   1.168   1_554 S
C329   C796    1.168   .     S
C330   H333    1.079   .     S
C330   C436    1.367   1_455 S
C331   H341    1.084   .     S
C331   C366    1.372   .     S
C332   H342    1.079   .     S
C332   C382    1.367   .     S
N349   Zn363   2.019   .     S
N350   Zn364   2.019   .     S
O351   Zn363   2.004   .     S
O355   Zn364   2.004   .     S
O356   Zn363   2.004   .     S
O357   Zn364   2.004   .     S
O358   Zn363   1.955   .     S
O359   Zn364   1.955   .     S
O360   Zn363   1.955   .     S
O361   Zn364   1.955   .     S
C365   C368    1.423   .     S
C365   O409    1.290   .     A
C365   O403    1.286   .     A
C366   C368    1.399   .     A
C366   H395    1.084   .     S
C367   C383    1.399   .     A
C367   C384    1.394   .     A
C367   C376    1.423   .     S
C368   C382    1.394   .     A
C369   N402    1.369   .     A
C369   O414    1.387   .     S
C370   N401    1.369   .     A
C370   O404    1.380   .     S
C370   C59     1.440   1_565 S
C371   N402    1.369   .     A
C371   O405    1.387   .     S
C372   O406    1.380   .     S
C372   N401    1.369   .     A
C372   C57     1.440   1_565 S
C373   H396    1.109   .     S
C373   H397    1.115   .     S
C373   H398    1.108   .     S
C373   O414    1.413   .     S
C374   H386    1.110   .     S
C374   H399    1.109   .     S
C374   O404    1.410   .     S
C374   H400    1.114   .     S
C375   H388    1.115   .     S
C375   H387    1.109   .     S
C375   O405    1.413   .     S
C375   H389    1.108   .     S
C376   O407    1.290   .     A
C376   O408    1.286   .     A
C377   H392    1.110   .     S
C377   O406    1.410   .     S
C377   H390    1.109   .     S
C377   H391    1.114   .     S
C378   O410    1.281   .     A
C378   C380    1.370   .     S
C378   O413    1.281   .     A
C379   O411    1.281   .     A
C379   O412    1.281   .     A
C379   C381    1.370   .     S
C380   C1317   1.168   1_554 S
C381   C848    1.168   .     S
C382   H385    1.079   .     S
C383   H393    1.084   .     S
C383   C418    1.372   .     S
C384   H394    1.079   .     S
C384   C434    1.367   .     S
N401   Zn415   2.019   .     S
N402   Zn416   2.019   .     S
O403   Zn415   2.004   .     S
O407   Zn416   2.004   .     S
O408   Zn415   2.004   .     S
O409   Zn416   2.004   .     S
O410   Zn415   1.955   .     S
O411   Zn416   1.955   .     S
O412   Zn415   1.955   .     S
O413   Zn416   1.955   .     S
C417   C420    1.423   .     S
C417   O461    1.290   .     A
C417   O455    1.286   .     A
C418   C420    1.399   .     A
C418   H447    1.084   .     S
C419   C435    1.399   .     A
C419   C436    1.394   .     A
C419   C428    1.423   .     S
C420   C434    1.394   .     A
C421   N454    1.369   .     A
C421   O466    1.387   .     S
C422   N453    1.369   .     A
C422   O456    1.380   .     S
C422   C111    1.440   1_565 S
C423   N454    1.369   .     A
C423   O457    1.387   .     S
C424   O458    1.380   .     S
C424   N453    1.369   .     A
C424   C109    1.440   1_565 S
C425   H448    1.109   .     S
C425   H449    1.115   .     S
C425   H450    1.108   .     S
C425   O466    1.413   .     S
C426   H438    1.110   .     S
C426   H451    1.109   .     S
C426   O456    1.410   .     S
C426   H452    1.114   .     S
C427   H440    1.115   .     S
C427   H439    1.109   .     S
C427   O457    1.413   .     S
C427   H441    1.108   .     S
C428   O459    1.290   .     A
C428   O460    1.286   .     A
C429   H444    1.110   .     S
C429   O458    1.410   .     S
C429   H442    1.109   .     S
C429   H443    1.114   .     S
C430   O462    1.281   .     A
C430   C432    1.370   .     S
C430   O465    1.281   .     A
C431   O463    1.281   .     A
C431   O464    1.281   .     A
C431   C433    1.370   .     S
C432   C1369   1.168   1_554 S
C433   C900    1.168   .     S
C434   H437    1.079   .     S
C435   H445    1.084   .     S
C435   C314    1.372   1_655 S
C436   H446    1.079   .     S
C436   C330    1.367   1_655 S
N453   Zn467   2.019   .     S
N454   Zn468   2.019   .     S
O455   Zn467   2.004   .     S
O459   Zn468   2.004   .     S
O460   Zn467   2.004   .     S
O461   Zn468   2.004   .     S
O462   Zn467   1.955   .     S
O463   Zn468   1.955   .     S
O464   Zn467   1.955   .     S
O465   Zn468   1.955   .     S
C469   C472    1.423   .     S
C469   O513    1.290   .     A
C469   O507    1.286   .     A
C470   C472    1.399   .     A
C470   H499    1.084   .     S
C470   C591    1.372   1_455 S
C471   C487    1.399   .     A
C471   C488    1.394   .     A
C471   C480    1.423   .     S
C472   C486    1.394   .     A
C473   N506    1.369   .     A
C473   O518    1.387   .     S
C473   C788    1.440   1_545 S
C474   N505    1.369   .     A
C474   O508    1.380   .     S
C474   C631    1.440   .     S
C475   N506    1.369   .     A
C475   O509    1.387   .     S
C475   C786    1.440   1_545 S
C476   O510    1.380   .     S
C476   N505    1.369   .     A
C476   C629    1.440   .     S
C477   H500    1.109   .     S
C477   H501    1.115   .     S
C477   H502    1.108   .     S
C477   O518    1.413   .     S
C478   H490    1.110   .     S
C478   H503    1.109   .     S
C478   O508    1.410   .     S
C478   H504    1.114   .     S
C479   H492    1.115   .     S
C479   H491    1.109   .     S
C479   O509    1.413   .     S
C479   H493    1.108   .     S
C480   O511    1.290   .     A
C480   O512    1.286   .     A
C481   H496    1.110   .     S
C481   O510    1.410   .     S
C481   H494    1.109   .     S
C481   H495    1.114   .     S
C482   O514    1.281   .     A
C482   C484    1.370   .     S
C482   O517    1.281   .     A
C483   O515    1.281   .     A
C483   O516    1.281   .     A
C483   C485    1.370   .     S
C485   C952    1.168   .     S
C486   H489    1.079   .     S
C486   C592    1.367   1_455 S
C487   H497    1.084   .     S
C487   C522    1.372   .     S
C488   H498    1.079   .     S
C488   C538    1.367   .     S
N505   Zn519   2.019   .     S
N506   Zn520   2.019   .     S
O507   Zn519   2.004   .     S
O511   Zn520   2.004   .     S
O512   Zn519   2.004   .     S
O513   Zn520   2.004   .     S
O514   Zn519   1.955   .     S
O515   Zn520   1.955   .     S
O516   Zn519   1.955   .     S
O517   Zn520   1.955   .     S
C521   C524    1.423   .     S
C521   O565    1.290   .     A
C521   O559    1.286   .     A
C522   C524    1.399   .     A
C522   H551    1.084   .     S
C523   C539    1.399   .     A
C523   C540    1.394   .     A
C523   C532    1.423   .     S
C524   C538    1.394   .     A
C525   N558    1.369   .     A
C525   O570    1.387   .     S
C525   C840    1.440   1_545 S
C526   N557    1.369   .     A
C526   O560    1.380   .     S
C526   C683    1.440   .     S
C527   N558    1.369   .     A
C527   O561    1.387   .     S
C527   C838    1.440   1_545 S
C528   O562    1.380   .     S
C528   N557    1.369   .     A
C528   C681    1.440   .     S
C529   H552    1.109   .     S
C529   H553    1.115   .     S
C529   H554    1.108   .     S
C529   O570    1.413   .     S
C530   H542    1.110   .     S
C530   H555    1.109   .     S
C530   O560    1.410   .     S
C530   H556    1.114   .     S
C531   H544    1.115   .     S
C531   H543    1.109   .     S
C531   O561    1.413   .     S
C531   H545    1.108   .     S
C532   O563    1.290   .     A
C532   O564    1.286   .     A
C533   H548    1.110   .     S
C533   O562    1.410   .     S
C533   H546    1.109   .     S
C533   H547    1.114   .     S
C534   O566    1.281   .     A
C534   C536    1.370   .     S
C534   O569    1.281   .     A
C535   O567    1.281   .     A
C535   O568    1.281   .     A
C535   C537    1.370   .     S
C537   C1004   1.168   .     S
C538   H541    1.079   .     S
C539   H549    1.084   .     S
C539   C574    1.372   .     S
C540   H550    1.079   .     S
C540   C590    1.367   .     S
N557   Zn571   2.019   .     S
N558   Zn572   2.019   .     S
O559   Zn571   2.004   .     S
O563   Zn572   2.004   .     S
O564   Zn571   2.004   .     S
O565   Zn572   2.004   .     S
O566   Zn571   1.955   .     S
O567   Zn572   1.955   .     S
O568   Zn571   1.955   .     S
O569   Zn572   1.955   .     S
C573   C576    1.423   .     S
C573   O617    1.290   .     A
C573   O611    1.286   .     A
C574   C576    1.399   .     A
C574   H603    1.084   .     S
C575   C591    1.399   .     A
C575   C592    1.394   .     A
C575   C584    1.423   .     S
C576   C590    1.394   .     A
C577   N610    1.369   .     A
C577   O622    1.387   .     S
C577   C892    1.440   1_545 S
C578   N609    1.369   .     A
C578   O612    1.380   .     S
C578   C735    1.440   .     S
C579   N610    1.369   .     A
C579   O613    1.387   .     S
C579   C890    1.440   1_545 S
C580   O614    1.380   .     S
C580   N609    1.369   .     A
C580   C733    1.440   .     S
C581   H604    1.109   .     S
C581   H605    1.115   .     S
C581   H606    1.108   .     S
C581   O622    1.413   .     S
C582   H594    1.110   .     S
C582   H607    1.109   .     S
C582   O612    1.410   .     S
C582   H608    1.114   .     S
C583   H596    1.115   .     S
C583   H595    1.109   .     S
C583   O613    1.413   .     S
C583   H597    1.108   .     S
C584   O615    1.290   .     A
C584   O616    1.286   .     A
C585   H600    1.110   .     S
C585   O614    1.410   .     S
C585   H598    1.109   .     S
C585   H599    1.114   .     S
C586   O618    1.281   .     A
C586   C588    1.370   .     S
C586   O621    1.281   .     A
C587   O619    1.281   .     A
C587   O620    1.281   .     A
C587   C589    1.370   .     S
C589   C1056   1.168   .     S
C590   H593    1.079   .     S
C591   H601    1.084   .     S
C591   C470    1.372   1_655 S
C592   H602    1.079   .     S
C592   C486    1.367   1_655 S
N609   Zn623   2.019   .     S
N610   Zn624   2.019   .     S
O611   Zn623   2.004   .     S
O615   Zn624   2.004   .     S
O616   Zn623   2.004   .     S
O617   Zn624   2.004   .     S
O618   Zn623   1.955   .     S
O619   Zn624   1.955   .     S
O620   Zn623   1.955   .     S
O621   Zn624   1.955   .     S
C625   C628    1.423   .     S
C625   O669    1.290   .     A
C625   O663    1.286   .     A
C626   C628    1.399   .     A
C626   H655    1.084   .     S
C626   C747    1.372   1_455 S
C627   C643    1.399   .     A
C627   C644    1.394   .     A
C627   C636    1.423   .     S
C628   C642    1.394   .     A
C629   N662    1.369   .     A
C629   O674    1.387   .     S
C630   N661    1.369   .     A
C630   O664    1.380   .     S
C630   C787    1.440   .     S
C631   N662    1.369   .     A
C631   O665    1.387   .     S
C632   O666    1.380   .     S
C632   N661    1.369   .     A
C632   C785    1.440   .     S
C633   H656    1.109   .     S
C633   H657    1.115   .     S
C633   H658    1.108   .     S
C633   O674    1.413   .     S
C634   H646    1.110   .     S
C634   H659    1.109   .     S
C634   O664    1.410   .     S
C634   H660    1.114   .     S
C635   H648    1.115   .     S
C635   H647    1.109   .     S
C635   O665    1.413   .     S
C635   H649    1.108   .     S
C636   O667    1.290   .     A
C636   O668    1.286   .     A
C637   H652    1.110   .     S
C637   O666    1.410   .     S
C637   H650    1.109   .     S
C637   H651    1.114   .     S
C638   O670    1.281   .     A
C638   C640    1.370   .     S
C638   O673    1.281   .     A
C639   O671    1.281   .     A
C639   O672    1.281   .     A
C639   C641    1.370   .     S
C641   C1108   1.168   .     S
C642   H645    1.079   .     S
C642   C748    1.367   1_455 S
C643   H653    1.084   .     S
C643   C678    1.372   .     S
C644   H654    1.079   .     S
C644   C694    1.367   .     S
N661   Zn675   2.019   .     S
N662   Zn676   2.019   .     S
O663   Zn675   2.004   .     S
O667   Zn676   2.004   .     S
O668   Zn675   2.004   .     S
O669   Zn676   2.004   .     S
O670   Zn675   1.955   .     S
O671   Zn676   1.955   .     S
O672   Zn675   1.955   .     S
O673   Zn676   1.955   .     S
C677   C680    1.423   .     S
C677   O721    1.290   .     A
C677   O715    1.286   .     A
C678   C680    1.399   .     A
C678   H707    1.084   .     S
C679   C695    1.399   .     A
C679   C696    1.394   .     A
C679   C688    1.423   .     S
C680   C694    1.394   .     A
C681   N714    1.369   .     A
C681   O726    1.387   .     S
C682   N713    1.369   .     A
C682   O716    1.380   .     S
C682   C839    1.440   .     S
C683   N714    1.369   .     A
C683   O717    1.387   .     S
C684   O718    1.380   .     S
C684   N713    1.369   .     A
C684   C837    1.440   .     S
C685   H708    1.109   .     S
C685   H709    1.115   .     S
C685   H710    1.108   .     S
C685   O726    1.413   .     S
C686   H698    1.110   .     S
C686   H711    1.109   .     S
C686   O716    1.410   .     S
C686   H712    1.114   .     S
C687   H700    1.115   .     S
C687   H699    1.109   .     S
C687   O717    1.413   .     S
C687   H701    1.108   .     S
C688   O719    1.290   .     A
C688   O720    1.286   .     A
C689   H704    1.110   .     S
C689   O718    1.410   .     S
C689   H702    1.109   .     S
C689   H703    1.114   .     S
C690   O722    1.281   .     A
C690   C692    1.370   .     S
C690   O725    1.281   .     A
C691   O723    1.281   .     A
C691   O724    1.281   .     A
C691   C693    1.370   .     S
C693   C1160   1.168   .     S
C694   H697    1.079   .     S
C695   H705    1.084   .     S
C695   C730    1.372   .     S
C696   H706    1.079   .     S
C696   C746    1.367   .     S
N713   Zn727   2.019   .     S
N714   Zn728   2.019   .     S
O715   Zn727   2.004   .     S
O719   Zn728   2.004   .     S
O720   Zn727   2.004   .     S
O721   Zn728   2.004   .     S
O722   Zn727   1.955   .     S
O723   Zn728   1.955   .     S
O724   Zn727   1.955   .     S
O725   Zn728   1.955   .     S
C729   C732    1.423   .     S
C729   O773    1.290   .     A
C729   O767    1.286   .     A
C730   C732    1.399   .     A
C730   H759    1.084   .     S
C731   C747    1.399   .     A
C731   C748    1.394   .     A
C731   C740    1.423   .     S
C732   C746    1.394   .     A
C733   N766    1.369   .     A
C733   O778    1.387   .     S
C734   N765    1.369   .     A
C734   O768    1.380   .     S
C734   C891    1.440   .     S
C735   N766    1.369   .     A
C735   O769    1.387   .     S
C736   O770    1.380   .     S
C736   N765    1.369   .     A
C736   C889    1.440   .     S
C737   H760    1.109   .     S
C737   H761    1.115   .     S
C737   H762    1.108   .     S
C737   O778    1.413   .     S
C738   H750    1.110   .     S
C738   H763    1.109   .     S
C738   O768    1.410   .     S
C738   H764    1.114   .     S
C739   H752    1.115   .     S
C739   H751    1.109   .     S
C739   O769    1.413   .     S
C739   H753    1.108   .     S
C740   O771    1.290   .     A
C740   O772    1.286   .     A
C741   H756    1.110   .     S
C741   O770    1.410   .     S
C741   H754    1.109   .     S
C741   H755    1.114   .     S
C742   O774    1.281   .     A
C742   C744    1.370   .     S
C742   O777    1.281   .     A
C743   O775    1.281   .     A
C743   O776    1.281   .     A
C743   C745    1.370   .     S
C745   C1212   1.168   .     S
C746   H749    1.079   .     S
C747   H757    1.084   .     S
C747   C626    1.372   1_655 S
C748   H758    1.079   .     S
C748   C642    1.367   1_655 S
N765   Zn779   2.019   .     S
N766   Zn780   2.019   .     S
O767   Zn779   2.004   .     S
O771   Zn780   2.004   .     S
O772   Zn779   2.004   .     S
O773   Zn780   2.004   .     S
O774   Zn779   1.955   .     S
O775   Zn780   1.955   .     S
O776   Zn779   1.955   .     S
O777   Zn780   1.955   .     S
C781   C784    1.423   .     S
C781   O825    1.290   .     A
C781   O819    1.286   .     A
C782   C784    1.399   .     A
C782   H811    1.084   .     S
C782   C903    1.372   1_455 S
C783   C799    1.399   .     A
C783   C800    1.394   .     A
C783   C792    1.423   .     S
C784   C798    1.394   .     A
C785   N818    1.369   .     A
C785   O830    1.387   .     S
C786   N817    1.369   .     A
C786   O820    1.380   .     S
C786   C475    1.440   1_565 S
C787   N818    1.369   .     A
C787   O821    1.387   .     S
C788   O822    1.380   .     S
C788   N817    1.369   .     A
C788   C473    1.440   1_565 S
C789   H812    1.109   .     S
C789   H813    1.115   .     S
C789   H814    1.108   .     S
C789   O830    1.413   .     S
C790   H802    1.110   .     S
C790   H815    1.109   .     S
C790   O820    1.410   .     S
C790   H816    1.114   .     S
C791   H804    1.115   .     S
C791   H803    1.109   .     S
C791   O821    1.413   .     S
C791   H805    1.108   .     S
C792   O823    1.290   .     A
C792   O824    1.286   .     A
C793   H808    1.110   .     S
C793   O822    1.410   .     S
C793   H806    1.109   .     S
C793   H807    1.114   .     S
C794   O826    1.281   .     A
C794   C796    1.370   .     S
C794   O829    1.281   .     A
C795   O827    1.281   .     A
C795   O828    1.281   .     A
C795   C797    1.370   .     S
C797   C1264   1.168   .     S
C798   H801    1.079   .     S
C798   C904    1.367   1_455 S
C799   H809    1.084   .     S
C799   C834    1.372   .     S
C800   H810    1.079   .     S
C800   C850    1.367   .     S
N817   Zn831   2.019   .     S
N818   Zn832   2.019   .     S
O819   Zn831   2.004   .     S
O823   Zn832   2.004   .     S
O824   Zn831   2.004   .     S
O825   Zn832   2.004   .     S
O826   Zn831   1.955   .     S
O827   Zn832   1.955   .     S
O828   Zn831   1.955   .     S
O829   Zn832   1.955   .     S
C833   C836    1.423   .     S
C833   O877    1.290   .     A
C833   O871    1.286   .     A
C834   C836    1.399   .     A
C834   H863    1.084   .     S
C835   C851    1.399   .     A
C835   C852    1.394   .     A
C835   C844    1.423   .     S
C836   C850    1.394   .     A
C837   N870    1.369   .     A
C837   O882    1.387   .     S
C838   N869    1.369   .     A
C838   O872    1.380   .     S
C838   C527    1.440   1_565 S
C839   N870    1.369   .     A
C839   O873    1.387   .     S
C840   O874    1.380   .     S
C840   N869    1.369   .     A
C840   C525    1.440   1_565 S
C841   H864    1.109   .     S
C841   H865    1.115   .     S
C841   H866    1.108   .     S
C841   O882    1.413   .     S
C842   H854    1.110   .     S
C842   H867    1.109   .     S
C842   O872    1.410   .     S
C842   H868    1.114   .     S
C843   H856    1.115   .     S
C843   H855    1.109   .     S
C843   O873    1.413   .     S
C843   H857    1.108   .     S
C844   O875    1.290   .     A
C844   O876    1.286   .     A
C845   H860    1.110   .     S
C845   O874    1.410   .     S
C845   H858    1.109   .     S
C845   H859    1.114   .     S
C846   O878    1.281   .     A
C846   C848    1.370   .     S
C846   O881    1.281   .     A
C847   O879    1.281   .     A
C847   O880    1.281   .     A
C847   C849    1.370   .     S
C849   C1316   1.168   .     S
C850   H853    1.079   .     S
C851   H861    1.084   .     S
C851   C886    1.372   .     S
C852   H862    1.079   .     S
C852   C902    1.367   .     S
N869   Zn883   2.019   .     S
N870   Zn884   2.019   .     S
O871   Zn883   2.004   .     S
O875   Zn884   2.004   .     S
O876   Zn883   2.004   .     S
O877   Zn884   2.004   .     S
O878   Zn883   1.955   .     S
O879   Zn884   1.955   .     S
O880   Zn883   1.955   .     S
O881   Zn884   1.955   .     S
C885   C888    1.423   .     S
C885   O929    1.290   .     A
C885   O923    1.286   .     A
C886   C888    1.399   .     A
C886   H915    1.084   .     S
C887   C903    1.399   .     A
C887   C904    1.394   .     A
C887   C896    1.423   .     S
C888   C902    1.394   .     A
C889   N922    1.369   .     A
C889   O934    1.387   .     S
C890   N921    1.369   .     A
C890   O924    1.380   .     S
C890   C579    1.440   1_565 S
C891   N922    1.369   .     A
C891   O925    1.387   .     S
C892   O926    1.380   .     S
C892   N921    1.369   .     A
C892   C577    1.440   1_565 S
C893   H916    1.109   .     S
C893   H917    1.115   .     S
C893   H918    1.108   .     S
C893   O934    1.413   .     S
C894   H906    1.110   .     S
C894   H919    1.109   .     S
C894   O924    1.410   .     S
C894   H920    1.114   .     S
C895   H908    1.115   .     S
C895   H907    1.109   .     S
C895   O925    1.413   .     S
C895   H909    1.108   .     S
C896   O927    1.290   .     A
C896   O928    1.286   .     A
C897   H912    1.110   .     S
C897   O926    1.410   .     S
C897   H910    1.109   .     S
C897   H911    1.114   .     S
C898   O930    1.281   .     A
C898   C900    1.370   .     S
C898   O933    1.281   .     A
C899   O931    1.281   .     A
C899   O932    1.281   .     A
C899   C901    1.370   .     S
C901   C1368   1.168   .     S
C902   H905    1.079   .     S
C903   H913    1.084   .     S
C903   C782    1.372   1_655 S
C904   H914    1.079   .     S
C904   C798    1.367   1_655 S
N921   Zn935   2.019   .     S
N922   Zn936   2.019   .     S
O923   Zn935   2.004   .     S
O927   Zn936   2.004   .     S
O928   Zn935   2.004   .     S
O929   Zn936   2.004   .     S
O930   Zn935   1.955   .     S
O931   Zn936   1.955   .     S
O932   Zn935   1.955   .     S
O933   Zn936   1.955   .     S
C937   C940    1.423   .     S
C937   O981    1.290   .     A
C937   O975    1.286   .     A
C938   C940    1.399   .     A
C938   H967    1.084   .     S
C938   C1059   1.372   1_455 S
C939   C955    1.399   .     A
C939   C956    1.394   .     A
C939   C948    1.423   .     S
C940   C954    1.394   .     A
C941   N974    1.369   .     A
C941   O986    1.387   .     S
C941   C1256   1.440   1_545 S
C942   N973    1.369   .     A
C942   O976    1.380   .     S
C942   C1099   1.440   .     S
C943   N974    1.369   .     A
C943   O977    1.387   .     S
C943   C1254   1.440   1_545 S
C944   O978    1.380   .     S
C944   N973    1.369   .     A
C944   C1097   1.440   .     S
C945   H968    1.109   .     S
C945   H969    1.115   .     S
C945   H970    1.108   .     S
C945   O986    1.413   .     S
C946   H958    1.110   .     S
C946   H971    1.109   .     S
C946   O976    1.410   .     S
C946   H972    1.114   .     S
C947   H960    1.115   .     S
C947   H959    1.109   .     S
C947   O977    1.413   .     S
C947   H961    1.108   .     S
C948   O979    1.290   .     A
C948   O980    1.286   .     A
C949   H964    1.110   .     S
C949   O978    1.410   .     S
C949   H962    1.109   .     S
C949   H963    1.114   .     S
C950   O982    1.281   .     A
C950   C952    1.370   .     S
C950   O985    1.281   .     A
C951   O983    1.281   .     A
C951   O984    1.281   .     A
C951   C953    1.370   .     S
C953   C16     1.168   1_556 S
C954   H957    1.079   .     S
C954   C1060   1.367   1_455 S
C955   H965    1.084   .     S
C955   C990    1.372   .     S
C956   H966    1.079   .     S
C956   C1006   1.367   .     S
N973   Zn987   2.019   .     S
N974   Zn988   2.019   .     S
O975   Zn987   2.004   .     S
O979   Zn988   2.004   .     S
O980   Zn987   2.004   .     S
O981   Zn988   2.004   .     S
O982   Zn987   1.955   .     S
O983   Zn988   1.955   .     S
O984   Zn987   1.955   .     S
O985   Zn988   1.955   .     S
C989   C992    1.423   .     S
C989   O1033   1.290   .     A
C989   O1027   1.286   .     A
C990   C992    1.399   .     A
C990   H1019   1.084   .     S
C991   C1007   1.399   .     A
C991   C1008   1.394   .     A
C991   C1000   1.423   .     S
C992   C1006   1.394   .     A
C993   N1026   1.369   .     A
C993   O1038   1.387   .     S
C993   C1308   1.440   1_545 S
C994   N1025   1.369   .     A
C994   O1028   1.380   .     S
C994   C1151   1.440   .     S
C995   N1026   1.369   .     A
C995   O1029   1.387   .     S
C995   C1306   1.440   1_545 S
C996   O1030   1.380   .     S
C996   N1025   1.369   .     A
C996   C1149   1.440   .     S
C997   H1020   1.109   .     S
C997   H1021   1.115   .     S
C997   H1022   1.108   .     S
C997   O1038   1.413   .     S
C998   H1010   1.110   .     S
C998   H1023   1.109   .     S
C998   O1028   1.410   .     S
C998   H1024   1.114   .     S
C999   H1012   1.115   .     S
C999   H1011   1.109   .     S
C999   O1029   1.413   .     S
C999   H1013   1.108   .     S
C1000  O1031   1.290   .     A
C1000  O1032   1.286   .     A
C1001  H1016   1.110   .     S
C1001  O1030   1.410   .     S
C1001  H1014   1.109   .     S
C1001  H1015   1.114   .     S
C1002  O1034   1.281   .     A
C1002  C1004   1.370   .     S
C1002  O1037   1.281   .     A
C1003  O1035   1.281   .     A
C1003  O1036   1.281   .     A
C1003  C1005   1.370   .     S
C1005  C68     1.168   1_556 S
C1006  H1009   1.079   .     S
C1007  H1017   1.084   .     S
C1007  C1042   1.372   .     S
C1008  H1018   1.079   .     S
C1008  C1058   1.367   .     S
N1025  Zn1039  2.019   .     S
N1026  Zn1040  2.019   .     S
O1027  Zn1039  2.004   .     S
O1031  Zn1040  2.004   .     S
O1032  Zn1039  2.004   .     S
O1033  Zn1040  2.004   .     S
O1034  Zn1039  1.955   .     S
O1035  Zn1040  1.955   .     S
O1036  Zn1039  1.955   .     S
O1037  Zn1040  1.955   .     S
C1041  C1044   1.423   .     S
C1041  O1085   1.290   .     A
C1041  O1079   1.286   .     A
C1042  C1044   1.399   .     A
C1042  H1071   1.084   .     S
C1043  C1059   1.399   .     A
C1043  C1060   1.394   .     A
C1043  C1052   1.423   .     S
C1044  C1058   1.394   .     A
C1045  N1078   1.369   .     A
C1045  O1090   1.387   .     S
C1045  C1360   1.440   1_545 S
C1046  N1077   1.369   .     A
C1046  O1080   1.380   .     S
C1046  C1203   1.440   .     S
C1047  N1078   1.369   .     A
C1047  O1081   1.387   .     S
C1047  C1358   1.440   1_545 S
C1048  O1082   1.380   .     S
C1048  N1077   1.369   .     A
C1048  C1201   1.440   .     S
C1049  H1072   1.109   .     S
C1049  H1073   1.115   .     S
C1049  H1074   1.108   .     S
C1049  O1090   1.413   .     S
C1050  H1062   1.110   .     S
C1050  H1075   1.109   .     S
C1050  O1080   1.410   .     S
C1050  H1076   1.114   .     S
C1051  H1064   1.115   .     S
C1051  H1063   1.109   .     S
C1051  O1081   1.413   .     S
C1051  H1065   1.108   .     S
C1052  O1083   1.290   .     A
C1052  O1084   1.286   .     A
C1053  H1068   1.110   .     S
C1053  O1082   1.410   .     S
C1053  H1066   1.109   .     S
C1053  H1067   1.114   .     S
C1054  O1086   1.281   .     A
C1054  C1056   1.370   .     S
C1054  O1089   1.281   .     A
C1055  O1087   1.281   .     A
C1055  O1088   1.281   .     A
C1055  C1057   1.370   .     S
C1057  C120    1.168   1_556 S
C1058  H1061   1.079   .     S
C1059  H1069   1.084   .     S
C1059  C938    1.372   1_655 S
C1060  H1070   1.079   .     S
C1060  C954    1.367   1_655 S
N1077  Zn1091  2.019   .     S
N1078  Zn1092  2.019   .     S
O1079  Zn1091  2.004   .     S
O1083  Zn1092  2.004   .     S
O1084  Zn1091  2.004   .     S
O1085  Zn1092  2.004   .     S
O1086  Zn1091  1.955   .     S
O1087  Zn1092  1.955   .     S
O1088  Zn1091  1.955   .     S
O1089  Zn1092  1.955   .     S
C1093  C1096   1.423   .     S
C1093  O1137   1.290   .     A
C1093  O1131   1.286   .     A
C1094  C1096   1.399   .     A
C1094  H1123   1.084   .     S
C1094  C1215   1.372   1_455 S
C1095  C1111   1.399   .     A
C1095  C1112   1.394   .     A
C1095  C1104   1.423   .     S
C1096  C1110   1.394   .     A
C1097  N1130   1.369   .     A
C1097  O1142   1.387   .     S
C1098  N1129   1.369   .     A
C1098  O1132   1.380   .     S
C1098  C1255   1.440   .     S
C1099  N1130   1.369   .     A
C1099  O1133   1.387   .     S
C1100  O1134   1.380   .     S
C1100  N1129   1.369   .     A
C1100  C1253   1.440   .     S
C1101  H1124   1.109   .     S
C1101  H1125   1.115   .     S
C1101  H1126   1.108   .     S
C1101  O1142   1.413   .     S
C1102  H1114   1.110   .     S
C1102  H1127   1.109   .     S
C1102  O1132   1.410   .     S
C1102  H1128   1.114   .     S
C1103  H1116   1.115   .     S
C1103  H1115   1.109   .     S
C1103  O1133   1.413   .     S
C1103  H1117   1.108   .     S
C1104  O1135   1.290   .     A
C1104  O1136   1.286   .     A
C1105  H1120   1.110   .     S
C1105  O1134   1.410   .     S
C1105  H1118   1.109   .     S
C1105  H1119   1.114   .     S
C1106  O1138   1.281   .     A
C1106  C1108   1.370   .     S
C1106  O1141   1.281   .     A
C1107  O1139   1.281   .     A
C1107  O1140   1.281   .     A
C1107  C1109   1.370   .     S
C1109  C172    1.168   1_556 S
C1110  H1113   1.079   .     S
C1110  C1216   1.367   1_455 S
C1111  H1121   1.084   .     S
C1111  C1146   1.372   .     S
C1112  H1122   1.079   .     S
C1112  C1162   1.367   .     S
N1129  Zn1143  2.019   .     S
N1130  Zn1144  2.019   .     S
O1131  Zn1143  2.004   .     S
O1135  Zn1144  2.004   .     S
O1136  Zn1143  2.004   .     S
O1137  Zn1144  2.004   .     S
O1138  Zn1143  1.955   .     S
O1139  Zn1144  1.955   .     S
O1140  Zn1143  1.955   .     S
O1141  Zn1144  1.955   .     S
C1145  C1148   1.423   .     S
C1145  O1189   1.290   .     A
C1145  O1183   1.286   .     A
C1146  C1148   1.399   .     A
C1146  H1175   1.084   .     S
C1147  C1163   1.399   .     A
C1147  C1164   1.394   .     A
C1147  C1156   1.423   .     S
C1148  C1162   1.394   .     A
C1149  N1182   1.369   .     A
C1149  O1194   1.387   .     S
C1150  N1181   1.369   .     A
C1150  O1184   1.380   .     S
C1150  C1307   1.440   .     S
C1151  N1182   1.369   .     A
C1151  O1185   1.387   .     S
C1152  O1186   1.380   .     S
C1152  N1181   1.369   .     A
C1152  C1305   1.440   .     S
C1153  H1176   1.109   .     S
C1153  H1177   1.115   .     S
C1153  H1178   1.108   .     S
C1153  O1194   1.413   .     S
C1154  H1166   1.110   .     S
C1154  H1179   1.109   .     S
C1154  O1184   1.410   .     S
C1154  H1180   1.114   .     S
C1155  H1168   1.115   .     S
C1155  H1167   1.109   .     S
C1155  O1185   1.413   .     S
C1155  H1169   1.108   .     S
C1156  O1187   1.290   .     A
C1156  O1188   1.286   .     A
C1157  H1172   1.110   .     S
C1157  O1186   1.410   .     S
C1157  H1170   1.109   .     S
C1157  H1171   1.114   .     S
C1158  O1190   1.281   .     A
C1158  C1160   1.370   .     S
C1158  O1193   1.281   .     A
C1159  O1191   1.281   .     A
C1159  O1192   1.281   .     A
C1159  C1161   1.370   .     S
C1161  C224    1.168   1_556 S
C1162  H1165   1.079   .     S
C1163  H1173   1.084   .     S
C1163  C1198   1.372   .     S
C1164  H1174   1.079   .     S
C1164  C1214   1.367   .     S
N1181  Zn1195  2.019   .     S
N1182  Zn1196  2.019   .     S
O1183  Zn1195  2.004   .     S
O1187  Zn1196  2.004   .     S
O1188  Zn1195  2.004   .     S
O1189  Zn1196  2.004   .     S
O1190  Zn1195  1.955   .     S
O1191  Zn1196  1.955   .     S
O1192  Zn1195  1.955   .     S
O1193  Zn1196  1.955   .     S
C1197  C1200   1.423   .     S
C1197  O1241   1.290   .     A
C1197  O1235   1.286   .     A
C1198  C1200   1.399   .     A
C1198  H1227   1.084   .     S
C1199  C1215   1.399   .     A
C1199  C1216   1.394   .     A
C1199  C1208   1.423   .     S
C1200  C1214   1.394   .     A
C1201  N1234   1.369   .     A
C1201  O1246   1.387   .     S
C1202  N1233   1.369   .     A
C1202  O1236   1.380   .     S
C1202  C1359   1.440   .     S
C1203  N1234   1.369   .     A
C1203  O1237   1.387   .     S
C1204  O1238   1.380   .     S
C1204  N1233   1.369   .     A
C1204  C1357   1.440   .     S
C1205  H1228   1.109   .     S
C1205  H1229   1.115   .     S
C1205  H1230   1.108   .     S
C1205  O1246   1.413   .     S
C1206  H1218   1.110   .     S
C1206  H1231   1.109   .     S
C1206  O1236   1.410   .     S
C1206  H1232   1.114   .     S
C1207  H1220   1.115   .     S
C1207  H1219   1.109   .     S
C1207  O1237   1.413   .     S
C1207  H1221   1.108   .     S
C1208  O1239   1.290   .     A
C1208  O1240   1.286   .     A
C1209  H1224   1.110   .     S
C1209  O1238   1.410   .     S
C1209  H1222   1.109   .     S
C1209  H1223   1.114   .     S
C1210  O1242   1.281   .     A
C1210  C1212   1.370   .     S
C1210  O1245   1.281   .     A
C1211  O1243   1.281   .     A
C1211  O1244   1.281   .     A
C1211  C1213   1.370   .     S
C1213  C276    1.168   1_556 S
C1214  H1217   1.079   .     S
C1215  H1225   1.084   .     S
C1215  C1094   1.372   1_655 S
C1216  H1226   1.079   .     S
C1216  C1110   1.367   1_655 S
N1233  Zn1247  2.019   .     S
N1234  Zn1248  2.019   .     S
O1235  Zn1247  2.004   .     S
O1239  Zn1248  2.004   .     S
O1240  Zn1247  2.004   .     S
O1241  Zn1248  2.004   .     S
O1242  Zn1247  1.955   .     S
O1243  Zn1248  1.955   .     S
O1244  Zn1247  1.955   .     S
O1245  Zn1248  1.955   .     S
C1249  C1252   1.423   .     S
C1249  O1293   1.290   .     A
C1249  O1287   1.286   .     A
C1250  C1252   1.399   .     A
C1250  H1279   1.084   .     S
C1250  C1371   1.372   1_455 S
C1251  C1267   1.399   .     A
C1251  C1268   1.394   .     A
C1251  C1260   1.423   .     S
C1252  C1266   1.394   .     A
C1253  N1286   1.369   .     A
C1253  O1298   1.387   .     S
C1254  N1285   1.369   .     A
C1254  O1288   1.380   .     S
C1254  C943    1.440   1_565 S
C1255  N1286   1.369   .     A
C1255  O1289   1.387   .     S
C1256  O1290   1.380   .     S
C1256  N1285   1.369   .     A
C1256  C941    1.440   1_565 S
C1257  H1280   1.109   .     S
C1257  H1281   1.115   .     S
C1257  H1282   1.108   .     S
C1257  O1298   1.413   .     S
C1258  H1270   1.110   .     S
C1258  H1283   1.109   .     S
C1258  O1288   1.410   .     S
C1258  H1284   1.114   .     S
C1259  H1272   1.115   .     S
C1259  H1271   1.109   .     S
C1259  O1289   1.413   .     S
C1259  H1273   1.108   .     S
C1260  O1291   1.290   .     A
C1260  O1292   1.286   .     A
C1261  H1276   1.110   .     S
C1261  O1290   1.410   .     S
C1261  H1274   1.109   .     S
C1261  H1275   1.114   .     S
C1262  O1294   1.281   .     A
C1262  C1264   1.370   .     S
C1262  O1297   1.281   .     A
C1263  O1295   1.281   .     A
C1263  O1296   1.281   .     A
C1263  C1265   1.370   .     S
C1265  C328    1.168   1_556 S
C1266  H1269   1.079   .     S
C1266  C1372   1.367   1_455 S
C1267  H1277   1.084   .     S
C1267  C1302   1.372   .     S
C1268  H1278   1.079   .     S
C1268  C1318   1.367   .     S
N1285  Zn1299  2.019   .     S
N1286  Zn1300  2.019   .     S
O1287  Zn1299  2.004   .     S
O1291  Zn1300  2.004   .     S
O1292  Zn1299  2.004   .     S
O1293  Zn1300  2.004   .     S
O1294  Zn1299  1.955   .     S
O1295  Zn1300  1.955   .     S
O1296  Zn1299  1.955   .     S
O1297  Zn1300  1.955   .     S
C1301  C1304   1.423   .     S
C1301  O1345   1.290   .     A
C1301  O1339   1.286   .     A
C1302  C1304   1.399   .     A
C1302  H1331   1.084   .     S
C1303  C1319   1.399   .     A
C1303  C1320   1.394   .     A
C1303  C1312   1.423   .     S
C1304  C1318   1.394   .     A
C1305  N1338   1.369   .     A
C1305  O1350   1.387   .     S
C1306  N1337   1.369   .     A
C1306  O1340   1.380   .     S
C1306  C995    1.440   1_565 S
C1307  N1338   1.369   .     A
C1307  O1341   1.387   .     S
C1308  O1342   1.380   .     S
C1308  N1337   1.369   .     A
C1308  C993    1.440   1_565 S
C1309  H1332   1.109   .     S
C1309  H1333   1.115   .     S
C1309  H1334   1.108   .     S
C1309  O1350   1.413   .     S
C1310  H1322   1.110   .     S
C1310  H1335   1.109   .     S
C1310  O1340   1.410   .     S
C1310  H1336   1.114   .     S
C1311  H1324   1.115   .     S
C1311  H1323   1.109   .     S
C1311  O1341   1.413   .     S
C1311  H1325   1.108   .     S
C1312  O1343   1.290   .     A
C1312  O1344   1.286   .     A
C1313  H1328   1.110   .     S
C1313  O1342   1.410   .     S
C1313  H1326   1.109   .     S
C1313  H1327   1.114   .     S
C1314  O1346   1.281   .     A
C1314  C1316   1.370   .     S
C1314  O1349   1.281   .     A
C1315  O1347   1.281   .     A
C1315  O1348   1.281   .     A
C1315  C1317   1.370   .     S
C1317  C380    1.168   1_556 S
C1318  H1321   1.079   .     S
C1319  H1329   1.084   .     S
C1319  C1354   1.372   .     S
C1320  H1330   1.079   .     S
C1320  C1370   1.367   .     S
N1337  Zn1351  2.019   .     S
N1338  Zn1352  2.019   .     S
O1339  Zn1351  2.004   .     S
O1343  Zn1352  2.004   .     S
O1344  Zn1351  2.004   .     S
O1345  Zn1352  2.004   .     S
O1346  Zn1351  1.955   .     S
O1347  Zn1352  1.955   .     S
O1348  Zn1351  1.955   .     S
O1349  Zn1352  1.955   .     S
C1353  C1356   1.423   .     S
C1353  O1397   1.290   .     A
C1353  O1391   1.286   .     A
C1354  C1356   1.399   .     A
C1354  H1383   1.084   .     S
C1355  C1371   1.399   .     A
C1355  C1372   1.394   .     A
C1355  C1364   1.423   .     S
C1356  C1370   1.394   .     A
C1357  N1390   1.369   .     A
C1357  O1402   1.387   .     S
C1358  N1389   1.369   .     A
C1358  O1392   1.380   .     S
C1358  C1047   1.440   1_565 S
C1359  N1390   1.369   .     A
C1359  O1393   1.387   .     S
C1360  O1394   1.380   .     S
C1360  N1389   1.369   .     A
C1360  C1045   1.440   1_565 S
C1361  H1384   1.109   .     S
C1361  H1385   1.115   .     S
C1361  H1386   1.108   .     S
C1361  O1402   1.413   .     S
C1362  H1374   1.110   .     S
C1362  H1387   1.109   .     S
C1362  O1392   1.410   .     S
C1362  H1388   1.114   .     S
C1363  H1376   1.115   .     S
C1363  H1375   1.109   .     S
C1363  O1393   1.413   .     S
C1363  H1377   1.108   .     S
C1364  O1395   1.290   .     A
C1364  O1396   1.286   .     A
C1365  H1380   1.110   .     S
C1365  O1394   1.410   .     S
C1365  H1378   1.109   .     S
C1365  H1379   1.114   .     S
C1366  O1398   1.281   .     A
C1366  C1368   1.370   .     S
C1366  O1401   1.281   .     A
C1367  O1399   1.281   .     A
C1367  O1400   1.281   .     A
C1367  C1369   1.370   .     S
C1369  C432    1.168   1_556 S
C1370  H1373   1.079   .     S
C1371  H1381   1.084   .     S
C1371  C1250   1.372   1_655 S
C1372  H1382   1.079   .     S
C1372  C1266   1.367   1_655 S
N1389  Zn1403  2.019   .     S
N1390  Zn1404  2.019   .     S
O1391  Zn1403  2.004   .     S
O1395  Zn1404  2.004   .     S
O1396  Zn1403  2.004   .     S
O1397  Zn1404  2.004   .     S
O1398  Zn1403  1.955   .     S
O1399  Zn1404  1.955   .     S
O1400  Zn1403  1.955   .     S
O1401  Zn1404  1.955   .     S
