data_str_m1_o10_o18_pcu_sym.213
_audit_creation_date              2020-01-03
_audit_creation_method            'Materials Studio'
_symmetry_space_group_name_H-M    'P1'
_symmetry_Int_Tables_number       1
_symmetry_cell_setting            triclinic
loop_
_symmetry_equiv_pos_as_xyz
  x,y,z
_cell_length_a                    32.8199
_cell_length_b                    32.4230
_cell_length_c                    36.0610
_cell_angle_alpha                 98.4696
_cell_angle_beta                  73.2672
_cell_angle_gamma                 98.8530
loop_
_atom_site_label
_atom_site_type_symbol
_atom_site_fract_x
_atom_site_fract_y
_atom_site_fract_z
_atom_site_U_iso_or_equiv
_atom_site_adp_type
_atom_site_occupancy
C1     C     0.05309   0.16032   0.25785   0.00000  Uiso   1.00
C2     C     0.14130   0.11434   0.48315   0.00000  Uiso   1.00
C3     C     0.15685   0.08906   0.00237   0.00000  Uiso   1.00
C4     C     0.28080   0.17378   0.24169   0.00000  Uiso   1.00
C5     C     0.17490   0.10689   0.03233   0.00000  Uiso   1.00
C6     C     0.17387   0.15033   0.04537   0.00000  Uiso   1.00
C7     C     0.19083   0.08116   0.05123   0.00000  Uiso   1.00
C8     C     0.20162   0.09699   0.08534   0.00000  Uiso   1.00
C9     C     0.17685   0.16416   0.08405   0.00000  Uiso   1.00
C10    C     0.32618   0.17911   0.24062   0.00000  Uiso   1.00
C11    C     0.00821   0.15614   0.26143   0.00000  Uiso   1.00
C12    C     0.12988   0.23873   0.41418   0.00000  Uiso   1.00
C13    C     0.18079   0.32219   0.23833   0.00000  Uiso   1.00
C14    C     0.15132   0.01194   0.26166   0.00000  Uiso   1.00
C15    C     0.15582   0.05614   0.25880   0.00000  Uiso   1.00
C16    C     0.17678   0.27756   0.24137   0.00000  Uiso   1.00
C17    C     0.18826   0.14472   0.14435   0.00000  Uiso   1.00
C18    C     0.14510   0.18727   0.35598   0.00000  Uiso   1.00
C19    C     0.13840   0.19791   0.39833   0.00000  Uiso   1.00
C20    C     0.19256   0.13719   0.10288   0.00000  Uiso   1.00
C21    C     0.13459   0.25457   0.45095   0.00000  Uiso   1.00
C22    C     0.12546   0.29839   0.46543   0.00000  Uiso   1.00
C23    C     0.14528   0.16977   0.42189   0.00000  Uiso   1.00
C24    C     0.15667   0.12734   0.40387   0.00000  Uiso   1.00
C25    C     0.14709   0.18462   0.46071   0.00000  Uiso   1.00
C26    C     0.14783   0.22856   0.47243   0.00000  Uiso   1.00
C27    C     0.15189   0.15828   0.48733   0.00000  Uiso   1.00
C28    C     0.16735   0.17661   0.01976   0.00000  Uiso   1.00
C29    C     0.17875   0.22018   0.02384   0.00000  Uiso   1.00
C30    C     0.16600   0.24588   0.00283   0.00000  Uiso   1.00
H31    H     0.17334   0.27945   0.00887   0.00000  Uiso   1.00
H32    H     0.01751   0.27428   0.19117   0.00000  Uiso   1.00
H33    H     0.32812   0.06871   0.31937   0.00000  Uiso   1.00
H34    H     0.17138   0.27152   0.13288   0.00000  Uiso   1.00
H35    H     0.12733   0.32042   0.44488   0.00000  Uiso   1.00
H36    H     0.18523   0.11657   0.40675   0.00000  Uiso   1.00
H37    H     0.19339   0.04838   0.04043   0.00000  Uiso   1.00
H38    H     0.20799   0.00306   0.21700   0.00000  Uiso   1.00
H39    H     0.12359   0.33183   0.28291   0.00000  Uiso   1.00
H40    H     0.21233   0.07606   0.10049   0.00000  Uiso   1.00
H41    H     0.15277   0.05535   0.49516   0.00000  Uiso   1.00
H42    H     0.12246   0.25951   0.39667   0.00000  Uiso   1.00
H43    H     0.19690   0.23487   0.04386   0.00000  Uiso   1.00
H44    H     0.12178   0.09875   0.46458   0.00000  Uiso   1.00
O45    O     0.16667   0.16667   0.25000   0.00000  Uiso   1.00
O46    O     0.15693   0.12393   0.16625   0.00000  Uiso   1.00
O47    O     0.12687   0.20646   0.33749   0.00000  Uiso   1.00
O48    O     0.21088   0.17493   0.15877   0.00000  Uiso   1.00
O49    O     0.17198   0.16135   0.33749   0.00000  Uiso   1.00
O50    O     0.06676   0.23362   0.22131   0.00000  Uiso   1.00
O51    O     0.03749   0.19571   0.16882   0.00000  Uiso   1.00
O52    O     0.33248   0.25728   0.21181   0.00000  Uiso   1.00
O53    O     0.28055   0.13265   0.32526   0.00000  Uiso   1.00
O54    O     0.28950   0.08285   0.26578   0.00000  Uiso   1.00
O55    O     0.01308   0.09120   0.30432   0.00000  Uiso   1.00
O56    O     0.17849   0.08101   0.27820   0.00000  Uiso   1.00
O57    O     0.11768   0.21889   0.09531   0.00000  Uiso   1.00
O58    O     0.12796   0.19757   0.15336   0.00000  Uiso   1.00
O59    O     0.18750   0.24949   0.11531   0.00000  Uiso   1.00
O60    O     0.11350   0.30975   0.00024   0.00000  Uiso   1.00
O61    O     0.13339   0.10370   0.38698   0.00000  Uiso   1.00
O62    O     0.14581   0.26136   0.26767   0.00000  Uiso   1.00
O63    O     0.07452   0.13251   0.23607   0.00000  Uiso   1.00
O64    O     0.26785   0.19179   0.21805   0.00000  Uiso   1.00
O65    O     0.06990   0.18960   0.27820   0.00000  Uiso   1.00
O66    O     0.25440   0.15277   0.26767   0.00000  Uiso   1.00
O67    O     0.13800   0.06903   0.23607   0.00000  Uiso   1.00
O68    O     0.20437   0.25527   0.21805   0.00000  Uiso   1.00
S69    S     0.02632   0.21668   0.20989   0.00000  Uiso   1.00
S70    S     0.31241   0.11492   0.28975   0.00000  Uiso   1.00
S71    S     0.15056   0.20781   0.11267   0.00000  Uiso   1.00
Zn72   Zn    0.19244   0.14090   0.28277   0.00000  Uiso   1.00
Zn73   Zn    0.13459   0.12378   0.22257   0.00000  Uiso   1.00
Zn74   Zn    0.21166   0.19664   0.21188   0.00000  Uiso   1.00
Zn75   Zn    0.12798   0.20535   0.28277   0.00000  Uiso   1.00
C76    C     0.38642   0.16032   0.25785   0.00000  Uiso   1.00
C77    C     0.47464   0.11434   0.48315   0.00000  Uiso   1.00
C78    C     0.49018   0.08906   0.00237   0.00000  Uiso   1.00
C79    C     0.61413   0.17378   0.24169   0.00000  Uiso   1.00
C80    C     0.50823   0.10689   0.03233   0.00000  Uiso   1.00
C81    C     0.50720   0.15033   0.04537   0.00000  Uiso   1.00
C82    C     0.52416   0.08116   0.05123   0.00000  Uiso   1.00
C83    C     0.53495   0.09699   0.08534   0.00000  Uiso   1.00
C84    C     0.51018   0.16416   0.08405   0.00000  Uiso   1.00
C85    C     0.65952   0.17911   0.24062   0.00000  Uiso   1.00
C86    C     0.34154   0.15614   0.26143   0.00000  Uiso   1.00
C87    C     0.46321   0.23873   0.41418   0.00000  Uiso   1.00
C88    C     0.51412   0.32219   0.23833   0.00000  Uiso   1.00
C89    C     0.48465   0.01194   0.26166   0.00000  Uiso   1.00
C90    C     0.48915   0.05614   0.25880   0.00000  Uiso   1.00
C91    C     0.51011   0.27756   0.24137   0.00000  Uiso   1.00
C92    C     0.52159   0.14472   0.14435   0.00000  Uiso   1.00
C93    C     0.47843   0.18727   0.35598   0.00000  Uiso   1.00
C94    C     0.47173   0.19791   0.39833   0.00000  Uiso   1.00
C95    C     0.52589   0.13719   0.10288   0.00000  Uiso   1.00
C96    C     0.46793   0.25457   0.45095   0.00000  Uiso   1.00
C97    C     0.45879   0.29839   0.46543   0.00000  Uiso   1.00
C98    C     0.47861   0.16977   0.42189   0.00000  Uiso   1.00
C99    C     0.49001   0.12734   0.40387   0.00000  Uiso   1.00
C100   C     0.48043   0.18462   0.46071   0.00000  Uiso   1.00
C101   C     0.48117   0.22856   0.47243   0.00000  Uiso   1.00
C102   C     0.48522   0.15828   0.48733   0.00000  Uiso   1.00
C103   C     0.50068   0.17661   0.01976   0.00000  Uiso   1.00
C104   C     0.51209   0.22018   0.02384   0.00000  Uiso   1.00
C105   C     0.49934   0.24588   0.00283   0.00000  Uiso   1.00
H106   H     0.50667   0.27945   0.00887   0.00000  Uiso   1.00
H107   H     0.35084   0.27428   0.19117   0.00000  Uiso   1.00
H108   H     0.66146   0.06871   0.31937   0.00000  Uiso   1.00
H109   H     0.50472   0.27152   0.13288   0.00000  Uiso   1.00
H110   H     0.46066   0.32042   0.44488   0.00000  Uiso   1.00
H111   H     0.51856   0.11657   0.40675   0.00000  Uiso   1.00
H112   H     0.52673   0.04838   0.04043   0.00000  Uiso   1.00
H113   H     0.54133   0.00306   0.21700   0.00000  Uiso   1.00
H114   H     0.45692   0.33183   0.28291   0.00000  Uiso   1.00
H115   H     0.54566   0.07606   0.10049   0.00000  Uiso   1.00
H116   H     0.48610   0.05535   0.49516   0.00000  Uiso   1.00
H117   H     0.45579   0.25951   0.39667   0.00000  Uiso   1.00
H118   H     0.53023   0.23487   0.04386   0.00000  Uiso   1.00
H119   H     0.45511   0.09875   0.46458   0.00000  Uiso   1.00
O120   O     0.50000   0.16667   0.25000   0.00000  Uiso   1.00
O121   O     0.49027   0.12393   0.16625   0.00000  Uiso   1.00
O122   O     0.46020   0.20646   0.33749   0.00000  Uiso   1.00
O123   O     0.54421   0.17493   0.15877   0.00000  Uiso   1.00
O124   O     0.50532   0.16135   0.33749   0.00000  Uiso   1.00
O125   O     0.40009   0.23362   0.22131   0.00000  Uiso   1.00
O126   O     0.37083   0.19571   0.16882   0.00000  Uiso   1.00
O127   O     0.66581   0.25728   0.21181   0.00000  Uiso   1.00
O128   O     0.61388   0.13265   0.32526   0.00000  Uiso   1.00
O129   O     0.62284   0.08285   0.26578   0.00000  Uiso   1.00
O130   O     0.34642   0.09120   0.30432   0.00000  Uiso   1.00
O131   O     0.51182   0.08101   0.27820   0.00000  Uiso   1.00
O132   O     0.45102   0.21889   0.09531   0.00000  Uiso   1.00
O133   O     0.46129   0.19757   0.15336   0.00000  Uiso   1.00
O134   O     0.52083   0.24949   0.11531   0.00000  Uiso   1.00
O135   O     0.44683   0.30975   0.00024   0.00000  Uiso   1.00
O136   O     0.46672   0.10370   0.38698   0.00000  Uiso   1.00
O137   O     0.47914   0.26136   0.26767   0.00000  Uiso   1.00
O138   O     0.40785   0.13251   0.23607   0.00000  Uiso   1.00
O139   O     0.60119   0.19179   0.21805   0.00000  Uiso   1.00
O140   O     0.40323   0.18960   0.27820   0.00000  Uiso   1.00
O141   O     0.58773   0.15277   0.26767   0.00000  Uiso   1.00
O142   O     0.47133   0.06903   0.23607   0.00000  Uiso   1.00
O143   O     0.53771   0.25527   0.21805   0.00000  Uiso   1.00
S144   S     0.35965   0.21668   0.20989   0.00000  Uiso   1.00
S145   S     0.64575   0.11492   0.28975   0.00000  Uiso   1.00
S146   S     0.48389   0.20781   0.11267   0.00000  Uiso   1.00
Zn147  Zn    0.52577   0.14090   0.28277   0.00000  Uiso   1.00
Zn148  Zn    0.46792   0.12378   0.22257   0.00000  Uiso   1.00
Zn149  Zn    0.54500   0.19664   0.21188   0.00000  Uiso   1.00
Zn150  Zn    0.46131   0.20535   0.28277   0.00000  Uiso   1.00
C151   C     0.71975   0.16032   0.25785   0.00000  Uiso   1.00
C152   C     0.80797   0.11434   0.48315   0.00000  Uiso   1.00
C153   C     0.82352   0.08906   0.00237   0.00000  Uiso   1.00
C154   C     0.94747   0.17378   0.24169   0.00000  Uiso   1.00
C155   C     0.84156   0.10689   0.03233   0.00000  Uiso   1.00
C156   C     0.84053   0.15033   0.04537   0.00000  Uiso   1.00
C157   C     0.85749   0.08116   0.05123   0.00000  Uiso   1.00
C158   C     0.86829   0.09699   0.08534   0.00000  Uiso   1.00
C159   C     0.84351   0.16416   0.08405   0.00000  Uiso   1.00
C160   C     0.99285   0.17911   0.24062   0.00000  Uiso   1.00
C161   C     0.67488   0.15614   0.26143   0.00000  Uiso   1.00
C162   C     0.79654   0.23873   0.41418   0.00000  Uiso   1.00
C163   C     0.84745   0.32219   0.23833   0.00000  Uiso   1.00
C164   C     0.81799   0.01194   0.26166   0.00000  Uiso   1.00
C165   C     0.82248   0.05614   0.25880   0.00000  Uiso   1.00
C166   C     0.84344   0.27756   0.24137   0.00000  Uiso   1.00
C167   C     0.85492   0.14472   0.14435   0.00000  Uiso   1.00
C168   C     0.81176   0.18727   0.35598   0.00000  Uiso   1.00
C169   C     0.80506   0.19791   0.39833   0.00000  Uiso   1.00
C170   C     0.85922   0.13719   0.10288   0.00000  Uiso   1.00
C171   C     0.80126   0.25457   0.45095   0.00000  Uiso   1.00
C172   C     0.79212   0.29839   0.46543   0.00000  Uiso   1.00
C173   C     0.81194   0.16977   0.42189   0.00000  Uiso   1.00
C174   C     0.82334   0.12734   0.40387   0.00000  Uiso   1.00
C175   C     0.81376   0.18462   0.46071   0.00000  Uiso   1.00
C176   C     0.81450   0.22856   0.47243   0.00000  Uiso   1.00
C177   C     0.81856   0.15828   0.48733   0.00000  Uiso   1.00
C178   C     0.83402   0.17661   0.01976   0.00000  Uiso   1.00
C179   C     0.84542   0.22018   0.02384   0.00000  Uiso   1.00
C180   C     0.83267   0.24588   0.00283   0.00000  Uiso   1.00
H181   H     0.84000   0.27945   0.00887   0.00000  Uiso   1.00
H182   H     0.68418   0.27428   0.19117   0.00000  Uiso   1.00
H183   H     0.99479   0.06871   0.31937   0.00000  Uiso   1.00
H184   H     0.83805   0.27152   0.13288   0.00000  Uiso   1.00
H185   H     0.79399   0.32042   0.44488   0.00000  Uiso   1.00
H186   H     0.85190   0.11657   0.40675   0.00000  Uiso   1.00
H187   H     0.86006   0.04838   0.04043   0.00000  Uiso   1.00
H188   H     0.87466   0.00306   0.21700   0.00000  Uiso   1.00
H189   H     0.79026   0.33183   0.28291   0.00000  Uiso   1.00
H190   H     0.87900   0.07606   0.10049   0.00000  Uiso   1.00
H191   H     0.81943   0.05535   0.49516   0.00000  Uiso   1.00
H192   H     0.78913   0.25951   0.39667   0.00000  Uiso   1.00
H193   H     0.86356   0.23487   0.04386   0.00000  Uiso   1.00
H194   H     0.78844   0.09875   0.46458   0.00000  Uiso   1.00
O195   O     0.83333   0.16667   0.25000   0.00000  Uiso   1.00
O196   O     0.82360   0.12393   0.16625   0.00000  Uiso   1.00
O197   O     0.79354   0.20646   0.33749   0.00000  Uiso   1.00
O198   O     0.87755   0.17493   0.15877   0.00000  Uiso   1.00
O199   O     0.83865   0.16135   0.33749   0.00000  Uiso   1.00
O200   O     0.73343   0.23362   0.22131   0.00000  Uiso   1.00
O201   O     0.70416   0.19571   0.16882   0.00000  Uiso   1.00
O202   O     0.99915   0.25728   0.21181   0.00000  Uiso   1.00
O203   O     0.94721   0.13265   0.32526   0.00000  Uiso   1.00
O204   O     0.95617   0.08285   0.26578   0.00000  Uiso   1.00
O205   O     0.67975   0.09120   0.30432   0.00000  Uiso   1.00
O206   O     0.84515   0.08101   0.27820   0.00000  Uiso   1.00
O207   O     0.78435   0.21889   0.09531   0.00000  Uiso   1.00
O208   O     0.79463   0.19757   0.15336   0.00000  Uiso   1.00
O209   O     0.85417   0.24949   0.11531   0.00000  Uiso   1.00
O210   O     0.78017   0.30975   0.00024   0.00000  Uiso   1.00
O211   O     0.80006   0.10370   0.38698   0.00000  Uiso   1.00
O212   O     0.81247   0.26136   0.26767   0.00000  Uiso   1.00
O213   O     0.74119   0.13251   0.23607   0.00000  Uiso   1.00
O214   O     0.93452   0.19179   0.21805   0.00000  Uiso   1.00
O215   O     0.73656   0.18960   0.27820   0.00000  Uiso   1.00
O216   O     0.92106   0.15277   0.26767   0.00000  Uiso   1.00
O217   O     0.80467   0.06903   0.23607   0.00000  Uiso   1.00
O218   O     0.87104   0.25527   0.21805   0.00000  Uiso   1.00
S219   S     0.69299   0.21668   0.20989   0.00000  Uiso   1.00
S220   S     0.97908   0.11492   0.28975   0.00000  Uiso   1.00
S221   S     0.81723   0.20781   0.11267   0.00000  Uiso   1.00
Zn222  Zn    0.85910   0.14090   0.28277   0.00000  Uiso   1.00
Zn223  Zn    0.80125   0.12378   0.22257   0.00000  Uiso   1.00
Zn224  Zn    0.87833   0.19664   0.21188   0.00000  Uiso   1.00
Zn225  Zn    0.79465   0.20535   0.28277   0.00000  Uiso   1.00
C226   C     0.05309   0.49365   0.25785   0.00000  Uiso   1.00
C227   C     0.14130   0.44767   0.48315   0.00000  Uiso   1.00
C228   C     0.15685   0.42240   0.00237   0.00000  Uiso   1.00
C229   C     0.28080   0.50712   0.24169   0.00000  Uiso   1.00
C230   C     0.17490   0.44023   0.03233   0.00000  Uiso   1.00
C231   C     0.17387   0.48366   0.04537   0.00000  Uiso   1.00
C232   C     0.19083   0.41450   0.05123   0.00000  Uiso   1.00
C233   C     0.20162   0.43032   0.08534   0.00000  Uiso   1.00
C234   C     0.17685   0.49749   0.08405   0.00000  Uiso   1.00
C235   C     0.32618   0.51244   0.24062   0.00000  Uiso   1.00
C236   C     0.00821   0.48947   0.26143   0.00000  Uiso   1.00
C237   C     0.12988   0.57206   0.41418   0.00000  Uiso   1.00
C238   C     0.18079   0.65552   0.23833   0.00000  Uiso   1.00
C239   C     0.15132   0.34528   0.26166   0.00000  Uiso   1.00
C240   C     0.15582   0.38947   0.25880   0.00000  Uiso   1.00
C241   C     0.17678   0.61090   0.24137   0.00000  Uiso   1.00
C242   C     0.18826   0.47806   0.14435   0.00000  Uiso   1.00
C243   C     0.14510   0.52061   0.35598   0.00000  Uiso   1.00
C244   C     0.13840   0.53124   0.39833   0.00000  Uiso   1.00
C245   C     0.19256   0.47052   0.10288   0.00000  Uiso   1.00
C246   C     0.13459   0.58790   0.45095   0.00000  Uiso   1.00
C247   C     0.12546   0.63172   0.46543   0.00000  Uiso   1.00
C248   C     0.14528   0.50310   0.42189   0.00000  Uiso   1.00
C249   C     0.15667   0.46067   0.40387   0.00000  Uiso   1.00
C250   C     0.14709   0.51795   0.46071   0.00000  Uiso   1.00
C251   C     0.14783   0.56189   0.47243   0.00000  Uiso   1.00
C252   C     0.15189   0.49161   0.48733   0.00000  Uiso   1.00
C253   C     0.16735   0.50994   0.01976   0.00000  Uiso   1.00
C254   C     0.17875   0.55351   0.02384   0.00000  Uiso   1.00
C255   C     0.16600   0.57921   0.00283   0.00000  Uiso   1.00
H256   H     0.17334   0.61278   0.00887   0.00000  Uiso   1.00
H257   H     0.01751   0.60762   0.19117   0.00000  Uiso   1.00
H258   H     0.32812   0.40204   0.31937   0.00000  Uiso   1.00
H259   H     0.17138   0.60485   0.13288   0.00000  Uiso   1.00
H260   H     0.12733   0.65375   0.44488   0.00000  Uiso   1.00
H261   H     0.18523   0.44990   0.40675   0.00000  Uiso   1.00
H262   H     0.19339   0.38171   0.04043   0.00000  Uiso   1.00
H263   H     0.20799   0.33640   0.21700   0.00000  Uiso   1.00
H264   H     0.12359   0.66517   0.28291   0.00000  Uiso   1.00
H265   H     0.21233   0.40940   0.10049   0.00000  Uiso   1.00
H266   H     0.15277   0.38868   0.49516   0.00000  Uiso   1.00
H267   H     0.12246   0.59284   0.39667   0.00000  Uiso   1.00
H268   H     0.19690   0.56820   0.04386   0.00000  Uiso   1.00
H269   H     0.12178   0.43209   0.46458   0.00000  Uiso   1.00
O270   O     0.16667   0.50000   0.25000   0.00000  Uiso   1.00
O271   O     0.15693   0.45726   0.16625   0.00000  Uiso   1.00
O272   O     0.12687   0.53979   0.33749   0.00000  Uiso   1.00
O273   O     0.21088   0.50826   0.15877   0.00000  Uiso   1.00
O274   O     0.17198   0.49468   0.33749   0.00000  Uiso   1.00
O275   O     0.06676   0.56696   0.22131   0.00000  Uiso   1.00
O276   O     0.03749   0.52904   0.16882   0.00000  Uiso   1.00
O277   O     0.33248   0.59061   0.21181   0.00000  Uiso   1.00
O278   O     0.28055   0.46598   0.32526   0.00000  Uiso   1.00
O279   O     0.28950   0.41618   0.26578   0.00000  Uiso   1.00
O280   O     0.01308   0.42454   0.30432   0.00000  Uiso   1.00
O281   O     0.17849   0.41434   0.27820   0.00000  Uiso   1.00
O282   O     0.11768   0.55222   0.09531   0.00000  Uiso   1.00
O283   O     0.12796   0.53090   0.15336   0.00000  Uiso   1.00
O284   O     0.18750   0.58282   0.11531   0.00000  Uiso   1.00
O285   O     0.11350   0.64308   0.00024   0.00000  Uiso   1.00
O286   O     0.13339   0.43703   0.38698   0.00000  Uiso   1.00
O287   O     0.14581   0.59469   0.26767   0.00000  Uiso   1.00
O288   O     0.07452   0.46584   0.23607   0.00000  Uiso   1.00
O289   O     0.26785   0.52512   0.21805   0.00000  Uiso   1.00
O290   O     0.06990   0.52293   0.27820   0.00000  Uiso   1.00
O291   O     0.25440   0.48610   0.26767   0.00000  Uiso   1.00
O292   O     0.13800   0.40236   0.23607   0.00000  Uiso   1.00
O293   O     0.20437   0.58860   0.21805   0.00000  Uiso   1.00
S294   S     0.02632   0.55002   0.20989   0.00000  Uiso   1.00
S295   S     0.31241   0.44825   0.28975   0.00000  Uiso   1.00
S296   S     0.15056   0.54114   0.11267   0.00000  Uiso   1.00
Zn297  Zn    0.19244   0.47423   0.28277   0.00000  Uiso   1.00
Zn298  Zn    0.13459   0.45711   0.22257   0.00000  Uiso   1.00
Zn299  Zn    0.21166   0.52997   0.21188   0.00000  Uiso   1.00
Zn300  Zn    0.12798   0.53868   0.28277   0.00000  Uiso   1.00
C301   C     0.38642   0.49365   0.25785   0.00000  Uiso   1.00
C302   C     0.47464   0.44767   0.48315   0.00000  Uiso   1.00
C303   C     0.49018   0.42240   0.00237   0.00000  Uiso   1.00
C304   C     0.61413   0.50712   0.24169   0.00000  Uiso   1.00
C305   C     0.50823   0.44023   0.03233   0.00000  Uiso   1.00
C306   C     0.50720   0.48366   0.04537   0.00000  Uiso   1.00
C307   C     0.52416   0.41450   0.05123   0.00000  Uiso   1.00
C308   C     0.53495   0.43032   0.08534   0.00000  Uiso   1.00
C309   C     0.51018   0.49749   0.08405   0.00000  Uiso   1.00
C310   C     0.65952   0.51244   0.24062   0.00000  Uiso   1.00
C311   C     0.34154   0.48947   0.26143   0.00000  Uiso   1.00
C312   C     0.46321   0.57206   0.41418   0.00000  Uiso   1.00
C313   C     0.51412   0.65552   0.23833   0.00000  Uiso   1.00
C314   C     0.48465   0.34528   0.26166   0.00000  Uiso   1.00
C315   C     0.48915   0.38947   0.25880   0.00000  Uiso   1.00
C316   C     0.51011   0.61090   0.24137   0.00000  Uiso   1.00
C317   C     0.52159   0.47806   0.14435   0.00000  Uiso   1.00
C318   C     0.47843   0.52061   0.35598   0.00000  Uiso   1.00
C319   C     0.47173   0.53124   0.39833   0.00000  Uiso   1.00
C320   C     0.52589   0.47052   0.10288   0.00000  Uiso   1.00
C321   C     0.46793   0.58790   0.45095   0.00000  Uiso   1.00
C322   C     0.45879   0.63172   0.46543   0.00000  Uiso   1.00
C323   C     0.47861   0.50310   0.42189   0.00000  Uiso   1.00
C324   C     0.49001   0.46067   0.40387   0.00000  Uiso   1.00
C325   C     0.48043   0.51795   0.46071   0.00000  Uiso   1.00
C326   C     0.48117   0.56189   0.47243   0.00000  Uiso   1.00
C327   C     0.48522   0.49161   0.48733   0.00000  Uiso   1.00
C328   C     0.50068   0.50994   0.01976   0.00000  Uiso   1.00
C329   C     0.51209   0.55351   0.02384   0.00000  Uiso   1.00
C330   C     0.49934   0.57921   0.00283   0.00000  Uiso   1.00
H331   H     0.50667   0.61278   0.00887   0.00000  Uiso   1.00
H332   H     0.35084   0.60762   0.19117   0.00000  Uiso   1.00
H333   H     0.66146   0.40204   0.31937   0.00000  Uiso   1.00
H334   H     0.50472   0.60485   0.13288   0.00000  Uiso   1.00
H335   H     0.46066   0.65375   0.44488   0.00000  Uiso   1.00
H336   H     0.51856   0.44990   0.40675   0.00000  Uiso   1.00
H337   H     0.52673   0.38171   0.04043   0.00000  Uiso   1.00
H338   H     0.54133   0.33640   0.21700   0.00000  Uiso   1.00
H339   H     0.45692   0.66517   0.28291   0.00000  Uiso   1.00
H340   H     0.54566   0.40940   0.10049   0.00000  Uiso   1.00
H341   H     0.48610   0.38868   0.49516   0.00000  Uiso   1.00
H342   H     0.45579   0.59284   0.39667   0.00000  Uiso   1.00
H343   H     0.53023   0.56820   0.04386   0.00000  Uiso   1.00
H344   H     0.45511   0.43209   0.46458   0.00000  Uiso   1.00
O345   O     0.50000   0.50000   0.25000   0.00000  Uiso   1.00
O346   O     0.49027   0.45726   0.16625   0.00000  Uiso   1.00
O347   O     0.46020   0.53979   0.33749   0.00000  Uiso   1.00
O348   O     0.54421   0.50826   0.15877   0.00000  Uiso   1.00
O349   O     0.50532   0.49468   0.33749   0.00000  Uiso   1.00
O350   O     0.40009   0.56696   0.22131   0.00000  Uiso   1.00
O351   O     0.37083   0.52904   0.16882   0.00000  Uiso   1.00
O352   O     0.66581   0.59061   0.21181   0.00000  Uiso   1.00
O353   O     0.61388   0.46598   0.32526   0.00000  Uiso   1.00
O354   O     0.62284   0.41618   0.26578   0.00000  Uiso   1.00
O355   O     0.34642   0.42454   0.30432   0.00000  Uiso   1.00
O356   O     0.51182   0.41434   0.27820   0.00000  Uiso   1.00
O357   O     0.45102   0.55222   0.09531   0.00000  Uiso   1.00
O358   O     0.46129   0.53090   0.15336   0.00000  Uiso   1.00
O359   O     0.52083   0.58282   0.11531   0.00000  Uiso   1.00
O360   O     0.44683   0.64308   0.00024   0.00000  Uiso   1.00
O361   O     0.46672   0.43703   0.38698   0.00000  Uiso   1.00
O362   O     0.47914   0.59469   0.26767   0.00000  Uiso   1.00
O363   O     0.40785   0.46584   0.23607   0.00000  Uiso   1.00
O364   O     0.60119   0.52512   0.21805   0.00000  Uiso   1.00
O365   O     0.40323   0.52293   0.27820   0.00000  Uiso   1.00
O366   O     0.58773   0.48610   0.26767   0.00000  Uiso   1.00
O367   O     0.47133   0.40236   0.23607   0.00000  Uiso   1.00
O368   O     0.53771   0.58860   0.21805   0.00000  Uiso   1.00
S369   S     0.35965   0.55002   0.20989   0.00000  Uiso   1.00
S370   S     0.64575   0.44825   0.28975   0.00000  Uiso   1.00
S371   S     0.48389   0.54114   0.11267   0.00000  Uiso   1.00
Zn372  Zn    0.52577   0.47423   0.28277   0.00000  Uiso   1.00
Zn373  Zn    0.46792   0.45711   0.22257   0.00000  Uiso   1.00
Zn374  Zn    0.54500   0.52997   0.21188   0.00000  Uiso   1.00
Zn375  Zn    0.46131   0.53868   0.28277   0.00000  Uiso   1.00
C376   C     0.71975   0.49365   0.25785   0.00000  Uiso   1.00
C377   C     0.80797   0.44767   0.48315   0.00000  Uiso   1.00
C378   C     0.82352   0.42240   0.00237   0.00000  Uiso   1.00
C379   C     0.94747   0.50712   0.24169   0.00000  Uiso   1.00
C380   C     0.84156   0.44023   0.03233   0.00000  Uiso   1.00
C381   C     0.84053   0.48366   0.04537   0.00000  Uiso   1.00
C382   C     0.85749   0.41450   0.05123   0.00000  Uiso   1.00
C383   C     0.86829   0.43032   0.08534   0.00000  Uiso   1.00
C384   C     0.84351   0.49749   0.08405   0.00000  Uiso   1.00
C385   C     0.99285   0.51244   0.24062   0.00000  Uiso   1.00
C386   C     0.67488   0.48947   0.26143   0.00000  Uiso   1.00
C387   C     0.79654   0.57206   0.41418   0.00000  Uiso   1.00
C388   C     0.84745   0.65552   0.23833   0.00000  Uiso   1.00
C389   C     0.81799   0.34528   0.26166   0.00000  Uiso   1.00
C390   C     0.82248   0.38947   0.25880   0.00000  Uiso   1.00
C391   C     0.84344   0.61090   0.24137   0.00000  Uiso   1.00
C392   C     0.85492   0.47806   0.14435   0.00000  Uiso   1.00
C393   C     0.81176   0.52061   0.35598   0.00000  Uiso   1.00
C394   C     0.80506   0.53124   0.39833   0.00000  Uiso   1.00
C395   C     0.85922   0.47052   0.10288   0.00000  Uiso   1.00
C396   C     0.80126   0.58790   0.45095   0.00000  Uiso   1.00
C397   C     0.79212   0.63172   0.46543   0.00000  Uiso   1.00
C398   C     0.81194   0.50310   0.42189   0.00000  Uiso   1.00
C399   C     0.82334   0.46067   0.40387   0.00000  Uiso   1.00
C400   C     0.81376   0.51795   0.46071   0.00000  Uiso   1.00
C401   C     0.81450   0.56189   0.47243   0.00000  Uiso   1.00
C402   C     0.81856   0.49161   0.48733   0.00000  Uiso   1.00
C403   C     0.83402   0.50994   0.01976   0.00000  Uiso   1.00
C404   C     0.84542   0.55351   0.02384   0.00000  Uiso   1.00
C405   C     0.83267   0.57921   0.00283   0.00000  Uiso   1.00
H406   H     0.84000   0.61278   0.00887   0.00000  Uiso   1.00
H407   H     0.68418   0.60762   0.19117   0.00000  Uiso   1.00
H408   H     0.99479   0.40204   0.31937   0.00000  Uiso   1.00
H409   H     0.83805   0.60485   0.13288   0.00000  Uiso   1.00
H410   H     0.79399   0.65375   0.44488   0.00000  Uiso   1.00
H411   H     0.85190   0.44990   0.40675   0.00000  Uiso   1.00
H412   H     0.86006   0.38171   0.04043   0.00000  Uiso   1.00
H413   H     0.87466   0.33640   0.21700   0.00000  Uiso   1.00
H414   H     0.79026   0.66517   0.28291   0.00000  Uiso   1.00
H415   H     0.87900   0.40940   0.10049   0.00000  Uiso   1.00
H416   H     0.81943   0.38868   0.49516   0.00000  Uiso   1.00
H417   H     0.78913   0.59284   0.39667   0.00000  Uiso   1.00
H418   H     0.86356   0.56820   0.04386   0.00000  Uiso   1.00
H419   H     0.78844   0.43209   0.46458   0.00000  Uiso   1.00
O420   O     0.83333   0.50000   0.25000   0.00000  Uiso   1.00
O421   O     0.82360   0.45726   0.16625   0.00000  Uiso   1.00
O422   O     0.79354   0.53979   0.33749   0.00000  Uiso   1.00
O423   O     0.87755   0.50826   0.15877   0.00000  Uiso   1.00
O424   O     0.83865   0.49468   0.33749   0.00000  Uiso   1.00
O425   O     0.73343   0.56696   0.22131   0.00000  Uiso   1.00
O426   O     0.70416   0.52904   0.16882   0.00000  Uiso   1.00
O427   O     0.99915   0.59061   0.21181   0.00000  Uiso   1.00
O428   O     0.94721   0.46598   0.32526   0.00000  Uiso   1.00
O429   O     0.95617   0.41618   0.26578   0.00000  Uiso   1.00
O430   O     0.67975   0.42454   0.30432   0.00000  Uiso   1.00
O431   O     0.84515   0.41434   0.27820   0.00000  Uiso   1.00
O432   O     0.78435   0.55222   0.09531   0.00000  Uiso   1.00
O433   O     0.79463   0.53090   0.15336   0.00000  Uiso   1.00
O434   O     0.85417   0.58282   0.11531   0.00000  Uiso   1.00
O435   O     0.78017   0.64308   0.00024   0.00000  Uiso   1.00
O436   O     0.80006   0.43703   0.38698   0.00000  Uiso   1.00
O437   O     0.81247   0.59469   0.26767   0.00000  Uiso   1.00
O438   O     0.74119   0.46584   0.23607   0.00000  Uiso   1.00
O439   O     0.93452   0.52512   0.21805   0.00000  Uiso   1.00
O440   O     0.73656   0.52293   0.27820   0.00000  Uiso   1.00
O441   O     0.92106   0.48610   0.26767   0.00000  Uiso   1.00
O442   O     0.80467   0.40236   0.23607   0.00000  Uiso   1.00
O443   O     0.87104   0.58860   0.21805   0.00000  Uiso   1.00
S444   S     0.69299   0.55002   0.20989   0.00000  Uiso   1.00
S445   S     0.97908   0.44825   0.28975   0.00000  Uiso   1.00
S446   S     0.81723   0.54114   0.11267   0.00000  Uiso   1.00
Zn447  Zn    0.85910   0.47423   0.28277   0.00000  Uiso   1.00
Zn448  Zn    0.80125   0.45711   0.22257   0.00000  Uiso   1.00
Zn449  Zn    0.87833   0.52997   0.21188   0.00000  Uiso   1.00
Zn450  Zn    0.79465   0.53868   0.28277   0.00000  Uiso   1.00
C451   C     0.05309   0.82699   0.25785   0.00000  Uiso   1.00
C452   C     0.14130   0.78100   0.48315   0.00000  Uiso   1.00
C453   C     0.15685   0.75573   0.00237   0.00000  Uiso   1.00
C454   C     0.28080   0.84045   0.24169   0.00000  Uiso   1.00
C455   C     0.17490   0.77356   0.03233   0.00000  Uiso   1.00
C456   C     0.17387   0.81699   0.04537   0.00000  Uiso   1.00
C457   C     0.19083   0.74783   0.05123   0.00000  Uiso   1.00
C458   C     0.20162   0.76366   0.08534   0.00000  Uiso   1.00
C459   C     0.17685   0.83083   0.08405   0.00000  Uiso   1.00
C460   C     0.32618   0.84577   0.24062   0.00000  Uiso   1.00
C461   C     0.00821   0.82280   0.26143   0.00000  Uiso   1.00
C462   C     0.12988   0.90540   0.41418   0.00000  Uiso   1.00
C463   C     0.18079   0.98886   0.23833   0.00000  Uiso   1.00
C464   C     0.15132   0.67861   0.26166   0.00000  Uiso   1.00
C465   C     0.15582   0.72281   0.25880   0.00000  Uiso   1.00
C466   C     0.17678   0.94423   0.24137   0.00000  Uiso   1.00
C467   C     0.18826   0.81139   0.14435   0.00000  Uiso   1.00
C468   C     0.14510   0.85394   0.35598   0.00000  Uiso   1.00
C469   C     0.13840   0.86457   0.39833   0.00000  Uiso   1.00
C470   C     0.19256   0.80386   0.10288   0.00000  Uiso   1.00
C471   C     0.13459   0.92123   0.45095   0.00000  Uiso   1.00
C472   C     0.12546   0.96506   0.46543   0.00000  Uiso   1.00
C473   C     0.14528   0.83644   0.42189   0.00000  Uiso   1.00
C474   C     0.15667   0.79400   0.40387   0.00000  Uiso   1.00
C475   C     0.14709   0.85128   0.46071   0.00000  Uiso   1.00
C476   C     0.14783   0.89523   0.47243   0.00000  Uiso   1.00
C477   C     0.15189   0.82495   0.48733   0.00000  Uiso   1.00
C478   C     0.16735   0.84328   0.01976   0.00000  Uiso   1.00
C479   C     0.17875   0.88685   0.02384   0.00000  Uiso   1.00
C480   C     0.16600   0.91254   0.00283   0.00000  Uiso   1.00
H481   H     0.17334   0.94612   0.00887   0.00000  Uiso   1.00
H482   H     0.01751   0.94095   0.19117   0.00000  Uiso   1.00
H483   H     0.32812   0.73537   0.31937   0.00000  Uiso   1.00
H484   H     0.17138   0.93818   0.13288   0.00000  Uiso   1.00
H485   H     0.12733   0.98709   0.44488   0.00000  Uiso   1.00
H486   H     0.18523   0.78324   0.40675   0.00000  Uiso   1.00
H487   H     0.19339   0.71504   0.04043   0.00000  Uiso   1.00
H488   H     0.20799   0.66973   0.21700   0.00000  Uiso   1.00
H489   H     0.12359   0.99850   0.28291   0.00000  Uiso   1.00
H490   H     0.21233   0.74273   0.10049   0.00000  Uiso   1.00
H491   H     0.15277   0.72201   0.49516   0.00000  Uiso   1.00
H492   H     0.12246   0.92618   0.39667   0.00000  Uiso   1.00
H493   H     0.19690   0.90154   0.04386   0.00000  Uiso   1.00
H494   H     0.12178   0.76542   0.46458   0.00000  Uiso   1.00
O495   O     0.16667   0.83333   0.25000   0.00000  Uiso   1.00
O496   O     0.15693   0.79060   0.16625   0.00000  Uiso   1.00
O497   O     0.12687   0.87313   0.33749   0.00000  Uiso   1.00
O498   O     0.21088   0.84159   0.15877   0.00000  Uiso   1.00
O499   O     0.17198   0.82802   0.33749   0.00000  Uiso   1.00
O500   O     0.06676   0.90029   0.22131   0.00000  Uiso   1.00
O501   O     0.03749   0.86237   0.16882   0.00000  Uiso   1.00
O502   O     0.33248   0.92394   0.21181   0.00000  Uiso   1.00
O503   O     0.28055   0.79932   0.32526   0.00000  Uiso   1.00
O504   O     0.28950   0.74952   0.26578   0.00000  Uiso   1.00
O505   O     0.01308   0.75787   0.30432   0.00000  Uiso   1.00
O506   O     0.17849   0.74768   0.27820   0.00000  Uiso   1.00
O507   O     0.11768   0.88556   0.09531   0.00000  Uiso   1.00
O508   O     0.12796   0.86424   0.15336   0.00000  Uiso   1.00
O509   O     0.18750   0.91615   0.11531   0.00000  Uiso   1.00
O510   O     0.11350   0.97641   0.00024   0.00000  Uiso   1.00
O511   O     0.13339   0.77036   0.38698   0.00000  Uiso   1.00
O512   O     0.14581   0.92803   0.26767   0.00000  Uiso   1.00
O513   O     0.07452   0.79917   0.23607   0.00000  Uiso   1.00
O514   O     0.26785   0.85845   0.21805   0.00000  Uiso   1.00
O515   O     0.06990   0.85627   0.27820   0.00000  Uiso   1.00
O516   O     0.25440   0.81944   0.26767   0.00000  Uiso   1.00
O517   O     0.13800   0.73570   0.23607   0.00000  Uiso   1.00
O518   O     0.20437   0.92193   0.21805   0.00000  Uiso   1.00
S519   S     0.02632   0.88335   0.20989   0.00000  Uiso   1.00
S520   S     0.31241   0.78158   0.28975   0.00000  Uiso   1.00
S521   S     0.15056   0.87447   0.11267   0.00000  Uiso   1.00
Zn522  Zn    0.19244   0.80756   0.28277   0.00000  Uiso   1.00
Zn523  Zn    0.13459   0.79044   0.22257   0.00000  Uiso   1.00
Zn524  Zn    0.21166   0.86331   0.21188   0.00000  Uiso   1.00
Zn525  Zn    0.12798   0.87202   0.28277   0.00000  Uiso   1.00
C526   C     0.38642   0.82699   0.25785   0.00000  Uiso   1.00
C527   C     0.47464   0.78100   0.48315   0.00000  Uiso   1.00
C528   C     0.49018   0.75573   0.00237   0.00000  Uiso   1.00
C529   C     0.61413   0.84045   0.24169   0.00000  Uiso   1.00
C530   C     0.50823   0.77356   0.03233   0.00000  Uiso   1.00
C531   C     0.50720   0.81699   0.04537   0.00000  Uiso   1.00
C532   C     0.52416   0.74783   0.05123   0.00000  Uiso   1.00
C533   C     0.53495   0.76366   0.08534   0.00000  Uiso   1.00
C534   C     0.51018   0.83083   0.08405   0.00000  Uiso   1.00
C535   C     0.65952   0.84577   0.24062   0.00000  Uiso   1.00
C536   C     0.34154   0.82280   0.26143   0.00000  Uiso   1.00
C537   C     0.46321   0.90540   0.41418   0.00000  Uiso   1.00
C538   C     0.51412   0.98886   0.23833   0.00000  Uiso   1.00
C539   C     0.48465   0.67861   0.26166   0.00000  Uiso   1.00
C540   C     0.48915   0.72281   0.25880   0.00000  Uiso   1.00
C541   C     0.51011   0.94423   0.24137   0.00000  Uiso   1.00
C542   C     0.52159   0.81139   0.14435   0.00000  Uiso   1.00
C543   C     0.47843   0.85394   0.35598   0.00000  Uiso   1.00
C544   C     0.47173   0.86457   0.39833   0.00000  Uiso   1.00
C545   C     0.52589   0.80386   0.10288   0.00000  Uiso   1.00
C546   C     0.46793   0.92123   0.45095   0.00000  Uiso   1.00
C547   C     0.45879   0.96506   0.46543   0.00000  Uiso   1.00
C548   C     0.47861   0.83644   0.42189   0.00000  Uiso   1.00
C549   C     0.49001   0.79400   0.40387   0.00000  Uiso   1.00
C550   C     0.48043   0.85128   0.46071   0.00000  Uiso   1.00
C551   C     0.48117   0.89523   0.47243   0.00000  Uiso   1.00
C552   C     0.48522   0.82495   0.48733   0.00000  Uiso   1.00
C553   C     0.50068   0.84328   0.01976   0.00000  Uiso   1.00
C554   C     0.51209   0.88685   0.02384   0.00000  Uiso   1.00
C555   C     0.49934   0.91254   0.00283   0.00000  Uiso   1.00
H556   H     0.50667   0.94612   0.00887   0.00000  Uiso   1.00
H557   H     0.35084   0.94095   0.19117   0.00000  Uiso   1.00
H558   H     0.66146   0.73537   0.31937   0.00000  Uiso   1.00
H559   H     0.50472   0.93818   0.13288   0.00000  Uiso   1.00
H560   H     0.46066   0.98709   0.44488   0.00000  Uiso   1.00
H561   H     0.51856   0.78324   0.40675   0.00000  Uiso   1.00
H562   H     0.52673   0.71504   0.04043   0.00000  Uiso   1.00
H563   H     0.54133   0.66973   0.21700   0.00000  Uiso   1.00
H564   H     0.45692   0.99850   0.28291   0.00000  Uiso   1.00
H565   H     0.54566   0.74273   0.10049   0.00000  Uiso   1.00
H566   H     0.48610   0.72201   0.49516   0.00000  Uiso   1.00
H567   H     0.45579   0.92618   0.39667   0.00000  Uiso   1.00
H568   H     0.53023   0.90154   0.04386   0.00000  Uiso   1.00
H569   H     0.45511   0.76542   0.46458   0.00000  Uiso   1.00
O570   O     0.50000   0.83333   0.25000   0.00000  Uiso   1.00
O571   O     0.49027   0.79060   0.16625   0.00000  Uiso   1.00
O572   O     0.46020   0.87313   0.33749   0.00000  Uiso   1.00
O573   O     0.54421   0.84159   0.15877   0.00000  Uiso   1.00
O574   O     0.50532   0.82802   0.33749   0.00000  Uiso   1.00
O575   O     0.40009   0.90029   0.22131   0.00000  Uiso   1.00
O576   O     0.37083   0.86237   0.16882   0.00000  Uiso   1.00
O577   O     0.66581   0.92394   0.21181   0.00000  Uiso   1.00
O578   O     0.61388   0.79932   0.32526   0.00000  Uiso   1.00
O579   O     0.62284   0.74952   0.26578   0.00000  Uiso   1.00
O580   O     0.34642   0.75787   0.30432   0.00000  Uiso   1.00
O581   O     0.51182   0.74768   0.27820   0.00000  Uiso   1.00
O582   O     0.45102   0.88556   0.09531   0.00000  Uiso   1.00
O583   O     0.46129   0.86424   0.15336   0.00000  Uiso   1.00
O584   O     0.52083   0.91615   0.11531   0.00000  Uiso   1.00
O585   O     0.44683   0.97641   0.00024   0.00000  Uiso   1.00
O586   O     0.46672   0.77036   0.38698   0.00000  Uiso   1.00
O587   O     0.47914   0.92803   0.26767   0.00000  Uiso   1.00
O588   O     0.40785   0.79917   0.23607   0.00000  Uiso   1.00
O589   O     0.60119   0.85845   0.21805   0.00000  Uiso   1.00
O590   O     0.40323   0.85627   0.27820   0.00000  Uiso   1.00
O591   O     0.58773   0.81944   0.26767   0.00000  Uiso   1.00
O592   O     0.47133   0.73570   0.23607   0.00000  Uiso   1.00
O593   O     0.53771   0.92193   0.21805   0.00000  Uiso   1.00
S594   S     0.35965   0.88335   0.20989   0.00000  Uiso   1.00
S595   S     0.64575   0.78158   0.28975   0.00000  Uiso   1.00
S596   S     0.48389   0.87447   0.11267   0.00000  Uiso   1.00
Zn597  Zn    0.52577   0.80756   0.28277   0.00000  Uiso   1.00
Zn598  Zn    0.46792   0.79044   0.22257   0.00000  Uiso   1.00
Zn599  Zn    0.54500   0.86331   0.21188   0.00000  Uiso   1.00
Zn600  Zn    0.46131   0.87202   0.28277   0.00000  Uiso   1.00
C601   C     0.71975   0.82699   0.25785   0.00000  Uiso   1.00
C602   C     0.80797   0.78100   0.48315   0.00000  Uiso   1.00
C603   C     0.82352   0.75573   0.00237   0.00000  Uiso   1.00
C604   C     0.94747   0.84045   0.24169   0.00000  Uiso   1.00
C605   C     0.84156   0.77356   0.03233   0.00000  Uiso   1.00
C606   C     0.84053   0.81699   0.04537   0.00000  Uiso   1.00
C607   C     0.85749   0.74783   0.05123   0.00000  Uiso   1.00
C608   C     0.86829   0.76366   0.08534   0.00000  Uiso   1.00
C609   C     0.84351   0.83083   0.08405   0.00000  Uiso   1.00
C610   C     0.99285   0.84577   0.24062   0.00000  Uiso   1.00
C611   C     0.67488   0.82280   0.26143   0.00000  Uiso   1.00
C612   C     0.79654   0.90540   0.41418   0.00000  Uiso   1.00
C613   C     0.84745   0.98886   0.23833   0.00000  Uiso   1.00
C614   C     0.81799   0.67861   0.26166   0.00000  Uiso   1.00
C615   C     0.82248   0.72281   0.25880   0.00000  Uiso   1.00
C616   C     0.84344   0.94423   0.24137   0.00000  Uiso   1.00
C617   C     0.85492   0.81139   0.14435   0.00000  Uiso   1.00
C618   C     0.81176   0.85394   0.35598   0.00000  Uiso   1.00
C619   C     0.80506   0.86457   0.39833   0.00000  Uiso   1.00
C620   C     0.85922   0.80386   0.10288   0.00000  Uiso   1.00
C621   C     0.80126   0.92123   0.45095   0.00000  Uiso   1.00
C622   C     0.79212   0.96506   0.46543   0.00000  Uiso   1.00
C623   C     0.81194   0.83644   0.42189   0.00000  Uiso   1.00
C624   C     0.82334   0.79400   0.40387   0.00000  Uiso   1.00
C625   C     0.81376   0.85128   0.46071   0.00000  Uiso   1.00
C626   C     0.81450   0.89523   0.47243   0.00000  Uiso   1.00
C627   C     0.81856   0.82495   0.48733   0.00000  Uiso   1.00
C628   C     0.83402   0.84328   0.01976   0.00000  Uiso   1.00
C629   C     0.84542   0.88685   0.02384   0.00000  Uiso   1.00
C630   C     0.83267   0.91254   0.00283   0.00000  Uiso   1.00
H631   H     0.84000   0.94612   0.00887   0.00000  Uiso   1.00
H632   H     0.68418   0.94095   0.19117   0.00000  Uiso   1.00
H633   H     0.99479   0.73537   0.31937   0.00000  Uiso   1.00
H634   H     0.83805   0.93818   0.13288   0.00000  Uiso   1.00
H635   H     0.79399   0.98709   0.44488   0.00000  Uiso   1.00
H636   H     0.85190   0.78324   0.40675   0.00000  Uiso   1.00
H637   H     0.86006   0.71504   0.04043   0.00000  Uiso   1.00
H638   H     0.87466   0.66973   0.21700   0.00000  Uiso   1.00
H639   H     0.79026   0.99850   0.28291   0.00000  Uiso   1.00
H640   H     0.87900   0.74273   0.10049   0.00000  Uiso   1.00
H641   H     0.81943   0.72201   0.49516   0.00000  Uiso   1.00
H642   H     0.78913   0.92618   0.39667   0.00000  Uiso   1.00
H643   H     0.86356   0.90154   0.04386   0.00000  Uiso   1.00
H644   H     0.78844   0.76542   0.46458   0.00000  Uiso   1.00
O645   O     0.83333   0.83333   0.25000   0.00000  Uiso   1.00
O646   O     0.82360   0.79060   0.16625   0.00000  Uiso   1.00
O647   O     0.79354   0.87313   0.33749   0.00000  Uiso   1.00
O648   O     0.87755   0.84159   0.15877   0.00000  Uiso   1.00
O649   O     0.83865   0.82802   0.33749   0.00000  Uiso   1.00
O650   O     0.73343   0.90029   0.22131   0.00000  Uiso   1.00
O651   O     0.70416   0.86237   0.16882   0.00000  Uiso   1.00
O652   O     0.99915   0.92394   0.21181   0.00000  Uiso   1.00
O653   O     0.94721   0.79932   0.32526   0.00000  Uiso   1.00
O654   O     0.95617   0.74952   0.26578   0.00000  Uiso   1.00
O655   O     0.67975   0.75787   0.30432   0.00000  Uiso   1.00
O656   O     0.84515   0.74768   0.27820   0.00000  Uiso   1.00
O657   O     0.78435   0.88556   0.09531   0.00000  Uiso   1.00
O658   O     0.79463   0.86424   0.15336   0.00000  Uiso   1.00
O659   O     0.85417   0.91615   0.11531   0.00000  Uiso   1.00
O660   O     0.78017   0.97641   0.00024   0.00000  Uiso   1.00
O661   O     0.80006   0.77036   0.38698   0.00000  Uiso   1.00
O662   O     0.81247   0.92803   0.26767   0.00000  Uiso   1.00
O663   O     0.74119   0.79917   0.23607   0.00000  Uiso   1.00
O664   O     0.93452   0.85845   0.21805   0.00000  Uiso   1.00
O665   O     0.73656   0.85627   0.27820   0.00000  Uiso   1.00
O666   O     0.92106   0.81944   0.26767   0.00000  Uiso   1.00
O667   O     0.80467   0.73570   0.23607   0.00000  Uiso   1.00
O668   O     0.87104   0.92193   0.21805   0.00000  Uiso   1.00
S669   S     0.69299   0.88335   0.20989   0.00000  Uiso   1.00
S670   S     0.97908   0.78158   0.28975   0.00000  Uiso   1.00
S671   S     0.81723   0.87447   0.11267   0.00000  Uiso   1.00
Zn672  Zn    0.85910   0.80756   0.28277   0.00000  Uiso   1.00
Zn673  Zn    0.80125   0.79044   0.22257   0.00000  Uiso   1.00
Zn674  Zn    0.87833   0.86331   0.21188   0.00000  Uiso   1.00
Zn675  Zn    0.79465   0.87202   0.28277   0.00000  Uiso   1.00
C676   C     0.05309   0.16032   0.75785   0.00000  Uiso   1.00
C677   C     0.14130   0.11434   0.98315   0.00000  Uiso   1.00
C678   C     0.15685   0.08906   0.50237   0.00000  Uiso   1.00
C679   C     0.28080   0.17378   0.74169   0.00000  Uiso   1.00
C680   C     0.17490   0.10689   0.53233   0.00000  Uiso   1.00
C681   C     0.17387   0.15033   0.54537   0.00000  Uiso   1.00
C682   C     0.19083   0.08116   0.55123   0.00000  Uiso   1.00
C683   C     0.20162   0.09699   0.58534   0.00000  Uiso   1.00
C684   C     0.17685   0.16416   0.58405   0.00000  Uiso   1.00
C685   C     0.32618   0.17911   0.74062   0.00000  Uiso   1.00
C686   C     0.00821   0.15614   0.76143   0.00000  Uiso   1.00
C687   C     0.12988   0.23873   0.91418   0.00000  Uiso   1.00
C688   C     0.18079   0.32219   0.73833   0.00000  Uiso   1.00
C689   C     0.15132   0.01194   0.76166   0.00000  Uiso   1.00
C690   C     0.15582   0.05614   0.75880   0.00000  Uiso   1.00
C691   C     0.17678   0.27756   0.74137   0.00000  Uiso   1.00
C692   C     0.18826   0.14472   0.64435   0.00000  Uiso   1.00
C693   C     0.14510   0.18727   0.85598   0.00000  Uiso   1.00
C694   C     0.13840   0.19791   0.89833   0.00000  Uiso   1.00
C695   C     0.19256   0.13719   0.60288   0.00000  Uiso   1.00
C696   C     0.13459   0.25457   0.95095   0.00000  Uiso   1.00
C697   C     0.12546   0.29839   0.96543   0.00000  Uiso   1.00
C698   C     0.14528   0.16977   0.92189   0.00000  Uiso   1.00
C699   C     0.15667   0.12734   0.90387   0.00000  Uiso   1.00
C700   C     0.14709   0.18462   0.96071   0.00000  Uiso   1.00
C701   C     0.14783   0.22856   0.97243   0.00000  Uiso   1.00
C702   C     0.15189   0.15828   0.98733   0.00000  Uiso   1.00
C703   C     0.16735   0.17661   0.51976   0.00000  Uiso   1.00
C704   C     0.17875   0.22018   0.52384   0.00000  Uiso   1.00
C705   C     0.16600   0.24588   0.50283   0.00000  Uiso   1.00
H706   H     0.17334   0.27945   0.50887   0.00000  Uiso   1.00
H707   H     0.01751   0.27428   0.69117   0.00000  Uiso   1.00
H708   H     0.32812   0.06871   0.81937   0.00000  Uiso   1.00
H709   H     0.17138   0.27152   0.63288   0.00000  Uiso   1.00
H710   H     0.12733   0.32042   0.94488   0.00000  Uiso   1.00
H711   H     0.18523   0.11657   0.90675   0.00000  Uiso   1.00
H712   H     0.19339   0.04838   0.54043   0.00000  Uiso   1.00
H713   H     0.20799   0.00306   0.71700   0.00000  Uiso   1.00
H714   H     0.12359   0.33183   0.78291   0.00000  Uiso   1.00
H715   H     0.21233   0.07606   0.60049   0.00000  Uiso   1.00
H716   H     0.15277   0.05535   0.99516   0.00000  Uiso   1.00
H717   H     0.12246   0.25951   0.89667   0.00000  Uiso   1.00
H718   H     0.19690   0.23487   0.54386   0.00000  Uiso   1.00
H719   H     0.12178   0.09875   0.96458   0.00000  Uiso   1.00
O720   O     0.16667   0.16667   0.75000   0.00000  Uiso   1.00
O721   O     0.15693   0.12393   0.66625   0.00000  Uiso   1.00
O722   O     0.12687   0.20646   0.83749   0.00000  Uiso   1.00
O723   O     0.21088   0.17493   0.65877   0.00000  Uiso   1.00
O724   O     0.17198   0.16135   0.83749   0.00000  Uiso   1.00
O725   O     0.06676   0.23362   0.72131   0.00000  Uiso   1.00
O726   O     0.03749   0.19571   0.66882   0.00000  Uiso   1.00
O727   O     0.33248   0.25728   0.71181   0.00000  Uiso   1.00
O728   O     0.28055   0.13265   0.82526   0.00000  Uiso   1.00
O729   O     0.28950   0.08285   0.76578   0.00000  Uiso   1.00
O730   O     0.01308   0.09120   0.80432   0.00000  Uiso   1.00
O731   O     0.17849   0.08101   0.77820   0.00000  Uiso   1.00
O732   O     0.11768   0.21889   0.59531   0.00000  Uiso   1.00
O733   O     0.12796   0.19757   0.65336   0.00000  Uiso   1.00
O734   O     0.18750   0.24949   0.61531   0.00000  Uiso   1.00
O735   O     0.11350   0.30975   0.50024   0.00000  Uiso   1.00
O736   O     0.13339   0.10370   0.88698   0.00000  Uiso   1.00
O737   O     0.14581   0.26136   0.76767   0.00000  Uiso   1.00
O738   O     0.07452   0.13251   0.73607   0.00000  Uiso   1.00
O739   O     0.26785   0.19179   0.71805   0.00000  Uiso   1.00
O740   O     0.06990   0.18960   0.77820   0.00000  Uiso   1.00
O741   O     0.25440   0.15277   0.76767   0.00000  Uiso   1.00
O742   O     0.13800   0.06903   0.73607   0.00000  Uiso   1.00
O743   O     0.20437   0.25527   0.71805   0.00000  Uiso   1.00
S744   S     0.02632   0.21668   0.70989   0.00000  Uiso   1.00
S745   S     0.31241   0.11492   0.78975   0.00000  Uiso   1.00
S746   S     0.15056   0.20781   0.61267   0.00000  Uiso   1.00
Zn747  Zn    0.19244   0.14090   0.78277   0.00000  Uiso   1.00
Zn748  Zn    0.13459   0.12378   0.72257   0.00000  Uiso   1.00
Zn749  Zn    0.21166   0.19664   0.71188   0.00000  Uiso   1.00
Zn750  Zn    0.12798   0.20535   0.78277   0.00000  Uiso   1.00
C751   C     0.38642   0.16032   0.75785   0.00000  Uiso   1.00
C752   C     0.47464   0.11434   0.98315   0.00000  Uiso   1.00
C753   C     0.49018   0.08906   0.50237   0.00000  Uiso   1.00
C754   C     0.61413   0.17378   0.74169   0.00000  Uiso   1.00
C755   C     0.50823   0.10689   0.53233   0.00000  Uiso   1.00
C756   C     0.50720   0.15033   0.54537   0.00000  Uiso   1.00
C757   C     0.52416   0.08116   0.55123   0.00000  Uiso   1.00
C758   C     0.53495   0.09699   0.58534   0.00000  Uiso   1.00
C759   C     0.51018   0.16416   0.58405   0.00000  Uiso   1.00
C760   C     0.65952   0.17911   0.74062   0.00000  Uiso   1.00
C761   C     0.34154   0.15614   0.76143   0.00000  Uiso   1.00
C762   C     0.46321   0.23873   0.91418   0.00000  Uiso   1.00
C763   C     0.51412   0.32219   0.73833   0.00000  Uiso   1.00
C764   C     0.48465   0.01194   0.76166   0.00000  Uiso   1.00
C765   C     0.48915   0.05614   0.75880   0.00000  Uiso   1.00
C766   C     0.51011   0.27756   0.74137   0.00000  Uiso   1.00
C767   C     0.52159   0.14472   0.64435   0.00000  Uiso   1.00
C768   C     0.47843   0.18727   0.85598   0.00000  Uiso   1.00
C769   C     0.47173   0.19791   0.89833   0.00000  Uiso   1.00
C770   C     0.52589   0.13719   0.60288   0.00000  Uiso   1.00
C771   C     0.46793   0.25457   0.95095   0.00000  Uiso   1.00
C772   C     0.45879   0.29839   0.96543   0.00000  Uiso   1.00
C773   C     0.47861   0.16977   0.92189   0.00000  Uiso   1.00
C774   C     0.49001   0.12734   0.90387   0.00000  Uiso   1.00
C775   C     0.48043   0.18462   0.96071   0.00000  Uiso   1.00
C776   C     0.48117   0.22856   0.97243   0.00000  Uiso   1.00
C777   C     0.48522   0.15828   0.98733   0.00000  Uiso   1.00
C778   C     0.50068   0.17661   0.51976   0.00000  Uiso   1.00
C779   C     0.51209   0.22018   0.52384   0.00000  Uiso   1.00
C780   C     0.49934   0.24588   0.50283   0.00000  Uiso   1.00
H781   H     0.50667   0.27945   0.50887   0.00000  Uiso   1.00
H782   H     0.35084   0.27428   0.69117   0.00000  Uiso   1.00
H783   H     0.66146   0.06871   0.81937   0.00000  Uiso   1.00
H784   H     0.50472   0.27152   0.63288   0.00000  Uiso   1.00
H785   H     0.46066   0.32042   0.94488   0.00000  Uiso   1.00
H786   H     0.51856   0.11657   0.90675   0.00000  Uiso   1.00
H787   H     0.52673   0.04838   0.54043   0.00000  Uiso   1.00
H788   H     0.54133   0.00306   0.71700   0.00000  Uiso   1.00
H789   H     0.45692   0.33183   0.78291   0.00000  Uiso   1.00
H790   H     0.54566   0.07606   0.60049   0.00000  Uiso   1.00
H791   H     0.48610   0.05535   0.99516   0.00000  Uiso   1.00
H792   H     0.45579   0.25951   0.89667   0.00000  Uiso   1.00
H793   H     0.53023   0.23487   0.54386   0.00000  Uiso   1.00
H794   H     0.45511   0.09875   0.96458   0.00000  Uiso   1.00
O795   O     0.50000   0.16667   0.75000   0.00000  Uiso   1.00
O796   O     0.49027   0.12393   0.66625   0.00000  Uiso   1.00
O797   O     0.46020   0.20646   0.83749   0.00000  Uiso   1.00
O798   O     0.54421   0.17493   0.65877   0.00000  Uiso   1.00
O799   O     0.50532   0.16135   0.83749   0.00000  Uiso   1.00
O800   O     0.40009   0.23362   0.72131   0.00000  Uiso   1.00
O801   O     0.37083   0.19571   0.66882   0.00000  Uiso   1.00
O802   O     0.66581   0.25728   0.71181   0.00000  Uiso   1.00
O803   O     0.61388   0.13265   0.82526   0.00000  Uiso   1.00
O804   O     0.62284   0.08285   0.76578   0.00000  Uiso   1.00
O805   O     0.34642   0.09120   0.80432   0.00000  Uiso   1.00
O806   O     0.51182   0.08101   0.77820   0.00000  Uiso   1.00
O807   O     0.45102   0.21889   0.59531   0.00000  Uiso   1.00
O808   O     0.46129   0.19757   0.65336   0.00000  Uiso   1.00
O809   O     0.52083   0.24949   0.61531   0.00000  Uiso   1.00
O810   O     0.44683   0.30975   0.50024   0.00000  Uiso   1.00
O811   O     0.46672   0.10370   0.88698   0.00000  Uiso   1.00
O812   O     0.47914   0.26136   0.76767   0.00000  Uiso   1.00
O813   O     0.40785   0.13251   0.73607   0.00000  Uiso   1.00
O814   O     0.60119   0.19179   0.71805   0.00000  Uiso   1.00
O815   O     0.40323   0.18960   0.77820   0.00000  Uiso   1.00
O816   O     0.58773   0.15277   0.76767   0.00000  Uiso   1.00
O817   O     0.47133   0.06903   0.73607   0.00000  Uiso   1.00
O818   O     0.53771   0.25527   0.71805   0.00000  Uiso   1.00
S819   S     0.35965   0.21668   0.70989   0.00000  Uiso   1.00
S820   S     0.64575   0.11492   0.78975   0.00000  Uiso   1.00
S821   S     0.48389   0.20781   0.61267   0.00000  Uiso   1.00
Zn822  Zn    0.52577   0.14090   0.78277   0.00000  Uiso   1.00
Zn823  Zn    0.46792   0.12378   0.72257   0.00000  Uiso   1.00
Zn824  Zn    0.54500   0.19664   0.71188   0.00000  Uiso   1.00
Zn825  Zn    0.46131   0.20535   0.78277   0.00000  Uiso   1.00
C826   C     0.71975   0.16032   0.75785   0.00000  Uiso   1.00
C827   C     0.80797   0.11434   0.98315   0.00000  Uiso   1.00
C828   C     0.82352   0.08906   0.50237   0.00000  Uiso   1.00
C829   C     0.94747   0.17378   0.74169   0.00000  Uiso   1.00
C830   C     0.84156   0.10689   0.53233   0.00000  Uiso   1.00
C831   C     0.84053   0.15033   0.54537   0.00000  Uiso   1.00
C832   C     0.85749   0.08116   0.55123   0.00000  Uiso   1.00
C833   C     0.86829   0.09699   0.58534   0.00000  Uiso   1.00
C834   C     0.84351   0.16416   0.58405   0.00000  Uiso   1.00
C835   C     0.99285   0.17911   0.74062   0.00000  Uiso   1.00
C836   C     0.67488   0.15614   0.76143   0.00000  Uiso   1.00
C837   C     0.79654   0.23873   0.91418   0.00000  Uiso   1.00
C838   C     0.84745   0.32219   0.73833   0.00000  Uiso   1.00
C839   C     0.81799   0.01194   0.76166   0.00000  Uiso   1.00
C840   C     0.82248   0.05614   0.75880   0.00000  Uiso   1.00
C841   C     0.84344   0.27756   0.74137   0.00000  Uiso   1.00
C842   C     0.85492   0.14472   0.64435   0.00000  Uiso   1.00
C843   C     0.81176   0.18727   0.85598   0.00000  Uiso   1.00
C844   C     0.80506   0.19791   0.89833   0.00000  Uiso   1.00
C845   C     0.85922   0.13719   0.60288   0.00000  Uiso   1.00
C846   C     0.80126   0.25457   0.95095   0.00000  Uiso   1.00
C847   C     0.79212   0.29839   0.96543   0.00000  Uiso   1.00
C848   C     0.81194   0.16977   0.92189   0.00000  Uiso   1.00
C849   C     0.82334   0.12734   0.90387   0.00000  Uiso   1.00
C850   C     0.81376   0.18462   0.96071   0.00000  Uiso   1.00
C851   C     0.81450   0.22856   0.97243   0.00000  Uiso   1.00
C852   C     0.81856   0.15828   0.98733   0.00000  Uiso   1.00
C853   C     0.83402   0.17661   0.51976   0.00000  Uiso   1.00
C854   C     0.84542   0.22018   0.52384   0.00000  Uiso   1.00
C855   C     0.83267   0.24588   0.50283   0.00000  Uiso   1.00
H856   H     0.84000   0.27945   0.50887   0.00000  Uiso   1.00
H857   H     0.68418   0.27428   0.69117   0.00000  Uiso   1.00
H858   H     0.99479   0.06871   0.81937   0.00000  Uiso   1.00
H859   H     0.83805   0.27152   0.63288   0.00000  Uiso   1.00
H860   H     0.79399   0.32042   0.94488   0.00000  Uiso   1.00
H861   H     0.85190   0.11657   0.90675   0.00000  Uiso   1.00
H862   H     0.86006   0.04838   0.54043   0.00000  Uiso   1.00
H863   H     0.87466   0.00306   0.71700   0.00000  Uiso   1.00
H864   H     0.79026   0.33183   0.78291   0.00000  Uiso   1.00
H865   H     0.87900   0.07606   0.60049   0.00000  Uiso   1.00
H866   H     0.81943   0.05535   0.99516   0.00000  Uiso   1.00
H867   H     0.78913   0.25951   0.89667   0.00000  Uiso   1.00
H868   H     0.86356   0.23487   0.54386   0.00000  Uiso   1.00
H869   H     0.78844   0.09875   0.96458   0.00000  Uiso   1.00
O870   O     0.83333   0.16667   0.75000   0.00000  Uiso   1.00
O871   O     0.82360   0.12393   0.66625   0.00000  Uiso   1.00
O872   O     0.79354   0.20646   0.83749   0.00000  Uiso   1.00
O873   O     0.87755   0.17493   0.65877   0.00000  Uiso   1.00
O874   O     0.83865   0.16135   0.83749   0.00000  Uiso   1.00
O875   O     0.73343   0.23362   0.72131   0.00000  Uiso   1.00
O876   O     0.70416   0.19571   0.66882   0.00000  Uiso   1.00
O877   O     0.99915   0.25728   0.71181   0.00000  Uiso   1.00
O878   O     0.94721   0.13265   0.82526   0.00000  Uiso   1.00
O879   O     0.95617   0.08285   0.76578   0.00000  Uiso   1.00
O880   O     0.67975   0.09120   0.80432   0.00000  Uiso   1.00
O881   O     0.84515   0.08101   0.77820   0.00000  Uiso   1.00
O882   O     0.78435   0.21889   0.59531   0.00000  Uiso   1.00
O883   O     0.79463   0.19757   0.65336   0.00000  Uiso   1.00
O884   O     0.85417   0.24949   0.61531   0.00000  Uiso   1.00
O885   O     0.78017   0.30975   0.50024   0.00000  Uiso   1.00
O886   O     0.80006   0.10370   0.88698   0.00000  Uiso   1.00
O887   O     0.81247   0.26136   0.76767   0.00000  Uiso   1.00
O888   O     0.74119   0.13251   0.73607   0.00000  Uiso   1.00
O889   O     0.93452   0.19179   0.71805   0.00000  Uiso   1.00
O890   O     0.73656   0.18960   0.77820   0.00000  Uiso   1.00
O891   O     0.92106   0.15277   0.76767   0.00000  Uiso   1.00
O892   O     0.80467   0.06903   0.73607   0.00000  Uiso   1.00
O893   O     0.87104   0.25527   0.71805   0.00000  Uiso   1.00
S894   S     0.69299   0.21668   0.70989   0.00000  Uiso   1.00
S895   S     0.97908   0.11492   0.78975   0.00000  Uiso   1.00
S896   S     0.81723   0.20781   0.61267   0.00000  Uiso   1.00
Zn897  Zn    0.85910   0.14090   0.78277   0.00000  Uiso   1.00
Zn898  Zn    0.80125   0.12378   0.72257   0.00000  Uiso   1.00
Zn899  Zn    0.87833   0.19664   0.71188   0.00000  Uiso   1.00
Zn900  Zn    0.79465   0.20535   0.78277   0.00000  Uiso   1.00
C901   C     0.05309   0.49365   0.75785   0.00000  Uiso   1.00
C902   C     0.14130   0.44767   0.98315   0.00000  Uiso   1.00
C903   C     0.15685   0.42240   0.50237   0.00000  Uiso   1.00
C904   C     0.28080   0.50712   0.74169   0.00000  Uiso   1.00
C905   C     0.17490   0.44023   0.53233   0.00000  Uiso   1.00
C906   C     0.17387   0.48366   0.54537   0.00000  Uiso   1.00
C907   C     0.19083   0.41450   0.55123   0.00000  Uiso   1.00
C908   C     0.20162   0.43032   0.58534   0.00000  Uiso   1.00
C909   C     0.17685   0.49749   0.58405   0.00000  Uiso   1.00
C910   C     0.32618   0.51244   0.74062   0.00000  Uiso   1.00
C911   C     0.00821   0.48947   0.76143   0.00000  Uiso   1.00
C912   C     0.12988   0.57206   0.91418   0.00000  Uiso   1.00
C913   C     0.18079   0.65552   0.73833   0.00000  Uiso   1.00
C914   C     0.15132   0.34528   0.76166   0.00000  Uiso   1.00
C915   C     0.15582   0.38947   0.75880   0.00000  Uiso   1.00
C916   C     0.17678   0.61090   0.74137   0.00000  Uiso   1.00
C917   C     0.18826   0.47806   0.64435   0.00000  Uiso   1.00
C918   C     0.14510   0.52061   0.85598   0.00000  Uiso   1.00
C919   C     0.13840   0.53124   0.89833   0.00000  Uiso   1.00
C920   C     0.19256   0.47052   0.60288   0.00000  Uiso   1.00
C921   C     0.13459   0.58790   0.95095   0.00000  Uiso   1.00
C922   C     0.12546   0.63172   0.96543   0.00000  Uiso   1.00
C923   C     0.14528   0.50310   0.92189   0.00000  Uiso   1.00
C924   C     0.15667   0.46067   0.90387   0.00000  Uiso   1.00
C925   C     0.14709   0.51795   0.96071   0.00000  Uiso   1.00
C926   C     0.14783   0.56189   0.97243   0.00000  Uiso   1.00
C927   C     0.15189   0.49161   0.98733   0.00000  Uiso   1.00
C928   C     0.16735   0.50994   0.51976   0.00000  Uiso   1.00
C929   C     0.17875   0.55351   0.52384   0.00000  Uiso   1.00
C930   C     0.16600   0.57921   0.50283   0.00000  Uiso   1.00
H931   H     0.17334   0.61278   0.50887   0.00000  Uiso   1.00
H932   H     0.01751   0.60762   0.69117   0.00000  Uiso   1.00
H933   H     0.32812   0.40204   0.81937   0.00000  Uiso   1.00
H934   H     0.17138   0.60485   0.63288   0.00000  Uiso   1.00
H935   H     0.12733   0.65375   0.94488   0.00000  Uiso   1.00
H936   H     0.18523   0.44990   0.90675   0.00000  Uiso   1.00
H937   H     0.19339   0.38171   0.54043   0.00000  Uiso   1.00
H938   H     0.20799   0.33640   0.71700   0.00000  Uiso   1.00
H939   H     0.12359   0.66517   0.78291   0.00000  Uiso   1.00
H940   H     0.21233   0.40940   0.60049   0.00000  Uiso   1.00
H941   H     0.15277   0.38868   0.99516   0.00000  Uiso   1.00
H942   H     0.12246   0.59284   0.89667   0.00000  Uiso   1.00
H943   H     0.19690   0.56820   0.54386   0.00000  Uiso   1.00
H944   H     0.12178   0.43209   0.96458   0.00000  Uiso   1.00
O945   O     0.16667   0.50000   0.75000   0.00000  Uiso   1.00
O946   O     0.15693   0.45726   0.66625   0.00000  Uiso   1.00
O947   O     0.12687   0.53979   0.83749   0.00000  Uiso   1.00
O948   O     0.21088   0.50826   0.65877   0.00000  Uiso   1.00
O949   O     0.17198   0.49468   0.83749   0.00000  Uiso   1.00
O950   O     0.06676   0.56696   0.72131   0.00000  Uiso   1.00
O951   O     0.03749   0.52904   0.66882   0.00000  Uiso   1.00
O952   O     0.33248   0.59061   0.71181   0.00000  Uiso   1.00
O953   O     0.28055   0.46598   0.82526   0.00000  Uiso   1.00
O954   O     0.28950   0.41618   0.76578   0.00000  Uiso   1.00
O955   O     0.01308   0.42454   0.80432   0.00000  Uiso   1.00
O956   O     0.17849   0.41434   0.77820   0.00000  Uiso   1.00
O957   O     0.11768   0.55222   0.59531   0.00000  Uiso   1.00
O958   O     0.12796   0.53090   0.65336   0.00000  Uiso   1.00
O959   O     0.18750   0.58282   0.61531   0.00000  Uiso   1.00
O960   O     0.11350   0.64308   0.50024   0.00000  Uiso   1.00
O961   O     0.13339   0.43703   0.88698   0.00000  Uiso   1.00
O962   O     0.14581   0.59469   0.76767   0.00000  Uiso   1.00
O963   O     0.07452   0.46584   0.73607   0.00000  Uiso   1.00
O964   O     0.26785   0.52512   0.71805   0.00000  Uiso   1.00
O965   O     0.06990   0.52293   0.77820   0.00000  Uiso   1.00
O966   O     0.25440   0.48610   0.76767   0.00000  Uiso   1.00
O967   O     0.13800   0.40236   0.73607   0.00000  Uiso   1.00
O968   O     0.20437   0.58860   0.71805   0.00000  Uiso   1.00
S969   S     0.02632   0.55002   0.70989   0.00000  Uiso   1.00
S970   S     0.31241   0.44825   0.78975   0.00000  Uiso   1.00
S971   S     0.15056   0.54114   0.61267   0.00000  Uiso   1.00
Zn972  Zn    0.19244   0.47423   0.78277   0.00000  Uiso   1.00
Zn973  Zn    0.13459   0.45711   0.72257   0.00000  Uiso   1.00
Zn974  Zn    0.21166   0.52997   0.71188   0.00000  Uiso   1.00
Zn975  Zn    0.12798   0.53868   0.78277   0.00000  Uiso   1.00
C976   C     0.38642   0.49365   0.75785   0.00000  Uiso   1.00
C977   C     0.47464   0.44767   0.98315   0.00000  Uiso   1.00
C978   C     0.49018   0.42240   0.50237   0.00000  Uiso   1.00
C979   C     0.61413   0.50712   0.74169   0.00000  Uiso   1.00
C980   C     0.50823   0.44023   0.53233   0.00000  Uiso   1.00
C981   C     0.50720   0.48366   0.54537   0.00000  Uiso   1.00
C982   C     0.52416   0.41450   0.55123   0.00000  Uiso   1.00
C983   C     0.53495   0.43032   0.58534   0.00000  Uiso   1.00
C984   C     0.51018   0.49749   0.58405   0.00000  Uiso   1.00
C985   C     0.65952   0.51244   0.74062   0.00000  Uiso   1.00
C986   C     0.34154   0.48947   0.76143   0.00000  Uiso   1.00
C987   C     0.46321   0.57206   0.91418   0.00000  Uiso   1.00
C988   C     0.51412   0.65552   0.73833   0.00000  Uiso   1.00
C989   C     0.48465   0.34528   0.76166   0.00000  Uiso   1.00
C990   C     0.48915   0.38947   0.75880   0.00000  Uiso   1.00
C991   C     0.51011   0.61090   0.74137   0.00000  Uiso   1.00
C992   C     0.52159   0.47806   0.64435   0.00000  Uiso   1.00
C993   C     0.47843   0.52061   0.85598   0.00000  Uiso   1.00
C994   C     0.47173   0.53124   0.89833   0.00000  Uiso   1.00
C995   C     0.52589   0.47052   0.60288   0.00000  Uiso   1.00
C996   C     0.46793   0.58790   0.95095   0.00000  Uiso   1.00
C997   C     0.45879   0.63172   0.96543   0.00000  Uiso   1.00
C998   C     0.47861   0.50310   0.92189   0.00000  Uiso   1.00
C999   C     0.49001   0.46067   0.90387   0.00000  Uiso   1.00
C1000  C     0.48043   0.51795   0.96071   0.00000  Uiso   1.00
C1001  C     0.48117   0.56189   0.97243   0.00000  Uiso   1.00
C1002  C     0.48522   0.49161   0.98733   0.00000  Uiso   1.00
C1003  C     0.50068   0.50994   0.51976   0.00000  Uiso   1.00
C1004  C     0.51209   0.55351   0.52384   0.00000  Uiso   1.00
C1005  C     0.49934   0.57921   0.50283   0.00000  Uiso   1.00
H1006  H     0.50667   0.61278   0.50887   0.00000  Uiso   1.00
H1007  H     0.35084   0.60762   0.69117   0.00000  Uiso   1.00
H1008  H     0.66146   0.40204   0.81937   0.00000  Uiso   1.00
H1009  H     0.50472   0.60485   0.63288   0.00000  Uiso   1.00
H1010  H     0.46066   0.65375   0.94488   0.00000  Uiso   1.00
H1011  H     0.51856   0.44990   0.90675   0.00000  Uiso   1.00
H1012  H     0.52673   0.38171   0.54043   0.00000  Uiso   1.00
H1013  H     0.54133   0.33640   0.71700   0.00000  Uiso   1.00
H1014  H     0.45692   0.66517   0.78291   0.00000  Uiso   1.00
H1015  H     0.54566   0.40940   0.60049   0.00000  Uiso   1.00
H1016  H     0.48610   0.38868   0.99516   0.00000  Uiso   1.00
H1017  H     0.45579   0.59284   0.89667   0.00000  Uiso   1.00
H1018  H     0.53023   0.56820   0.54386   0.00000  Uiso   1.00
H1019  H     0.45511   0.43209   0.96458   0.00000  Uiso   1.00
O1020  O     0.50000   0.50000   0.75000   0.00000  Uiso   1.00
O1021  O     0.49027   0.45726   0.66625   0.00000  Uiso   1.00
O1022  O     0.46020   0.53979   0.83749   0.00000  Uiso   1.00
O1023  O     0.54421   0.50826   0.65877   0.00000  Uiso   1.00
O1024  O     0.50532   0.49468   0.83749   0.00000  Uiso   1.00
O1025  O     0.40009   0.56696   0.72131   0.00000  Uiso   1.00
O1026  O     0.37083   0.52904   0.66882   0.00000  Uiso   1.00
O1027  O     0.66581   0.59061   0.71181   0.00000  Uiso   1.00
O1028  O     0.61388   0.46598   0.82526   0.00000  Uiso   1.00
O1029  O     0.62284   0.41618   0.76578   0.00000  Uiso   1.00
O1030  O     0.34642   0.42454   0.80432   0.00000  Uiso   1.00
O1031  O     0.51182   0.41434   0.77820   0.00000  Uiso   1.00
O1032  O     0.45102   0.55222   0.59531   0.00000  Uiso   1.00
O1033  O     0.46129   0.53090   0.65336   0.00000  Uiso   1.00
O1034  O     0.52083   0.58282   0.61531   0.00000  Uiso   1.00
O1035  O     0.44683   0.64308   0.50024   0.00000  Uiso   1.00
O1036  O     0.46672   0.43703   0.88698   0.00000  Uiso   1.00
O1037  O     0.47914   0.59469   0.76767   0.00000  Uiso   1.00
O1038  O     0.40785   0.46584   0.73607   0.00000  Uiso   1.00
O1039  O     0.60119   0.52512   0.71805   0.00000  Uiso   1.00
O1040  O     0.40323   0.52293   0.77820   0.00000  Uiso   1.00
O1041  O     0.58773   0.48610   0.76767   0.00000  Uiso   1.00
O1042  O     0.47133   0.40236   0.73607   0.00000  Uiso   1.00
O1043  O     0.53771   0.58860   0.71805   0.00000  Uiso   1.00
S1044  S     0.35965   0.55002   0.70989   0.00000  Uiso   1.00
S1045  S     0.64575   0.44825   0.78975   0.00000  Uiso   1.00
S1046  S     0.48389   0.54114   0.61267   0.00000  Uiso   1.00
Zn1047 Zn    0.52577   0.47423   0.78277   0.00000  Uiso   1.00
Zn1048 Zn    0.46792   0.45711   0.72257   0.00000  Uiso   1.00
Zn1049 Zn    0.54500   0.52997   0.71188   0.00000  Uiso   1.00
Zn1050 Zn    0.46131   0.53868   0.78277   0.00000  Uiso   1.00
C1051  C     0.71975   0.49365   0.75785   0.00000  Uiso   1.00
C1052  C     0.80797   0.44767   0.98315   0.00000  Uiso   1.00
C1053  C     0.82352   0.42240   0.50237   0.00000  Uiso   1.00
C1054  C     0.94747   0.50712   0.74169   0.00000  Uiso   1.00
C1055  C     0.84156   0.44023   0.53233   0.00000  Uiso   1.00
C1056  C     0.84053   0.48366   0.54537   0.00000  Uiso   1.00
C1057  C     0.85749   0.41450   0.55123   0.00000  Uiso   1.00
C1058  C     0.86829   0.43032   0.58534   0.00000  Uiso   1.00
C1059  C     0.84351   0.49749   0.58405   0.00000  Uiso   1.00
C1060  C     0.99285   0.51244   0.74062   0.00000  Uiso   1.00
C1061  C     0.67488   0.48947   0.76143   0.00000  Uiso   1.00
C1062  C     0.79654   0.57206   0.91418   0.00000  Uiso   1.00
C1063  C     0.84745   0.65552   0.73833   0.00000  Uiso   1.00
C1064  C     0.81799   0.34528   0.76166   0.00000  Uiso   1.00
C1065  C     0.82248   0.38947   0.75880   0.00000  Uiso   1.00
C1066  C     0.84344   0.61090   0.74137   0.00000  Uiso   1.00
C1067  C     0.85492   0.47806   0.64435   0.00000  Uiso   1.00
C1068  C     0.81176   0.52061   0.85598   0.00000  Uiso   1.00
C1069  C     0.80506   0.53124   0.89833   0.00000  Uiso   1.00
C1070  C     0.85922   0.47052   0.60288   0.00000  Uiso   1.00
C1071  C     0.80126   0.58790   0.95095   0.00000  Uiso   1.00
C1072  C     0.79212   0.63172   0.96543   0.00000  Uiso   1.00
C1073  C     0.81194   0.50310   0.92189   0.00000  Uiso   1.00
C1074  C     0.82334   0.46067   0.90387   0.00000  Uiso   1.00
C1075  C     0.81376   0.51795   0.96071   0.00000  Uiso   1.00
C1076  C     0.81450   0.56189   0.97243   0.00000  Uiso   1.00
C1077  C     0.81856   0.49161   0.98733   0.00000  Uiso   1.00
C1078  C     0.83402   0.50994   0.51976   0.00000  Uiso   1.00
C1079  C     0.84542   0.55351   0.52384   0.00000  Uiso   1.00
C1080  C     0.83267   0.57921   0.50283   0.00000  Uiso   1.00
H1081  H     0.84000   0.61278   0.50887   0.00000  Uiso   1.00
H1082  H     0.68418   0.60762   0.69117   0.00000  Uiso   1.00
H1083  H     0.99479   0.40204   0.81937   0.00000  Uiso   1.00
H1084  H     0.83805   0.60485   0.63288   0.00000  Uiso   1.00
H1085  H     0.79399   0.65375   0.94488   0.00000  Uiso   1.00
H1086  H     0.85190   0.44990   0.90675   0.00000  Uiso   1.00
H1087  H     0.86006   0.38171   0.54043   0.00000  Uiso   1.00
H1088  H     0.87466   0.33640   0.71700   0.00000  Uiso   1.00
H1089  H     0.79026   0.66517   0.78291   0.00000  Uiso   1.00
H1090  H     0.87900   0.40940   0.60049   0.00000  Uiso   1.00
H1091  H     0.81943   0.38868   0.99516   0.00000  Uiso   1.00
H1092  H     0.78913   0.59284   0.89667   0.00000  Uiso   1.00
H1093  H     0.86356   0.56820   0.54386   0.00000  Uiso   1.00
H1094  H     0.78844   0.43209   0.96458   0.00000  Uiso   1.00
O1095  O     0.83333   0.50000   0.75000   0.00000  Uiso   1.00
O1096  O     0.82360   0.45726   0.66625   0.00000  Uiso   1.00
O1097  O     0.79354   0.53979   0.83749   0.00000  Uiso   1.00
O1098  O     0.87755   0.50826   0.65877   0.00000  Uiso   1.00
O1099  O     0.83865   0.49468   0.83749   0.00000  Uiso   1.00
O1100  O     0.73343   0.56696   0.72131   0.00000  Uiso   1.00
O1101  O     0.70416   0.52904   0.66882   0.00000  Uiso   1.00
O1102  O     0.99915   0.59061   0.71181   0.00000  Uiso   1.00
O1103  O     0.94721   0.46598   0.82526   0.00000  Uiso   1.00
O1104  O     0.95617   0.41618   0.76578   0.00000  Uiso   1.00
O1105  O     0.67975   0.42454   0.80432   0.00000  Uiso   1.00
O1106  O     0.84515   0.41434   0.77820   0.00000  Uiso   1.00
O1107  O     0.78435   0.55222   0.59531   0.00000  Uiso   1.00
O1108  O     0.79463   0.53090   0.65336   0.00000  Uiso   1.00
O1109  O     0.85417   0.58282   0.61531   0.00000  Uiso   1.00
O1110  O     0.78017   0.64308   0.50024   0.00000  Uiso   1.00
O1111  O     0.80006   0.43703   0.88698   0.00000  Uiso   1.00
O1112  O     0.81247   0.59469   0.76767   0.00000  Uiso   1.00
O1113  O     0.74119   0.46584   0.73607   0.00000  Uiso   1.00
O1114  O     0.93452   0.52512   0.71805   0.00000  Uiso   1.00
O1115  O     0.73656   0.52293   0.77820   0.00000  Uiso   1.00
O1116  O     0.92106   0.48610   0.76767   0.00000  Uiso   1.00
O1117  O     0.80467   0.40236   0.73607   0.00000  Uiso   1.00
O1118  O     0.87104   0.58860   0.71805   0.00000  Uiso   1.00
S1119  S     0.69299   0.55002   0.70989   0.00000  Uiso   1.00
S1120  S     0.97908   0.44825   0.78975   0.00000  Uiso   1.00
S1121  S     0.81723   0.54114   0.61267   0.00000  Uiso   1.00
Zn1122 Zn    0.85910   0.47423   0.78277   0.00000  Uiso   1.00
Zn1123 Zn    0.80125   0.45711   0.72257   0.00000  Uiso   1.00
Zn1124 Zn    0.87833   0.52997   0.71188   0.00000  Uiso   1.00
Zn1125 Zn    0.79465   0.53868   0.78277   0.00000  Uiso   1.00
C1126  C     0.05309   0.82699   0.75785   0.00000  Uiso   1.00
C1127  C     0.14130   0.78100   0.98315   0.00000  Uiso   1.00
C1128  C     0.15685   0.75573   0.50237   0.00000  Uiso   1.00
C1129  C     0.28080   0.84045   0.74169   0.00000  Uiso   1.00
C1130  C     0.17490   0.77356   0.53233   0.00000  Uiso   1.00
C1131  C     0.17387   0.81699   0.54537   0.00000  Uiso   1.00
C1132  C     0.19083   0.74783   0.55123   0.00000  Uiso   1.00
C1133  C     0.20162   0.76366   0.58534   0.00000  Uiso   1.00
C1134  C     0.17685   0.83083   0.58405   0.00000  Uiso   1.00
C1135  C     0.32618   0.84577   0.74062   0.00000  Uiso   1.00
C1136  C     0.00821   0.82280   0.76143   0.00000  Uiso   1.00
C1137  C     0.12988   0.90540   0.91418   0.00000  Uiso   1.00
C1138  C     0.18079   0.98886   0.73833   0.00000  Uiso   1.00
C1139  C     0.15132   0.67861   0.76166   0.00000  Uiso   1.00
C1140  C     0.15582   0.72281   0.75880   0.00000  Uiso   1.00
C1141  C     0.17678   0.94423   0.74137   0.00000  Uiso   1.00
C1142  C     0.18826   0.81139   0.64435   0.00000  Uiso   1.00
C1143  C     0.14510   0.85394   0.85598   0.00000  Uiso   1.00
C1144  C     0.13840   0.86457   0.89833   0.00000  Uiso   1.00
C1145  C     0.19256   0.80386   0.60288   0.00000  Uiso   1.00
C1146  C     0.13459   0.92123   0.95095   0.00000  Uiso   1.00
C1147  C     0.12546   0.96506   0.96543   0.00000  Uiso   1.00
C1148  C     0.14528   0.83644   0.92189   0.00000  Uiso   1.00
C1149  C     0.15667   0.79400   0.90387   0.00000  Uiso   1.00
C1150  C     0.14709   0.85128   0.96071   0.00000  Uiso   1.00
C1151  C     0.14783   0.89523   0.97243   0.00000  Uiso   1.00
C1152  C     0.15189   0.82495   0.98733   0.00000  Uiso   1.00
C1153  C     0.16735   0.84328   0.51976   0.00000  Uiso   1.00
C1154  C     0.17875   0.88685   0.52384   0.00000  Uiso   1.00
C1155  C     0.16600   0.91254   0.50283   0.00000  Uiso   1.00
H1156  H     0.17334   0.94612   0.50887   0.00000  Uiso   1.00
H1157  H     0.01751   0.94095   0.69117   0.00000  Uiso   1.00
H1158  H     0.32812   0.73537   0.81937   0.00000  Uiso   1.00
H1159  H     0.17138   0.93818   0.63288   0.00000  Uiso   1.00
H1160  H     0.12733   0.98709   0.94488   0.00000  Uiso   1.00
H1161  H     0.18523   0.78324   0.90675   0.00000  Uiso   1.00
H1162  H     0.19339   0.71504   0.54043   0.00000  Uiso   1.00
H1163  H     0.20799   0.66973   0.71700   0.00000  Uiso   1.00
H1164  H     0.12359   0.99850   0.78291   0.00000  Uiso   1.00
H1165  H     0.21233   0.74273   0.60049   0.00000  Uiso   1.00
H1166  H     0.15277   0.72201   0.99516   0.00000  Uiso   1.00
H1167  H     0.12246   0.92618   0.89667   0.00000  Uiso   1.00
H1168  H     0.19690   0.90154   0.54386   0.00000  Uiso   1.00
H1169  H     0.12178   0.76542   0.96458   0.00000  Uiso   1.00
O1170  O     0.16667   0.83333   0.75000   0.00000  Uiso   1.00
O1171  O     0.15693   0.79060   0.66625   0.00000  Uiso   1.00
O1172  O     0.12687   0.87313   0.83749   0.00000  Uiso   1.00
O1173  O     0.21088   0.84159   0.65877   0.00000  Uiso   1.00
O1174  O     0.17198   0.82802   0.83749   0.00000  Uiso   1.00
O1175  O     0.06676   0.90029   0.72131   0.00000  Uiso   1.00
O1176  O     0.03749   0.86237   0.66882   0.00000  Uiso   1.00
O1177  O     0.33248   0.92394   0.71181   0.00000  Uiso   1.00
O1178  O     0.28055   0.79932   0.82526   0.00000  Uiso   1.00
O1179  O     0.28950   0.74952   0.76578   0.00000  Uiso   1.00
O1180  O     0.01308   0.75787   0.80432   0.00000  Uiso   1.00
O1181  O     0.17849   0.74768   0.77820   0.00000  Uiso   1.00
O1182  O     0.11768   0.88556   0.59531   0.00000  Uiso   1.00
O1183  O     0.12796   0.86424   0.65336   0.00000  Uiso   1.00
O1184  O     0.18750   0.91615   0.61531   0.00000  Uiso   1.00
O1185  O     0.11350   0.97641   0.50024   0.00000  Uiso   1.00
O1186  O     0.13339   0.77036   0.88698   0.00000  Uiso   1.00
O1187  O     0.14581   0.92803   0.76767   0.00000  Uiso   1.00
O1188  O     0.07452   0.79917   0.73607   0.00000  Uiso   1.00
O1189  O     0.26785   0.85845   0.71805   0.00000  Uiso   1.00
O1190  O     0.06990   0.85627   0.77820   0.00000  Uiso   1.00
O1191  O     0.25440   0.81944   0.76767   0.00000  Uiso   1.00
O1192  O     0.13800   0.73570   0.73607   0.00000  Uiso   1.00
O1193  O     0.20437   0.92193   0.71805   0.00000  Uiso   1.00
S1194  S     0.02632   0.88335   0.70989   0.00000  Uiso   1.00
S1195  S     0.31241   0.78158   0.78975   0.00000  Uiso   1.00
S1196  S     0.15056   0.87447   0.61267   0.00000  Uiso   1.00
Zn1197 Zn    0.19244   0.80756   0.78277   0.00000  Uiso   1.00
Zn1198 Zn    0.13459   0.79044   0.72257   0.00000  Uiso   1.00
Zn1199 Zn    0.21166   0.86331   0.71188   0.00000  Uiso   1.00
Zn1200 Zn    0.12798   0.87202   0.78277   0.00000  Uiso   1.00
C1201  C     0.38642   0.82699   0.75785   0.00000  Uiso   1.00
C1202  C     0.47464   0.78100   0.98315   0.00000  Uiso   1.00
C1203  C     0.49018   0.75573   0.50237   0.00000  Uiso   1.00
C1204  C     0.61413   0.84045   0.74169   0.00000  Uiso   1.00
C1205  C     0.50823   0.77356   0.53233   0.00000  Uiso   1.00
C1206  C     0.50720   0.81699   0.54537   0.00000  Uiso   1.00
C1207  C     0.52416   0.74783   0.55123   0.00000  Uiso   1.00
C1208  C     0.53495   0.76366   0.58534   0.00000  Uiso   1.00
C1209  C     0.51018   0.83083   0.58405   0.00000  Uiso   1.00
C1210  C     0.65952   0.84577   0.74062   0.00000  Uiso   1.00
C1211  C     0.34154   0.82280   0.76143   0.00000  Uiso   1.00
C1212  C     0.46321   0.90540   0.91418   0.00000  Uiso   1.00
C1213  C     0.51412   0.98886   0.73833   0.00000  Uiso   1.00
C1214  C     0.48465   0.67861   0.76166   0.00000  Uiso   1.00
C1215  C     0.48915   0.72281   0.75880   0.00000  Uiso   1.00
C1216  C     0.51011   0.94423   0.74137   0.00000  Uiso   1.00
C1217  C     0.52159   0.81139   0.64435   0.00000  Uiso   1.00
C1218  C     0.47843   0.85394   0.85598   0.00000  Uiso   1.00
C1219  C     0.47173   0.86457   0.89833   0.00000  Uiso   1.00
C1220  C     0.52589   0.80386   0.60288   0.00000  Uiso   1.00
C1221  C     0.46793   0.92123   0.95095   0.00000  Uiso   1.00
C1222  C     0.45879   0.96506   0.96543   0.00000  Uiso   1.00
C1223  C     0.47861   0.83644   0.92189   0.00000  Uiso   1.00
C1224  C     0.49001   0.79400   0.90387   0.00000  Uiso   1.00
C1225  C     0.48043   0.85128   0.96071   0.00000  Uiso   1.00
C1226  C     0.48117   0.89523   0.97243   0.00000  Uiso   1.00
C1227  C     0.48522   0.82495   0.98733   0.00000  Uiso   1.00
C1228  C     0.50068   0.84328   0.51976   0.00000  Uiso   1.00
C1229  C     0.51209   0.88685   0.52384   0.00000  Uiso   1.00
C1230  C     0.49934   0.91254   0.50283   0.00000  Uiso   1.00
H1231  H     0.50667   0.94612   0.50887   0.00000  Uiso   1.00
H1232  H     0.35084   0.94095   0.69117   0.00000  Uiso   1.00
H1233  H     0.66146   0.73537   0.81937   0.00000  Uiso   1.00
H1234  H     0.50472   0.93818   0.63288   0.00000  Uiso   1.00
H1235  H     0.46066   0.98709   0.94488   0.00000  Uiso   1.00
H1236  H     0.51856   0.78324   0.90675   0.00000  Uiso   1.00
H1237  H     0.52673   0.71504   0.54043   0.00000  Uiso   1.00
H1238  H     0.54133   0.66973   0.71700   0.00000  Uiso   1.00
H1239  H     0.45692   0.99850   0.78291   0.00000  Uiso   1.00
H1240  H     0.54566   0.74273   0.60049   0.00000  Uiso   1.00
H1241  H     0.48610   0.72201   0.99516   0.00000  Uiso   1.00
H1242  H     0.45579   0.92618   0.89667   0.00000  Uiso   1.00
H1243  H     0.53023   0.90154   0.54386   0.00000  Uiso   1.00
H1244  H     0.45511   0.76542   0.96458   0.00000  Uiso   1.00
O1245  O     0.50000   0.83333   0.75000   0.00000  Uiso   1.00
O1246  O     0.49027   0.79060   0.66625   0.00000  Uiso   1.00
O1247  O     0.46020   0.87313   0.83749   0.00000  Uiso   1.00
O1248  O     0.54421   0.84159   0.65877   0.00000  Uiso   1.00
O1249  O     0.50532   0.82802   0.83749   0.00000  Uiso   1.00
O1250  O     0.40009   0.90029   0.72131   0.00000  Uiso   1.00
O1251  O     0.37083   0.86237   0.66882   0.00000  Uiso   1.00
O1252  O     0.66581   0.92394   0.71181   0.00000  Uiso   1.00
O1253  O     0.61388   0.79932   0.82526   0.00000  Uiso   1.00
O1254  O     0.62284   0.74952   0.76578   0.00000  Uiso   1.00
O1255  O     0.34642   0.75787   0.80432   0.00000  Uiso   1.00
O1256  O     0.51182   0.74768   0.77820   0.00000  Uiso   1.00
O1257  O     0.45102   0.88556   0.59531   0.00000  Uiso   1.00
O1258  O     0.46129   0.86424   0.65336   0.00000  Uiso   1.00
O1259  O     0.52083   0.91615   0.61531   0.00000  Uiso   1.00
O1260  O     0.44683   0.97641   0.50024   0.00000  Uiso   1.00
O1261  O     0.46672   0.77036   0.88698   0.00000  Uiso   1.00
O1262  O     0.47914   0.92803   0.76767   0.00000  Uiso   1.00
O1263  O     0.40785   0.79917   0.73607   0.00000  Uiso   1.00
O1264  O     0.60119   0.85845   0.71805   0.00000  Uiso   1.00
O1265  O     0.40323   0.85627   0.77820   0.00000  Uiso   1.00
O1266  O     0.58773   0.81944   0.76767   0.00000  Uiso   1.00
O1267  O     0.47133   0.73570   0.73607   0.00000  Uiso   1.00
O1268  O     0.53771   0.92193   0.71805   0.00000  Uiso   1.00
S1269  S     0.35965   0.88335   0.70989   0.00000  Uiso   1.00
S1270  S     0.64575   0.78158   0.78975   0.00000  Uiso   1.00
S1271  S     0.48389   0.87447   0.61267   0.00000  Uiso   1.00
Zn1272 Zn    0.52577   0.80756   0.78277   0.00000  Uiso   1.00
Zn1273 Zn    0.46792   0.79044   0.72257   0.00000  Uiso   1.00
Zn1274 Zn    0.54500   0.86331   0.71188   0.00000  Uiso   1.00
Zn1275 Zn    0.46131   0.87202   0.78277   0.00000  Uiso   1.00
C1276  C     0.71975   0.82699   0.75785   0.00000  Uiso   1.00
C1277  C     0.80797   0.78100   0.98315   0.00000  Uiso   1.00
C1278  C     0.82352   0.75573   0.50237   0.00000  Uiso   1.00
C1279  C     0.94747   0.84045   0.74169   0.00000  Uiso   1.00
C1280  C     0.84156   0.77356   0.53233   0.00000  Uiso   1.00
C1281  C     0.84053   0.81699   0.54537   0.00000  Uiso   1.00
C1282  C     0.85749   0.74783   0.55123   0.00000  Uiso   1.00
C1283  C     0.86829   0.76366   0.58534   0.00000  Uiso   1.00
C1284  C     0.84351   0.83083   0.58405   0.00000  Uiso   1.00
C1285  C     0.99285   0.84577   0.74062   0.00000  Uiso   1.00
C1286  C     0.67488   0.82280   0.76143   0.00000  Uiso   1.00
C1287  C     0.79654   0.90540   0.91418   0.00000  Uiso   1.00
C1288  C     0.84745   0.98886   0.73833   0.00000  Uiso   1.00
C1289  C     0.81799   0.67861   0.76166   0.00000  Uiso   1.00
C1290  C     0.82248   0.72281   0.75880   0.00000  Uiso   1.00
C1291  C     0.84344   0.94423   0.74137   0.00000  Uiso   1.00
C1292  C     0.85492   0.81139   0.64435   0.00000  Uiso   1.00
C1293  C     0.81176   0.85394   0.85598   0.00000  Uiso   1.00
C1294  C     0.80506   0.86457   0.89833   0.00000  Uiso   1.00
C1295  C     0.85922   0.80386   0.60288   0.00000  Uiso   1.00
C1296  C     0.80126   0.92123   0.95095   0.00000  Uiso   1.00
C1297  C     0.79212   0.96506   0.96543   0.00000  Uiso   1.00
C1298  C     0.81194   0.83644   0.92189   0.00000  Uiso   1.00
C1299  C     0.82334   0.79400   0.90387   0.00000  Uiso   1.00
C1300  C     0.81376   0.85128   0.96071   0.00000  Uiso   1.00
C1301  C     0.81450   0.89523   0.97243   0.00000  Uiso   1.00
C1302  C     0.81856   0.82495   0.98733   0.00000  Uiso   1.00
C1303  C     0.83402   0.84328   0.51976   0.00000  Uiso   1.00
C1304  C     0.84542   0.88685   0.52384   0.00000  Uiso   1.00
C1305  C     0.83267   0.91254   0.50283   0.00000  Uiso   1.00
H1306  H     0.84000   0.94612   0.50887   0.00000  Uiso   1.00
H1307  H     0.68418   0.94095   0.69117   0.00000  Uiso   1.00
H1308  H     0.99479   0.73537   0.81937   0.00000  Uiso   1.00
H1309  H     0.83805   0.93818   0.63288   0.00000  Uiso   1.00
H1310  H     0.79399   0.98709   0.94488   0.00000  Uiso   1.00
H1311  H     0.85190   0.78324   0.90675   0.00000  Uiso   1.00
H1312  H     0.86006   0.71504   0.54043   0.00000  Uiso   1.00
H1313  H     0.87466   0.66973   0.71700   0.00000  Uiso   1.00
H1314  H     0.79026   0.99850   0.78291   0.00000  Uiso   1.00
H1315  H     0.87900   0.74273   0.60049   0.00000  Uiso   1.00
H1316  H     0.81943   0.72201   0.99516   0.00000  Uiso   1.00
H1317  H     0.78913   0.92618   0.89667   0.00000  Uiso   1.00
H1318  H     0.86356   0.90154   0.54386   0.00000  Uiso   1.00
H1319  H     0.78844   0.76542   0.96458   0.00000  Uiso   1.00
O1320  O     0.83333   0.83333   0.75000   0.00000  Uiso   1.00
O1321  O     0.82360   0.79060   0.66625   0.00000  Uiso   1.00
O1322  O     0.79354   0.87313   0.83749   0.00000  Uiso   1.00
O1323  O     0.87755   0.84159   0.65877   0.00000  Uiso   1.00
O1324  O     0.83865   0.82802   0.83749   0.00000  Uiso   1.00
O1325  O     0.73343   0.90029   0.72131   0.00000  Uiso   1.00
O1326  O     0.70416   0.86237   0.66882   0.00000  Uiso   1.00
O1327  O     0.99915   0.92394   0.71181   0.00000  Uiso   1.00
O1328  O     0.94721   0.79932   0.82526   0.00000  Uiso   1.00
O1329  O     0.95617   0.74952   0.76578   0.00000  Uiso   1.00
O1330  O     0.67975   0.75787   0.80432   0.00000  Uiso   1.00
O1331  O     0.84515   0.74768   0.77820   0.00000  Uiso   1.00
O1332  O     0.78435   0.88556   0.59531   0.00000  Uiso   1.00
O1333  O     0.79463   0.86424   0.65336   0.00000  Uiso   1.00
O1334  O     0.85417   0.91615   0.61531   0.00000  Uiso   1.00
O1335  O     0.78017   0.97641   0.50024   0.00000  Uiso   1.00
O1336  O     0.80006   0.77036   0.88698   0.00000  Uiso   1.00
O1337  O     0.81247   0.92803   0.76767   0.00000  Uiso   1.00
O1338  O     0.74119   0.79917   0.73607   0.00000  Uiso   1.00
O1339  O     0.93452   0.85845   0.71805   0.00000  Uiso   1.00
O1340  O     0.73656   0.85627   0.77820   0.00000  Uiso   1.00
O1341  O     0.92106   0.81944   0.76767   0.00000  Uiso   1.00
O1342  O     0.80467   0.73570   0.73607   0.00000  Uiso   1.00
O1343  O     0.87104   0.92193   0.71805   0.00000  Uiso   1.00
S1344  S     0.69299   0.88335   0.70989   0.00000  Uiso   1.00
S1345  S     0.97908   0.78158   0.78975   0.00000  Uiso   1.00
S1346  S     0.81723   0.87447   0.61267   0.00000  Uiso   1.00
Zn1347 Zn    0.85910   0.80756   0.78277   0.00000  Uiso   1.00
Zn1348 Zn    0.80125   0.79044   0.72257   0.00000  Uiso   1.00
Zn1349 Zn    0.87833   0.86331   0.71188   0.00000  Uiso   1.00
Zn1350 Zn    0.79465   0.87202   0.78277   0.00000  Uiso   1.00
loop_
_geom_bond_atom_site_label_1
_geom_bond_atom_site_label_2
_geom_bond_distance
_geom_bond_site_symmetry_2
_ccdc_geom_bond_type
C1     C11     1.428   .     S
C1     O65     1.269   .     A
C1     O63     1.262   .     A
C2     H44     1.078   .     S
C2     C27     1.410   .     A
C2     C678    1.383   .     S
C3     C5      1.390   .     A
C3     C677    1.383   1_554 S
C3     H716    1.083   1_554 S
C4     C10     1.463   .     S
C4     O64     1.296   .     A
C4     O66     1.277   .     A
C5     C6      1.420   .     A
C5     C7      1.393   .     A
C6     C9      1.427   .     A
C6     C28     1.424   .     A
C7     C8      1.382   .     A
C7     H37     1.084   .     S
C8     C20     1.398   .     A
C8     H40     1.084   .     S
C9     C20     1.417   .     A
C9     S71     1.801   .     S
C10    C86     1.368   .     S
C10    S144    1.790   .     S
C11    C160    1.368   1_455 S
C11    S220    1.786   1_455 S
C12    H42     1.085   .     S
C12    C21     1.392   .     A
C12    C19     1.399   .     A
C13    C16     1.450   .     S
C13    C239    1.331   .     S
C13    H263    1.088   .     S
C14    C15     1.434   .     S
C14    C463    1.331   1_545 S
C14    H489    1.086   1_545 S
C15    O67     1.281   .     A
C15    O56     1.281   .     A
C16    O68     1.278   .     A
C16    O62     1.279   .     A
C17    O48     1.277   .     A
C17    C20     1.448   .     S
C17    O46     1.269   .     A
C18    O47     1.287   .     A
C18    C19     1.475   .     S
C18    O49     1.286   .     A
C19    C23     1.417   .     A
C21    C26     1.414   .     A
C21    C22     1.485   .     S
C22    H35     1.086   .     S
C22    O735    1.221   .     S
C23    C24     1.487   .     S
C23    C25     1.427   .     A
C24    O61     1.222   .     D
C24    H36     1.086   .     S
C25    C26     1.424   .     A
C25    C27     1.430   .     A
C26    C705    1.402   .     S
C27    C703    1.422   .     S
C28    C29     1.402   .     A
C28    C702    1.422   1_554 S
C29    H43     1.078   .     S
C29    C30     1.385   .     A
C30    H31     1.082   .     S
C30    C701    1.402   1_554 S
H32    O202    0.991   1_455 S
H33    O130    0.991   .     S
H34    O59     0.991   .     S
H38    C463    1.088   1_545 S
H39    C239    1.086   .     S
H41    C678    1.083   .     S
O45    Zn73    1.940   .     S
O45    Zn72    1.973   .     S
O45    Zn74    1.949   .     S
O45    Zn75    1.942   .     S
O46    Zn73    1.951   .     S
O47    Zn75    1.958   .     S
O48    Zn74    1.947   .     S
O49    Zn72    1.942   .     S
O50    S69     1.502   .     D
O51    S69     1.502   .     D
O52    H107    0.991   .     S
O52    S144    1.683   .     S
O53    S70     1.504   .     D
O54    S70     1.504   .     D
O55    H183    0.991   1_455 S
O55    S220    1.683   1_455 S
O56    Zn72    1.919   .     S
O57    S71     1.503   .     D
O58    S71     1.502   .     D
O59    S71     1.682   .     S
O60    C697    1.221   1_554 S
O62    Zn75    1.928   .     S
O63    Zn73    1.945   .     S
O64    Zn74    1.952   .     S
O65    Zn75    1.944   .     S
O66    Zn72    1.940   .     S
O67    Zn73    1.936   .     S
O68    Zn74    1.925   .     S
S69    C160    1.790   1_455 S
S69    O202    1.683   1_455 S
S70    O130    1.683   .     S
S70    C86     1.786   .     S
C76    C86     1.428   .     S
C76    O140    1.269   .     A
C76    O138    1.262   .     A
C77    H119    1.078   .     S
C77    C102    1.410   .     A
C77    C753    1.383   .     S
C78    C80     1.390   .     A
C78    C752    1.383   1_554 S
C78    H791    1.083   1_554 S
C79    C85     1.463   .     S
C79    O139    1.296   .     A
C79    O141    1.277   .     A
C80    C81     1.420   .     A
C80    C82     1.393   .     A
C81    C84     1.427   .     A
C81    C103    1.424   .     A
C82    C83     1.382   .     A
C82    H112    1.084   .     S
C83    C95     1.398   .     A
C83    H115    1.084   .     S
C84    C95     1.417   .     A
C84    S146    1.801   .     S
C85    C161    1.368   .     S
C85    S219    1.790   .     S
C87    H117    1.085   .     S
C87    C96     1.392   .     A
C87    C94     1.399   .     A
C88    C91     1.450   .     S
C88    C314    1.331   .     S
C88    H338    1.088   .     S
C89    C90     1.434   .     S
C89    C538    1.331   1_545 S
C89    H564    1.086   1_545 S
C90    O142    1.281   .     A
C90    O131    1.281   .     A
C91    O143    1.278   .     A
C91    O137    1.279   .     A
C92    O123    1.277   .     A
C92    C95     1.448   .     S
C92    O121    1.269   .     A
C93    O122    1.287   .     A
C93    C94     1.475   .     S
C93    O124    1.286   .     A
C94    C98     1.417   .     A
C96    C101    1.414   .     A
C96    C97     1.485   .     S
C97    H110    1.086   .     S
C97    O810    1.221   .     S
C98    C99     1.487   .     S
C98    C100    1.427   .     A
C99    O136    1.222   .     D
C99    H111    1.086   .     S
C100   C101    1.424   .     A
C100   C102    1.430   .     A
C101   C780    1.402   .     S
C102   C778    1.422   .     S
C103   C104    1.402   .     A
C103   C777    1.422   1_554 S
C104   H118    1.078   .     S
C104   C105    1.385   .     A
C105   H106    1.082   .     S
C105   C776    1.402   1_554 S
H108   O205    0.991   .     S
H109   O134    0.991   .     S
H113   C538    1.088   1_545 S
H114   C314    1.086   .     S
H116   C753    1.083   .     S
O120   Zn148   1.940   .     S
O120   Zn147   1.973   .     S
O120   Zn149   1.949   .     S
O120   Zn150   1.942   .     S
O121   Zn148   1.951   .     S
O122   Zn150   1.958   .     S
O123   Zn149   1.947   .     S
O124   Zn147   1.942   .     S
O125   S144    1.502   .     D
O126   S144    1.502   .     D
O127   H182    0.991   .     S
O127   S219    1.683   .     S
O128   S145    1.504   .     D
O129   S145    1.504   .     D
O131   Zn147   1.919   .     S
O132   S146    1.503   .     D
O133   S146    1.502   .     D
O134   S146    1.682   .     S
O135   C772    1.221   1_554 S
O137   Zn150   1.928   .     S
O138   Zn148   1.945   .     S
O139   Zn149   1.952   .     S
O140   Zn150   1.944   .     S
O141   Zn147   1.940   .     S
O142   Zn148   1.936   .     S
O143   Zn149   1.925   .     S
S145   O205    1.683   .     S
S145   C161    1.786   .     S
C151   C161    1.428   .     S
C151   O215    1.269   .     A
C151   O213    1.262   .     A
C152   H194    1.078   .     S
C152   C177    1.410   .     A
C152   C828    1.383   .     S
C153   C155    1.390   .     A
C153   C827    1.383   1_554 S
C153   H866    1.083   1_554 S
C154   C160    1.463   .     S
C154   O214    1.296   .     A
C154   O216    1.277   .     A
C155   C156    1.420   .     A
C155   C157    1.393   .     A
C156   C159    1.427   .     A
C156   C178    1.424   .     A
C157   C158    1.382   .     A
C157   H187    1.084   .     S
C158   C170    1.398   .     A
C158   H190    1.084   .     S
C159   C170    1.417   .     A
C159   S221    1.801   .     S
C160   C11     1.368   1_655 S
C160   S69     1.790   1_655 S
C162   H192    1.085   .     S
C162   C171    1.392   .     A
C162   C169    1.399   .     A
C163   C166    1.450   .     S
C163   C389    1.331   .     S
C163   H413    1.088   .     S
C164   C165    1.434   .     S
C164   C613    1.331   1_545 S
C164   H639    1.086   1_545 S
C165   O217    1.281   .     A
C165   O206    1.281   .     A
C166   O218    1.278   .     A
C166   O212    1.279   .     A
C167   O198    1.277   .     A
C167   C170    1.448   .     S
C167   O196    1.269   .     A
C168   O197    1.287   .     A
C168   C169    1.475   .     S
C168   O199    1.286   .     A
C169   C173    1.417   .     A
C171   C176    1.414   .     A
C171   C172    1.485   .     S
C172   H185    1.086   .     S
C172   O885    1.221   .     S
C173   C174    1.487   .     S
C173   C175    1.427   .     A
C174   O211    1.222   .     D
C174   H186    1.086   .     S
C175   C176    1.424   .     A
C175   C177    1.430   .     A
C176   C855    1.402   .     S
C177   C853    1.422   .     S
C178   C179    1.402   .     A
C178   C852    1.422   1_554 S
C179   H193    1.078   .     S
C179   C180    1.385   .     A
C180   H181    1.082   .     S
C180   C851    1.402   1_554 S
H183   O55     0.991   1_655 S
H184   O209    0.991   .     S
H188   C613    1.088   1_545 S
H189   C389    1.086   .     S
H191   C828    1.083   .     S
O195   Zn223   1.940   .     S
O195   Zn222   1.973   .     S
O195   Zn224   1.949   .     S
O195   Zn225   1.942   .     S
O196   Zn223   1.951   .     S
O197   Zn225   1.958   .     S
O198   Zn224   1.947   .     S
O199   Zn222   1.942   .     S
O200   S219    1.502   .     D
O201   S219    1.502   .     D
O202   H32     0.991   1_655 S
O202   S69     1.683   1_655 S
O203   S220    1.504   .     D
O204   S220    1.504   .     D
O206   Zn222   1.919   .     S
O207   S221    1.503   .     D
O208   S221    1.502   .     D
O209   S221    1.682   .     S
O210   C847    1.221   1_554 S
O212   Zn225   1.928   .     S
O213   Zn223   1.945   .     S
O214   Zn224   1.952   .     S
O215   Zn225   1.944   .     S
O216   Zn222   1.940   .     S
O217   Zn223   1.936   .     S
O218   Zn224   1.925   .     S
S220   O55     1.683   1_655 S
S220   C11     1.786   1_655 S
C226   C236    1.428   .     S
C226   O290    1.269   .     A
C226   O288    1.262   .     A
C227   H269    1.078   .     S
C227   C252    1.410   .     A
C227   C903    1.383   .     S
C228   C230    1.390   .     A
C228   C902    1.383   1_554 S
C228   H941    1.083   1_554 S
C229   C235    1.463   .     S
C229   O289    1.296   .     A
C229   O291    1.277   .     A
C230   C231    1.420   .     A
C230   C232    1.393   .     A
C231   C234    1.427   .     A
C231   C253    1.424   .     A
C232   C233    1.382   .     A
C232   H262    1.084   .     S
C233   C245    1.398   .     A
C233   H265    1.084   .     S
C234   C245    1.417   .     A
C234   S296    1.801   .     S
C235   C311    1.368   .     S
C235   S369    1.790   .     S
C236   C385    1.368   1_455 S
C236   S445    1.786   1_455 S
C237   H267    1.085   .     S
C237   C246    1.392   .     A
C237   C244    1.399   .     A
C238   C241    1.450   .     S
C238   C464    1.331   .     S
C238   H488    1.088   .     S
C239   C240    1.434   .     S
C240   O292    1.281   .     A
C240   O281    1.281   .     A
C241   O293    1.278   .     A
C241   O287    1.279   .     A
C242   O273    1.277   .     A
C242   C245    1.448   .     S
C242   O271    1.269   .     A
C243   O272    1.287   .     A
C243   C244    1.475   .     S
C243   O274    1.286   .     A
C244   C248    1.417   .     A
C246   C251    1.414   .     A
C246   C247    1.485   .     S
C247   H260    1.086   .     S
C247   O960    1.221   .     S
C248   C249    1.487   .     S
C248   C250    1.427   .     A
C249   O286    1.222   .     D
C249   H261    1.086   .     S
C250   C251    1.424   .     A
C250   C252    1.430   .     A
C251   C930    1.402   .     S
C252   C928    1.422   .     S
C253   C254    1.402   .     A
C253   C927    1.422   1_554 S
C254   H268    1.078   .     S
C254   C255    1.385   .     A
C255   H256    1.082   .     S
C255   C926    1.402   1_554 S
H257   O427    0.991   1_455 S
H258   O355    0.991   .     S
H259   O284    0.991   .     S
H264   C464    1.086   .     S
H266   C903    1.083   .     S
O270   Zn298   1.940   .     S
O270   Zn297   1.973   .     S
O270   Zn299   1.949   .     S
O270   Zn300   1.942   .     S
O271   Zn298   1.951   .     S
O272   Zn300   1.958   .     S
O273   Zn299   1.947   .     S
O274   Zn297   1.942   .     S
O275   S294    1.502   .     D
O276   S294    1.502   .     D
O277   H332    0.991   .     S
O277   S369    1.683   .     S
O278   S295    1.504   .     D
O279   S295    1.504   .     D
O280   H408    0.991   1_455 S
O280   S445    1.683   1_455 S
O281   Zn297   1.919   .     S
O282   S296    1.503   .     D
O283   S296    1.502   .     D
O284   S296    1.682   .     S
O285   C922    1.221   1_554 S
O287   Zn300   1.928   .     S
O288   Zn298   1.945   .     S
O289   Zn299   1.952   .     S
O290   Zn300   1.944   .     S
O291   Zn297   1.940   .     S
O292   Zn298   1.936   .     S
O293   Zn299   1.925   .     S
S294   C385    1.790   1_455 S
S294   O427    1.683   1_455 S
S295   O355    1.683   .     S
S295   C311    1.786   .     S
C301   C311    1.428   .     S
C301   O365    1.269   .     A
C301   O363    1.262   .     A
C302   H344    1.078   .     S
C302   C327    1.410   .     A
C302   C978    1.383   .     S
C303   C305    1.390   .     A
C303   C977    1.383   1_554 S
C303   H1016   1.083   1_554 S
C304   C310    1.463   .     S
C304   O364    1.296   .     A
C304   O366    1.277   .     A
C305   C306    1.420   .     A
C305   C307    1.393   .     A
C306   C309    1.427   .     A
C306   C328    1.424   .     A
C307   C308    1.382   .     A
C307   H337    1.084   .     S
C308   C320    1.398   .     A
C308   H340    1.084   .     S
C309   C320    1.417   .     A
C309   S371    1.801   .     S
C310   C386    1.368   .     S
C310   S444    1.790   .     S
C312   H342    1.085   .     S
C312   C321    1.392   .     A
C312   C319    1.399   .     A
C313   C316    1.450   .     S
C313   C539    1.331   .     S
C313   H563    1.088   .     S
C314   C315    1.434   .     S
C315   O367    1.281   .     A
C315   O356    1.281   .     A
C316   O368    1.278   .     A
C316   O362    1.279   .     A
C317   O348    1.277   .     A
C317   C320    1.448   .     S
C317   O346    1.269   .     A
C318   O347    1.287   .     A
C318   C319    1.475   .     S
C318   O349    1.286   .     A
C319   C323    1.417   .     A
C321   C326    1.414   .     A
C321   C322    1.485   .     S
C322   H335    1.086   .     S
C322   O1035   1.221   .     S
C323   C324    1.487   .     S
C323   C325    1.427   .     A
C324   O361    1.222   .     D
C324   H336    1.086   .     S
C325   C326    1.424   .     A
C325   C327    1.430   .     A
C326   C1005   1.402   .     S
C327   C1003   1.422   .     S
C328   C329    1.402   .     A
C328   C1002   1.422   1_554 S
C329   H343    1.078   .     S
C329   C330    1.385   .     A
C330   H331    1.082   .     S
C330   C1001   1.402   1_554 S
H333   O430    0.991   .     S
H334   O359    0.991   .     S
H339   C539    1.086   .     S
H341   C978    1.083   .     S
O345   Zn373   1.940   .     S
O345   Zn372   1.973   .     S
O345   Zn374   1.949   .     S
O345   Zn375   1.942   .     S
O346   Zn373   1.951   .     S
O347   Zn375   1.958   .     S
O348   Zn374   1.947   .     S
O349   Zn372   1.942   .     S
O350   S369    1.502   .     D
O351   S369    1.502   .     D
O352   H407    0.991   .     S
O352   S444    1.683   .     S
O353   S370    1.504   .     D
O354   S370    1.504   .     D
O356   Zn372   1.919   .     S
O357   S371    1.503   .     D
O358   S371    1.502   .     D
O359   S371    1.682   .     S
O360   C997    1.221   1_554 S
O362   Zn375   1.928   .     S
O363   Zn373   1.945   .     S
O364   Zn374   1.952   .     S
O365   Zn375   1.944   .     S
O366   Zn372   1.940   .     S
O367   Zn373   1.936   .     S
O368   Zn374   1.925   .     S
S370   O430    1.683   .     S
S370   C386    1.786   .     S
C376   C386    1.428   .     S
C376   O440    1.269   .     A
C376   O438    1.262   .     A
C377   H419    1.078   .     S
C377   C402    1.410   .     A
C377   C1053   1.383   .     S
C378   C380    1.390   .     A
C378   C1052   1.383   1_554 S
C378   H1091   1.083   1_554 S
C379   C385    1.463   .     S
C379   O439    1.296   .     A
C379   O441    1.277   .     A
C380   C381    1.420   .     A
C380   C382    1.393   .     A
C381   C384    1.427   .     A
C381   C403    1.424   .     A
C382   C383    1.382   .     A
C382   H412    1.084   .     S
C383   C395    1.398   .     A
C383   H415    1.084   .     S
C384   C395    1.417   .     A
C384   S446    1.801   .     S
C385   C236    1.368   1_655 S
C385   S294    1.790   1_655 S
C387   H417    1.085   .     S
C387   C396    1.392   .     A
C387   C394    1.399   .     A
C388   C391    1.450   .     S
C388   C614    1.331   .     S
C388   H638    1.088   .     S
C389   C390    1.434   .     S
C390   O442    1.281   .     A
C390   O431    1.281   .     A
C391   O443    1.278   .     A
C391   O437    1.279   .     A
C392   O423    1.277   .     A
C392   C395    1.448   .     S
C392   O421    1.269   .     A
C393   O422    1.287   .     A
C393   C394    1.475   .     S
C393   O424    1.286   .     A
C394   C398    1.417   .     A
C396   C401    1.414   .     A
C396   C397    1.485   .     S
C397   H410    1.086   .     S
C397   O1110   1.221   .     S
C398   C399    1.487   .     S
C398   C400    1.427   .     A
C399   O436    1.222   .     D
C399   H411    1.086   .     S
C400   C401    1.424   .     A
C400   C402    1.430   .     A
C401   C1080   1.402   .     S
C402   C1078   1.422   .     S
C403   C404    1.402   .     A
C403   C1077   1.422   1_554 S
C404   H418    1.078   .     S
C404   C405    1.385   .     A
C405   H406    1.082   .     S
C405   C1076   1.402   1_554 S
H408   O280    0.991   1_655 S
H409   O434    0.991   .     S
H414   C614    1.086   .     S
H416   C1053   1.083   .     S
O420   Zn448   1.940   .     S
O420   Zn447   1.973   .     S
O420   Zn449   1.949   .     S
O420   Zn450   1.942   .     S
O421   Zn448   1.951   .     S
O422   Zn450   1.958   .     S
O423   Zn449   1.947   .     S
O424   Zn447   1.942   .     S
O425   S444    1.502   .     D
O426   S444    1.502   .     D
O427   H257    0.991   1_655 S
O427   S294    1.683   1_655 S
O428   S445    1.504   .     D
O429   S445    1.504   .     D
O431   Zn447   1.919   .     S
O432   S446    1.503   .     D
O433   S446    1.502   .     D
O434   S446    1.682   .     S
O435   C1072   1.221   1_554 S
O437   Zn450   1.928   .     S
O438   Zn448   1.945   .     S
O439   Zn449   1.952   .     S
O440   Zn450   1.944   .     S
O441   Zn447   1.940   .     S
O442   Zn448   1.936   .     S
O443   Zn449   1.925   .     S
S445   O280    1.683   1_655 S
S445   C236    1.786   1_655 S
C451   C461    1.428   .     S
C451   O515    1.269   .     A
C451   O513    1.262   .     A
C452   H494    1.078   .     S
C452   C477    1.410   .     A
C452   C1128   1.383   .     S
C453   C455    1.390   .     A
C453   C1127   1.383   1_554 S
C453   H1166   1.083   1_554 S
C454   C460    1.463   .     S
C454   O514    1.296   .     A
C454   O516    1.277   .     A
C455   C456    1.420   .     A
C455   C457    1.393   .     A
C456   C459    1.427   .     A
C456   C478    1.424   .     A
C457   C458    1.382   .     A
C457   H487    1.084   .     S
C458   C470    1.398   .     A
C458   H490    1.084   .     S
C459   C470    1.417   .     A
C459   S521    1.801   .     S
C460   C536    1.368   .     S
C460   S594    1.790   .     S
C461   C610    1.368   1_455 S
C461   S670    1.786   1_455 S
C462   H492    1.085   .     S
C462   C471    1.392   .     A
C462   C469    1.399   .     A
C463   C466    1.450   .     S
C463   C14     1.331   1_565 S
C463   H38     1.088   1_565 S
C464   C465    1.434   .     S
C465   O517    1.281   .     A
C465   O506    1.281   .     A
C466   O518    1.278   .     A
C466   O512    1.279   .     A
C467   O498    1.277   .     A
C467   C470    1.448   .     S
C467   O496    1.269   .     A
C468   O497    1.287   .     A
C468   C469    1.475   .     S
C468   O499    1.286   .     A
C469   C473    1.417   .     A
C471   C476    1.414   .     A
C471   C472    1.485   .     S
C472   H485    1.086   .     S
C472   O1185   1.221   .     S
C473   C474    1.487   .     S
C473   C475    1.427   .     A
C474   O511    1.222   .     D
C474   H486    1.086   .     S
C475   C476    1.424   .     A
C475   C477    1.430   .     A
C476   C1155   1.402   .     S
C477   C1153   1.422   .     S
C478   C479    1.402   .     A
C478   C1152   1.422   1_554 S
C479   H493    1.078   .     S
C479   C480    1.385   .     A
C480   H481    1.082   .     S
C480   C1151   1.402   1_554 S
H482   O652    0.991   1_455 S
H483   O580    0.991   .     S
H484   O509    0.991   .     S
H489   C14     1.086   1_565 S
H491   C1128   1.083   .     S
O495   Zn523   1.940   .     S
O495   Zn522   1.973   .     S
O495   Zn524   1.949   .     S
O495   Zn525   1.942   .     S
O496   Zn523   1.951   .     S
O497   Zn525   1.958   .     S
O498   Zn524   1.947   .     S
O499   Zn522   1.942   .     S
O500   S519    1.502   .     D
O501   S519    1.502   .     D
O502   H557    0.991   .     S
O502   S594    1.683   .     S
O503   S520    1.504   .     D
O504   S520    1.504   .     D
O505   H633    0.991   1_455 S
O505   S670    1.683   1_455 S
O506   Zn522   1.919   .     S
O507   S521    1.503   .     D
O508   S521    1.502   .     D
O509   S521    1.682   .     S
O510   C1147   1.221   1_554 S
O512   Zn525   1.928   .     S
O513   Zn523   1.945   .     S
O514   Zn524   1.952   .     S
O515   Zn525   1.944   .     S
O516   Zn522   1.940   .     S
O517   Zn523   1.936   .     S
O518   Zn524   1.925   .     S
S519   C610    1.790   1_455 S
S519   O652    1.683   1_455 S
S520   O580    1.683   .     S
S520   C536    1.786   .     S
C526   C536    1.428   .     S
C526   O590    1.269   .     A
C526   O588    1.262   .     A
C527   H569    1.078   .     S
C527   C552    1.410   .     A
C527   C1203   1.383   .     S
C528   C530    1.390   .     A
C528   C1202   1.383   1_554 S
C528   H1241   1.083   1_554 S
C529   C535    1.463   .     S
C529   O589    1.296   .     A
C529   O591    1.277   .     A
C530   C531    1.420   .     A
C530   C532    1.393   .     A
C531   C534    1.427   .     A
C531   C553    1.424   .     A
C532   C533    1.382   .     A
C532   H562    1.084   .     S
C533   C545    1.398   .     A
C533   H565    1.084   .     S
C534   C545    1.417   .     A
C534   S596    1.801   .     S
C535   C611    1.368   .     S
C535   S669    1.790   .     S
C537   H567    1.085   .     S
C537   C546    1.392   .     A
C537   C544    1.399   .     A
C538   C541    1.450   .     S
C538   C89     1.331   1_565 S
C538   H113    1.088   1_565 S
C539   C540    1.434   .     S
C540   O592    1.281   .     A
C540   O581    1.281   .     A
C541   O593    1.278   .     A
C541   O587    1.279   .     A
C542   O573    1.277   .     A
C542   C545    1.448   .     S
C542   O571    1.269   .     A
C543   O572    1.287   .     A
C543   C544    1.475   .     S
C543   O574    1.286   .     A
C544   C548    1.417   .     A
C546   C551    1.414   .     A
C546   C547    1.485   .     S
C547   H560    1.086   .     S
C547   O1260   1.221   .     S
C548   C549    1.487   .     S
C548   C550    1.427   .     A
C549   O586    1.222   .     D
C549   H561    1.086   .     S
C550   C551    1.424   .     A
C550   C552    1.430   .     A
C551   C1230   1.402   .     S
C552   C1228   1.422   .     S
C553   C554    1.402   .     A
C553   C1227   1.422   1_554 S
C554   H568    1.078   .     S
C554   C555    1.385   .     A
C555   H556    1.082   .     S
C555   C1226   1.402   1_554 S
H558   O655    0.991   .     S
H559   O584    0.991   .     S
H564   C89     1.086   1_565 S
H566   C1203   1.083   .     S
O570   Zn598   1.940   .     S
O570   Zn597   1.973   .     S
O570   Zn599   1.949   .     S
O570   Zn600   1.942   .     S
O571   Zn598   1.951   .     S
O572   Zn600   1.958   .     S
O573   Zn599   1.947   .     S
O574   Zn597   1.942   .     S
O575   S594    1.502   .     D
O576   S594    1.502   .     D
O577   H632    0.991   .     S
O577   S669    1.683   .     S
O578   S595    1.504   .     D
O579   S595    1.504   .     D
O581   Zn597   1.919   .     S
O582   S596    1.503   .     D
O583   S596    1.502   .     D
O584   S596    1.682   .     S
O585   C1222   1.221   1_554 S
O587   Zn600   1.928   .     S
O588   Zn598   1.945   .     S
O589   Zn599   1.952   .     S
O590   Zn600   1.944   .     S
O591   Zn597   1.940   .     S
O592   Zn598   1.936   .     S
O593   Zn599   1.925   .     S
S595   O655    1.683   .     S
S595   C611    1.786   .     S
C601   C611    1.428   .     S
C601   O665    1.269   .     A
C601   O663    1.262   .     A
C602   H644    1.078   .     S
C602   C627    1.410   .     A
C602   C1278   1.383   .     S
C603   C605    1.390   .     A
C603   C1277   1.383   1_554 S
C603   H1316   1.083   1_554 S
C604   C610    1.463   .     S
C604   O664    1.296   .     A
C604   O666    1.277   .     A
C605   C606    1.420   .     A
C605   C607    1.393   .     A
C606   C609    1.427   .     A
C606   C628    1.424   .     A
C607   C608    1.382   .     A
C607   H637    1.084   .     S
C608   C620    1.398   .     A
C608   H640    1.084   .     S
C609   C620    1.417   .     A
C609   S671    1.801   .     S
C610   C461    1.368   1_655 S
C610   S519    1.790   1_655 S
C612   H642    1.085   .     S
C612   C621    1.392   .     A
C612   C619    1.399   .     A
C613   C616    1.450   .     S
C613   C164    1.331   1_565 S
C613   H188    1.088   1_565 S
C614   C615    1.434   .     S
C615   O667    1.281   .     A
C615   O656    1.281   .     A
C616   O668    1.278   .     A
C616   O662    1.279   .     A
C617   O648    1.277   .     A
C617   C620    1.448   .     S
C617   O646    1.269   .     A
C618   O647    1.287   .     A
C618   C619    1.475   .     S
C618   O649    1.286   .     A
C619   C623    1.417   .     A
C621   C626    1.414   .     A
C621   C622    1.485   .     S
C622   H635    1.086   .     S
C622   O1335   1.221   .     S
C623   C624    1.487   .     S
C623   C625    1.427   .     A
C624   O661    1.222   .     D
C624   H636    1.086   .     S
C625   C626    1.424   .     A
C625   C627    1.430   .     A
C626   C1305   1.402   .     S
C627   C1303   1.422   .     S
C628   C629    1.402   .     A
C628   C1302   1.422   1_554 S
C629   H643    1.078   .     S
C629   C630    1.385   .     A
C630   H631    1.082   .     S
C630   C1301   1.402   1_554 S
H633   O505    0.991   1_655 S
H634   O659    0.991   .     S
H639   C164    1.086   1_565 S
H641   C1278   1.083   .     S
O645   Zn673   1.940   .     S
O645   Zn672   1.973   .     S
O645   Zn674   1.949   .     S
O645   Zn675   1.942   .     S
O646   Zn673   1.951   .     S
O647   Zn675   1.958   .     S
O648   Zn674   1.947   .     S
O649   Zn672   1.942   .     S
O650   S669    1.502   .     D
O651   S669    1.502   .     D
O652   H482    0.991   1_655 S
O652   S519    1.683   1_655 S
O653   S670    1.504   .     D
O654   S670    1.504   .     D
O656   Zn672   1.919   .     S
O657   S671    1.503   .     D
O658   S671    1.502   .     D
O659   S671    1.682   .     S
O660   C1297   1.221   1_554 S
O662   Zn675   1.928   .     S
O663   Zn673   1.945   .     S
O664   Zn674   1.952   .     S
O665   Zn675   1.944   .     S
O666   Zn672   1.940   .     S
O667   Zn673   1.936   .     S
O668   Zn674   1.925   .     S
S670   O505    1.683   1_655 S
S670   C461    1.786   1_655 S
C676   C686    1.428   .     S
C676   O740    1.269   .     A
C676   O738    1.262   .     A
C677   H719    1.078   .     S
C677   C702    1.410   .     A
C677   C3      1.383   1_556 S
C678   C680    1.390   .     A
C679   C685    1.463   .     S
C679   O739    1.296   .     A
C679   O741    1.277   .     A
C680   C681    1.420   .     A
C680   C682    1.393   .     A
C681   C684    1.427   .     A
C681   C703    1.424   .     A
C682   C683    1.382   .     A
C682   H712    1.084   .     S
C683   C695    1.398   .     A
C683   H715    1.084   .     S
C684   C695    1.417   .     A
C684   S746    1.801   .     S
C685   C761    1.368   .     S
C685   S819    1.790   .     S
C686   C835    1.368   1_455 S
C686   S895    1.786   1_455 S
C687   H717    1.085   .     S
C687   C696    1.392   .     A
C687   C694    1.399   .     A
C688   C691    1.450   .     S
C688   C914    1.331   .     S
C688   H938    1.088   .     S
C689   C690    1.434   .     S
C689   C1138   1.331   1_545 S
C689   H1164   1.086   1_545 S
C690   O742    1.281   .     A
C690   O731    1.281   .     A
C691   O743    1.278   .     A
C691   O737    1.279   .     A
C692   O723    1.277   .     A
C692   C695    1.448   .     S
C692   O721    1.269   .     A
C693   O722    1.287   .     A
C693   C694    1.475   .     S
C693   O724    1.286   .     A
C694   C698    1.417   .     A
C696   C701    1.414   .     A
C696   C697    1.485   .     S
C697   H710    1.086   .     S
C697   O60     1.221   1_556 S
C698   C699    1.487   .     S
C698   C700    1.427   .     A
C699   O736    1.222   .     D
C699   H711    1.086   .     S
C700   C701    1.424   .     A
C700   C702    1.430   .     A
C701   C30     1.402   1_556 S
C702   C28     1.422   1_556 S
C703   C704    1.402   .     A
C704   H718    1.078   .     S
C704   C705    1.385   .     A
C705   H706    1.082   .     S
H707   O877    0.991   1_455 S
H708   O805    0.991   .     S
H709   O734    0.991   .     S
H713   C1138   1.088   1_545 S
H714   C914    1.086   .     S
H716   C3      1.083   1_556 S
O720   Zn748   1.940   .     S
O720   Zn747   1.973   .     S
O720   Zn749   1.949   .     S
O720   Zn750   1.942   .     S
O721   Zn748   1.951   .     S
O722   Zn750   1.958   .     S
O723   Zn749   1.947   .     S
O724   Zn747   1.942   .     S
O725   S744    1.502   .     D
O726   S744    1.502   .     D
O727   H782    0.991   .     S
O727   S819    1.683   .     S
O728   S745    1.504   .     D
O729   S745    1.504   .     D
O730   H858    0.991   1_455 S
O730   S895    1.683   1_455 S
O731   Zn747   1.919   .     S
O732   S746    1.503   .     D
O733   S746    1.502   .     D
O734   S746    1.682   .     S
O737   Zn750   1.928   .     S
O738   Zn748   1.945   .     S
O739   Zn749   1.952   .     S
O740   Zn750   1.944   .     S
O741   Zn747   1.940   .     S
O742   Zn748   1.936   .     S
O743   Zn749   1.925   .     S
S744   C835    1.790   1_455 S
S744   O877    1.683   1_455 S
S745   O805    1.683   .     S
S745   C761    1.786   .     S
C751   C761    1.428   .     S
C751   O815    1.269   .     A
C751   O813    1.262   .     A
C752   H794    1.078   .     S
C752   C777    1.410   .     A
C752   C78     1.383   1_556 S
C753   C755    1.390   .     A
C754   C760    1.463   .     S
C754   O814    1.296   .     A
C754   O816    1.277   .     A
C755   C756    1.420   .     A
C755   C757    1.393   .     A
C756   C759    1.427   .     A
C756   C778    1.424   .     A
C757   C758    1.382   .     A
C757   H787    1.084   .     S
C758   C770    1.398   .     A
C758   H790    1.084   .     S
C759   C770    1.417   .     A
C759   S821    1.801   .     S
C760   C836    1.368   .     S
C760   S894    1.790   .     S
C762   H792    1.085   .     S
C762   C771    1.392   .     A
C762   C769    1.399   .     A
C763   C766    1.450   .     S
C763   C989    1.331   .     S
C763   H1013   1.088   .     S
C764   C765    1.434   .     S
C764   C1213   1.331   1_545 S
C764   H1239   1.086   1_545 S
C765   O817    1.281   .     A
C765   O806    1.281   .     A
C766   O818    1.278   .     A
C766   O812    1.279   .     A
C767   O798    1.277   .     A
C767   C770    1.448   .     S
C767   O796    1.269   .     A
C768   O797    1.287   .     A
C768   C769    1.475   .     S
C768   O799    1.286   .     A
C769   C773    1.417   .     A
C771   C776    1.414   .     A
C771   C772    1.485   .     S
C772   H785    1.086   .     S
C772   O135    1.221   1_556 S
C773   C774    1.487   .     S
C773   C775    1.427   .     A
C774   O811    1.222   .     D
C774   H786    1.086   .     S
C775   C776    1.424   .     A
C775   C777    1.430   .     A
C776   C105    1.402   1_556 S
C777   C103    1.422   1_556 S
C778   C779    1.402   .     A
C779   H793    1.078   .     S
C779   C780    1.385   .     A
C780   H781    1.082   .     S
H783   O880    0.991   .     S
H784   O809    0.991   .     S
H788   C1213   1.088   1_545 S
H789   C989    1.086   .     S
H791   C78     1.083   1_556 S
O795   Zn823   1.940   .     S
O795   Zn822   1.973   .     S
O795   Zn824   1.949   .     S
O795   Zn825   1.942   .     S
O796   Zn823   1.951   .     S
O797   Zn825   1.958   .     S
O798   Zn824   1.947   .     S
O799   Zn822   1.942   .     S
O800   S819    1.502   .     D
O801   S819    1.502   .     D
O802   H857    0.991   .     S
O802   S894    1.683   .     S
O803   S820    1.504   .     D
O804   S820    1.504   .     D
O806   Zn822   1.919   .     S
O807   S821    1.503   .     D
O808   S821    1.502   .     D
O809   S821    1.682   .     S
O812   Zn825   1.928   .     S
O813   Zn823   1.945   .     S
O814   Zn824   1.952   .     S
O815   Zn825   1.944   .     S
O816   Zn822   1.940   .     S
O817   Zn823   1.936   .     S
O818   Zn824   1.925   .     S
S820   O880    1.683   .     S
S820   C836    1.786   .     S
C826   C836    1.428   .     S
C826   O890    1.269   .     A
C826   O888    1.262   .     A
C827   H869    1.078   .     S
C827   C852    1.410   .     A
C827   C153    1.383   1_556 S
C828   C830    1.390   .     A
C829   C835    1.463   .     S
C829   O889    1.296   .     A
C829   O891    1.277   .     A
C830   C831    1.420   .     A
C830   C832    1.393   .     A
C831   C834    1.427   .     A
C831   C853    1.424   .     A
C832   C833    1.382   .     A
C832   H862    1.084   .     S
C833   C845    1.398   .     A
C833   H865    1.084   .     S
C834   C845    1.417   .     A
C834   S896    1.801   .     S
C835   C686    1.368   1_655 S
C835   S744    1.790   1_655 S
C837   H867    1.085   .     S
C837   C846    1.392   .     A
C837   C844    1.399   .     A
C838   C841    1.450   .     S
C838   C1064   1.331   .     S
C838   H1088   1.088   .     S
C839   C840    1.434   .     S
C839   C1288   1.331   1_545 S
C839   H1314   1.086   1_545 S
C840   O892    1.281   .     A
C840   O881    1.281   .     A
C841   O893    1.278   .     A
C841   O887    1.279   .     A
C842   O873    1.277   .     A
C842   C845    1.448   .     S
C842   O871    1.269   .     A
C843   O872    1.287   .     A
C843   C844    1.475   .     S
C843   O874    1.286   .     A
C844   C848    1.417   .     A
C846   C851    1.414   .     A
C846   C847    1.485   .     S
C847   H860    1.086   .     S
C847   O210    1.221   1_556 S
C848   C849    1.487   .     S
C848   C850    1.427   .     A
C849   O886    1.222   .     D
C849   H861    1.086   .     S
C850   C851    1.424   .     A
C850   C852    1.430   .     A
C851   C180    1.402   1_556 S
C852   C178    1.422   1_556 S
C853   C854    1.402   .     A
C854   H868    1.078   .     S
C854   C855    1.385   .     A
C855   H856    1.082   .     S
H858   O730    0.991   1_655 S
H859   O884    0.991   .     S
H863   C1288   1.088   1_545 S
H864   C1064   1.086   .     S
H866   C153    1.083   1_556 S
O870   Zn898   1.940   .     S
O870   Zn897   1.973   .     S
O870   Zn899   1.949   .     S
O870   Zn900   1.942   .     S
O871   Zn898   1.951   .     S
O872   Zn900   1.958   .     S
O873   Zn899   1.947   .     S
O874   Zn897   1.942   .     S
O875   S894    1.502   .     D
O876   S894    1.502   .     D
O877   H707    0.991   1_655 S
O877   S744    1.683   1_655 S
O878   S895    1.504   .     D
O879   S895    1.504   .     D
O881   Zn897   1.919   .     S
O882   S896    1.503   .     D
O883   S896    1.502   .     D
O884   S896    1.682   .     S
O887   Zn900   1.928   .     S
O888   Zn898   1.945   .     S
O889   Zn899   1.952   .     S
O890   Zn900   1.944   .     S
O891   Zn897   1.940   .     S
O892   Zn898   1.936   .     S
O893   Zn899   1.925   .     S
S895   O730    1.683   1_655 S
S895   C686    1.786   1_655 S
C901   C911    1.428   .     S
C901   O965    1.269   .     A
C901   O963    1.262   .     A
C902   H944    1.078   .     S
C902   C927    1.410   .     A
C902   C228    1.383   1_556 S
C903   C905    1.390   .     A
C904   C910    1.463   .     S
C904   O964    1.296   .     A
C904   O966    1.277   .     A
C905   C906    1.420   .     A
C905   C907    1.393   .     A
C906   C909    1.427   .     A
C906   C928    1.424   .     A
C907   C908    1.382   .     A
C907   H937    1.084   .     S
C908   C920    1.398   .     A
C908   H940    1.084   .     S
C909   C920    1.417   .     A
C909   S971    1.801   .     S
C910   C986    1.368   .     S
C910   S1044   1.790   .     S
C911   C1060   1.368   1_455 S
C911   S1120   1.786   1_455 S
C912   H942    1.085   .     S
C912   C921    1.392   .     A
C912   C919    1.399   .     A
C913   C916    1.450   .     S
C913   C1139   1.331   .     S
C913   H1163   1.088   .     S
C914   C915    1.434   .     S
C915   O967    1.281   .     A
C915   O956    1.281   .     A
C916   O968    1.278   .     A
C916   O962    1.279   .     A
C917   O948    1.277   .     A
C917   C920    1.448   .     S
C917   O946    1.269   .     A
C918   O947    1.287   .     A
C918   C919    1.475   .     S
C918   O949    1.286   .     A
C919   C923    1.417   .     A
C921   C926    1.414   .     A
C921   C922    1.485   .     S
C922   H935    1.086   .     S
C922   O285    1.221   1_556 S
C923   C924    1.487   .     S
C923   C925    1.427   .     A
C924   O961    1.222   .     D
C924   H936    1.086   .     S
C925   C926    1.424   .     A
C925   C927    1.430   .     A
C926   C255    1.402   1_556 S
C927   C253    1.422   1_556 S
C928   C929    1.402   .     A
C929   H943    1.078   .     S
C929   C930    1.385   .     A
C930   H931    1.082   .     S
H932   O1102   0.991   1_455 S
H933   O1030   0.991   .     S
H934   O959    0.991   .     S
H939   C1139   1.086   .     S
H941   C228    1.083   1_556 S
O945   Zn973   1.940   .     S
O945   Zn972   1.973   .     S
O945   Zn974   1.949   .     S
O945   Zn975   1.942   .     S
O946   Zn973   1.951   .     S
O947   Zn975   1.958   .     S
O948   Zn974   1.947   .     S
O949   Zn972   1.942   .     S
O950   S969    1.502   .     D
O951   S969    1.502   .     D
O952   H1007   0.991   .     S
O952   S1044   1.683   .     S
O953   S970    1.504   .     D
O954   S970    1.504   .     D
O955   H1083   0.991   1_455 S
O955   S1120   1.683   1_455 S
O956   Zn972   1.919   .     S
O957   S971    1.503   .     D
O958   S971    1.502   .     D
O959   S971    1.682   .     S
O962   Zn975   1.928   .     S
O963   Zn973   1.945   .     S
O964   Zn974   1.952   .     S
O965   Zn975   1.944   .     S
O966   Zn972   1.940   .     S
O967   Zn973   1.936   .     S
O968   Zn974   1.925   .     S
S969   C1060   1.790   1_455 S
S969   O1102   1.683   1_455 S
S970   O1030   1.683   .     S
S970   C986    1.786   .     S
C976   C986    1.428   .     S
C976   O1040   1.269   .     A
C976   O1038   1.262   .     A
C977   H1019   1.078   .     S
C977   C1002   1.410   .     A
C977   C303    1.383   1_556 S
C978   C980    1.390   .     A
C979   C985    1.463   .     S
C979   O1039   1.296   .     A
C979   O1041   1.277   .     A
C980   C981    1.420   .     A
C980   C982    1.393   .     A
C981   C984    1.427   .     A
C981   C1003   1.424   .     A
C982   C983    1.382   .     A
C982   H1012   1.084   .     S
C983   C995    1.398   .     A
C983   H1015   1.084   .     S
C984   C995    1.417   .     A
C984   S1046   1.801   .     S
C985   C1061   1.368   .     S
C985   S1119   1.790   .     S
C987   H1017   1.085   .     S
C987   C996    1.392   .     A
C987   C994    1.399   .     A
C988   C991    1.450   .     S
C988   C1214   1.331   .     S
C988   H1238   1.088   .     S
C989   C990    1.434   .     S
C990   O1042   1.281   .     A
C990   O1031   1.281   .     A
C991   O1043   1.278   .     A
C991   O1037   1.279   .     A
C992   O1023   1.277   .     A
C992   C995    1.448   .     S
C992   O1021   1.269   .     A
C993   O1022   1.287   .     A
C993   C994    1.475   .     S
C993   O1024   1.286   .     A
C994   C998    1.417   .     A
C996   C1001   1.414   .     A
C996   C997    1.485   .     S
C997   H1010   1.086   .     S
C997   O360    1.221   1_556 S
C998   C999    1.487   .     S
C998   C1000   1.427   .     A
C999   O1036   1.222   .     D
C999   H1011   1.086   .     S
C1000  C1001   1.424   .     A
C1000  C1002   1.430   .     A
C1001  C330    1.402   1_556 S
C1002  C328    1.422   1_556 S
C1003  C1004   1.402   .     A
C1004  H1018   1.078   .     S
C1004  C1005   1.385   .     A
C1005  H1006   1.082   .     S
H1008  O1105   0.991   .     S
H1009  O1034   0.991   .     S
H1014  C1214   1.086   .     S
H1016  C303    1.083   1_556 S
O1020  Zn1048  1.940   .     S
O1020  Zn1047  1.973   .     S
O1020  Zn1049  1.949   .     S
O1020  Zn1050  1.942   .     S
O1021  Zn1048  1.951   .     S
O1022  Zn1050  1.958   .     S
O1023  Zn1049  1.947   .     S
O1024  Zn1047  1.942   .     S
O1025  S1044   1.502   .     D
O1026  S1044   1.502   .     D
O1027  H1082   0.991   .     S
O1027  S1119   1.683   .     S
O1028  S1045   1.504   .     D
O1029  S1045   1.504   .     D
O1031  Zn1047  1.919   .     S
O1032  S1046   1.503   .     D
O1033  S1046   1.502   .     D
O1034  S1046   1.682   .     S
O1037  Zn1050  1.928   .     S
O1038  Zn1048  1.945   .     S
O1039  Zn1049  1.952   .     S
O1040  Zn1050  1.944   .     S
O1041  Zn1047  1.940   .     S
O1042  Zn1048  1.936   .     S
O1043  Zn1049  1.925   .     S
S1045  O1105   1.683   .     S
S1045  C1061   1.786   .     S
C1051  C1061   1.428   .     S
C1051  O1115   1.269   .     A
C1051  O1113   1.262   .     A
C1052  H1094   1.078   .     S
C1052  C1077   1.410   .     A
C1052  C378    1.383   1_556 S
C1053  C1055   1.390   .     A
C1054  C1060   1.463   .     S
C1054  O1114   1.296   .     A
C1054  O1116   1.277   .     A
C1055  C1056   1.420   .     A
C1055  C1057   1.393   .     A
C1056  C1059   1.427   .     A
C1056  C1078   1.424   .     A
C1057  C1058   1.382   .     A
C1057  H1087   1.084   .     S
C1058  C1070   1.398   .     A
C1058  H1090   1.084   .     S
C1059  C1070   1.417   .     A
C1059  S1121   1.801   .     S
C1060  C911    1.368   1_655 S
C1060  S969    1.790   1_655 S
C1062  H1092   1.085   .     S
C1062  C1071   1.392   .     A
C1062  C1069   1.399   .     A
C1063  C1066   1.450   .     S
C1063  C1289   1.331   .     S
C1063  H1313   1.088   .     S
C1064  C1065   1.434   .     S
C1065  O1117   1.281   .     A
C1065  O1106   1.281   .     A
C1066  O1118   1.278   .     A
C1066  O1112   1.279   .     A
C1067  O1098   1.277   .     A
C1067  C1070   1.448   .     S
C1067  O1096   1.269   .     A
C1068  O1097   1.287   .     A
C1068  C1069   1.475   .     S
C1068  O1099   1.286   .     A
C1069  C1073   1.417   .     A
C1071  C1076   1.414   .     A
C1071  C1072   1.485   .     S
C1072  H1085   1.086   .     S
C1072  O435    1.221   1_556 S
C1073  C1074   1.487   .     S
C1073  C1075   1.427   .     A
C1074  O1111   1.222   .     D
C1074  H1086   1.086   .     S
C1075  C1076   1.424   .     A
C1075  C1077   1.430   .     A
C1076  C405    1.402   1_556 S
C1077  C403    1.422   1_556 S
C1078  C1079   1.402   .     A
C1079  H1093   1.078   .     S
C1079  C1080   1.385   .     A
C1080  H1081   1.082   .     S
H1083  O955    0.991   1_655 S
H1084  O1109   0.991   .     S
H1089  C1289   1.086   .     S
H1091  C378    1.083   1_556 S
O1095  Zn1123  1.940   .     S
O1095  Zn1122  1.973   .     S
O1095  Zn1124  1.949   .     S
O1095  Zn1125  1.942   .     S
O1096  Zn1123  1.951   .     S
O1097  Zn1125  1.958   .     S
O1098  Zn1124  1.947   .     S
O1099  Zn1122  1.942   .     S
O1100  S1119   1.502   .     D
O1101  S1119   1.502   .     D
O1102  H932    0.991   1_655 S
O1102  S969    1.683   1_655 S
O1103  S1120   1.504   .     D
O1104  S1120   1.504   .     D
O1106  Zn1122  1.919   .     S
O1107  S1121   1.503   .     D
O1108  S1121   1.502   .     D
O1109  S1121   1.682   .     S
O1112  Zn1125  1.928   .     S
O1113  Zn1123  1.945   .     S
O1114  Zn1124  1.952   .     S
O1115  Zn1125  1.944   .     S
O1116  Zn1122  1.940   .     S
O1117  Zn1123  1.936   .     S
O1118  Zn1124  1.925   .     S
S1120  O955    1.683   1_655 S
S1120  C911    1.786   1_655 S
C1126  C1136   1.428   .     S
C1126  O1190   1.269   .     A
C1126  O1188   1.262   .     A
C1127  H1169   1.078   .     S
C1127  C1152   1.410   .     A
C1127  C453    1.383   1_556 S
C1128  C1130   1.390   .     A
C1129  C1135   1.463   .     S
C1129  O1189   1.296   .     A
C1129  O1191   1.277   .     A
C1130  C1131   1.420   .     A
C1130  C1132   1.393   .     A
C1131  C1134   1.427   .     A
C1131  C1153   1.424   .     A
C1132  C1133   1.382   .     A
C1132  H1162   1.084   .     S
C1133  C1145   1.398   .     A
C1133  H1165   1.084   .     S
C1134  C1145   1.417   .     A
C1134  S1196   1.801   .     S
C1135  C1211   1.368   .     S
C1135  S1269   1.790   .     S
C1136  C1285   1.368   1_455 S
C1136  S1345   1.786   1_455 S
C1137  H1167   1.085   .     S
C1137  C1146   1.392   .     A
C1137  C1144   1.399   .     A
C1138  C1141   1.450   .     S
C1138  C689    1.331   1_565 S
C1138  H713    1.088   1_565 S
C1139  C1140   1.434   .     S
C1140  O1192   1.281   .     A
C1140  O1181   1.281   .     A
C1141  O1193   1.278   .     A
C1141  O1187   1.279   .     A
C1142  O1173   1.277   .     A
C1142  C1145   1.448   .     S
C1142  O1171   1.269   .     A
C1143  O1172   1.287   .     A
C1143  C1144   1.475   .     S
C1143  O1174   1.286   .     A
C1144  C1148   1.417   .     A
C1146  C1151   1.414   .     A
C1146  C1147   1.485   .     S
C1147  H1160   1.086   .     S
C1147  O510    1.221   1_556 S
C1148  C1149   1.487   .     S
C1148  C1150   1.427   .     A
C1149  O1186   1.222   .     D
C1149  H1161   1.086   .     S
C1150  C1151   1.424   .     A
C1150  C1152   1.430   .     A
C1151  C480    1.402   1_556 S
C1152  C478    1.422   1_556 S
C1153  C1154   1.402   .     A
C1154  H1168   1.078   .     S
C1154  C1155   1.385   .     A
C1155  H1156   1.082   .     S
H1157  O1327   0.991   1_455 S
H1158  O1255   0.991   .     S
H1159  O1184   0.991   .     S
H1164  C689    1.086   1_565 S
H1166  C453    1.083   1_556 S
O1170  Zn1198  1.940   .     S
O1170  Zn1197  1.973   .     S
O1170  Zn1199  1.949   .     S
O1170  Zn1200  1.942   .     S
O1171  Zn1198  1.951   .     S
O1172  Zn1200  1.958   .     S
O1173  Zn1199  1.947   .     S
O1174  Zn1197  1.942   .     S
O1175  S1194   1.502   .     D
O1176  S1194   1.502   .     D
O1177  H1232   0.991   .     S
O1177  S1269   1.683   .     S
O1178  S1195   1.504   .     D
O1179  S1195   1.504   .     D
O1180  H1308   0.991   1_455 S
O1180  S1345   1.683   1_455 S
O1181  Zn1197  1.919   .     S
O1182  S1196   1.503   .     D
O1183  S1196   1.502   .     D
O1184  S1196   1.682   .     S
O1187  Zn1200  1.928   .     S
O1188  Zn1198  1.945   .     S
O1189  Zn1199  1.952   .     S
O1190  Zn1200  1.944   .     S
O1191  Zn1197  1.940   .     S
O1192  Zn1198  1.936   .     S
O1193  Zn1199  1.925   .     S
S1194  C1285   1.790   1_455 S
S1194  O1327   1.683   1_455 S
S1195  O1255   1.683   .     S
S1195  C1211   1.786   .     S
C1201  C1211   1.428   .     S
C1201  O1265   1.269   .     A
C1201  O1263   1.262   .     A
C1202  H1244   1.078   .     S
C1202  C1227   1.410   .     A
C1202  C528    1.383   1_556 S
C1203  C1205   1.390   .     A
C1204  C1210   1.463   .     S
C1204  O1264   1.296   .     A
C1204  O1266   1.277   .     A
C1205  C1206   1.420   .     A
C1205  C1207   1.393   .     A
C1206  C1209   1.427   .     A
C1206  C1228   1.424   .     A
C1207  C1208   1.382   .     A
C1207  H1237   1.084   .     S
C1208  C1220   1.398   .     A
C1208  H1240   1.084   .     S
C1209  C1220   1.417   .     A
C1209  S1271   1.801   .     S
C1210  C1286   1.368   .     S
C1210  S1344   1.790   .     S
C1212  H1242   1.085   .     S
C1212  C1221   1.392   .     A
C1212  C1219   1.399   .     A
C1213  C1216   1.450   .     S
C1213  C764    1.331   1_565 S
C1213  H788    1.088   1_565 S
C1214  C1215   1.434   .     S
C1215  O1267   1.281   .     A
C1215  O1256   1.281   .     A
C1216  O1268   1.278   .     A
C1216  O1262   1.279   .     A
C1217  O1248   1.277   .     A
C1217  C1220   1.448   .     S
C1217  O1246   1.269   .     A
C1218  O1247   1.287   .     A
C1218  C1219   1.475   .     S
C1218  O1249   1.286   .     A
C1219  C1223   1.417   .     A
C1221  C1226   1.414   .     A
C1221  C1222   1.485   .     S
C1222  H1235   1.086   .     S
C1222  O585    1.221   1_556 S
C1223  C1224   1.487   .     S
C1223  C1225   1.427   .     A
C1224  O1261   1.222   .     D
C1224  H1236   1.086   .     S
C1225  C1226   1.424   .     A
C1225  C1227   1.430   .     A
C1226  C555    1.402   1_556 S
C1227  C553    1.422   1_556 S
C1228  C1229   1.402   .     A
C1229  H1243   1.078   .     S
C1229  C1230   1.385   .     A
C1230  H1231   1.082   .     S
H1233  O1330   0.991   .     S
H1234  O1259   0.991   .     S
H1239  C764    1.086   1_565 S
H1241  C528    1.083   1_556 S
O1245  Zn1273  1.940   .     S
O1245  Zn1272  1.973   .     S
O1245  Zn1274  1.949   .     S
O1245  Zn1275  1.942   .     S
O1246  Zn1273  1.951   .     S
O1247  Zn1275  1.958   .     S
O1248  Zn1274  1.947   .     S
O1249  Zn1272  1.942   .     S
O1250  S1269   1.502   .     D
O1251  S1269   1.502   .     D
O1252  H1307   0.991   .     S
O1252  S1344   1.683   .     S
O1253  S1270   1.504   .     D
O1254  S1270   1.504   .     D
O1256  Zn1272  1.919   .     S
O1257  S1271   1.503   .     D
O1258  S1271   1.502   .     D
O1259  S1271   1.682   .     S
O1262  Zn1275  1.928   .     S
O1263  Zn1273  1.945   .     S
O1264  Zn1274  1.952   .     S
O1265  Zn1275  1.944   .     S
O1266  Zn1272  1.940   .     S
O1267  Zn1273  1.936   .     S
O1268  Zn1274  1.925   .     S
S1270  O1330   1.683   .     S
S1270  C1286   1.786   .     S
C1276  C1286   1.428   .     S
C1276  O1340   1.269   .     A
C1276  O1338   1.262   .     A
C1277  H1319   1.078   .     S
C1277  C1302   1.410   .     A
C1277  C603    1.383   1_556 S
C1278  C1280   1.390   .     A
C1279  C1285   1.463   .     S
C1279  O1339   1.296   .     A
C1279  O1341   1.277   .     A
C1280  C1281   1.420   .     A
C1280  C1282   1.393   .     A
C1281  C1284   1.427   .     A
C1281  C1303   1.424   .     A
C1282  C1283   1.382   .     A
C1282  H1312   1.084   .     S
C1283  C1295   1.398   .     A
C1283  H1315   1.084   .     S
C1284  C1295   1.417   .     A
C1284  S1346   1.801   .     S
C1285  C1136   1.368   1_655 S
C1285  S1194   1.790   1_655 S
C1287  H1317   1.085   .     S
C1287  C1296   1.392   .     A
C1287  C1294   1.399   .     A
C1288  C1291   1.450   .     S
C1288  C839    1.331   1_565 S
C1288  H863    1.088   1_565 S
C1289  C1290   1.434   .     S
C1290  O1342   1.281   .     A
C1290  O1331   1.281   .     A
C1291  O1343   1.278   .     A
C1291  O1337   1.279   .     A
C1292  O1323   1.277   .     A
C1292  C1295   1.448   .     S
C1292  O1321   1.269   .     A
C1293  O1322   1.287   .     A
C1293  C1294   1.475   .     S
C1293  O1324   1.286   .     A
C1294  C1298   1.417   .     A
C1296  C1301   1.414   .     A
C1296  C1297   1.485   .     S
C1297  H1310   1.086   .     S
C1297  O660    1.221   1_556 S
C1298  C1299   1.487   .     S
C1298  C1300   1.427   .     A
C1299  O1336   1.222   .     D
C1299  H1311   1.086   .     S
C1300  C1301   1.424   .     A
C1300  C1302   1.430   .     A
C1301  C630    1.402   1_556 S
C1302  C628    1.422   1_556 S
C1303  C1304   1.402   .     A
C1304  H1318   1.078   .     S
C1304  C1305   1.385   .     A
C1305  H1306   1.082   .     S
H1308  O1180   0.991   1_655 S
H1309  O1334   0.991   .     S
H1314  C839    1.086   1_565 S
H1316  C603    1.083   1_556 S
O1320  Zn1348  1.940   .     S
O1320  Zn1347  1.973   .     S
O1320  Zn1349  1.949   .     S
O1320  Zn1350  1.942   .     S
O1321  Zn1348  1.951   .     S
O1322  Zn1350  1.958   .     S
O1323  Zn1349  1.947   .     S
O1324  Zn1347  1.942   .     S
O1325  S1344   1.502   .     D
O1326  S1344   1.502   .     D
O1327  H1157   0.991   1_655 S
O1327  S1194   1.683   1_655 S
O1328  S1345   1.504   .     D
O1329  S1345   1.504   .     D
O1331  Zn1347  1.919   .     S
O1332  S1346   1.503   .     D
O1333  S1346   1.502   .     D
O1334  S1346   1.682   .     S
O1337  Zn1350  1.928   .     S
O1338  Zn1348  1.945   .     S
O1339  Zn1349  1.952   .     S
O1340  Zn1350  1.944   .     S
O1341  Zn1347  1.940   .     S
O1342  Zn1348  1.936   .     S
O1343  Zn1349  1.925   .     S
S1345  O1180   1.683   1_655 S
S1345  C1136   1.786   1_655 S
